data_mof_unit_134.cif
_audit_creation_date              2013-03-05T15:54:25-0500
_audit_creation_method            fapswitch 2.2
_symmetry_space_group_name_H-M    P1
_symmetry_Int_Tables_number       1
_space_group_crystal_system       triclinic
_cell_length_a                    15.732952
_cell_length_b                    10.636755
_cell_length_c                    9.947125
_cell_angle_alpha                 90.387148
_cell_angle_beta                  90.117543
_cell_angle_gamma                 92.494949
_cell_volume                      1663.00654617

loop_
_atom_site_label
_atom_site_type_symbol
_atom_site_description
_atom_site_fract_x
_atom_site_fract_y
_atom_site_fract_z
_atom_type_partial_charge
O1    O     O_R   0.500000 0.316780 0.614690 -0.616182
O2    O     O_R   0.499990 0.316750 0.385360 -0.588925
C1    C     C_R   0.504230 0.258569 0.499755 0.931598
O3    O     O_R   0.376780 0.500000 0.614650 -0.623831
O4    O     O_R   0.376770 0.499980 0.385310 -0.613448
C2    C     C_R   0.338148 0.499234 0.499855 0.828705
Zn1   Zn    Zn3+2 0.500010 0.500020 0.653130 0.997557
Zn2   Zn    Zn3+2 0.499990 0.499980 0.346870 1.060903
O5    O     O_R   0.500010 0.683250 0.614640 -0.629785
O6    O     O_R   0.500000 0.683220 0.385310 -0.527676
O7    O     O_R   0.623230 0.500020 0.614690 -0.596790
O8    O     O_R   0.623220 0.500000 0.385350 -0.583001
C3    C     C_R   0.484921 0.736432 0.499882 0.951747
C4    C     C_R   0.661853 0.500394 0.500126 0.920141
C5    C     C_3   0.967609 0.382755 0.463986 -0.256444
C6    C     C_3   0.025627 0.469970 0.378156 0.370036
H1    H     H_    0.940135 0.289169 0.432680 0.197904
H2    H     H_    0.951143 0.654432 0.338006 0.211641
C7    C     C_1   0.249347 0.498684 0.499569 -0.103973
C8    C     C_1   0.750680 0.499835 0.500296 -0.058665
C9    C     C_3   0.026356 0.411482 0.587840 -0.250252
C10   C     C_3   0.083320 0.497995 0.498959 0.020872
C11   C     C_3   0.974456 0.526706 0.621254 0.366044
C12   C     C_3   0.916722 0.498714 0.500468 0.014676
C13   C     C_3   0.032429 0.613922 0.535419 -0.257393
C14   C     C_3   0.973719 0.585200 0.411556 -0.227326
C15   C     C_1   0.174116 0.498236 0.499249 0.071713
C16   C     C_1   0.825909 0.499264 0.500390 0.090578
H3    H     H_    0.059922 0.707502 0.566724 0.194703
H4    H     H_    0.048967 0.342256 0.661369 0.197629
C17   C     C_R   0.529664 0.100392 0.747496 0.515088
C18   C     C_R   0.498178 0.046265 0.867132 -0.330953
H5    H     H_    0.517874 0.084393 0.963998 0.206605
C19   C     C_R   0.440514 0.943357 0.862084 -0.118187
H6    H     H_    0.411599 0.907548 0.953258 0.238756
C20   C     C_R   0.421741 0.883328 0.740180 0.499599
C21   C     C_R   0.457771 0.933721 0.619951 -0.165005
C22   C     C_R   0.497555 0.053867 0.622059 -0.062262
C23   C     C_R   0.501660 0.121276 0.498642 -0.162586
C24   C     C_R   0.481402 0.058958 0.375298 0.335704
C25   C     C_R   0.460616 0.930594 0.375717 0.247050
C26   C     C_R   0.459847 0.866482 0.498462 -0.282231
C27   C     C_R   0.382205 0.343047 0.137930 -0.164044
H7    H     H_    0.382671 0.334321 0.244377 0.195465
C28   C     C_R   0.323891 0.263866 0.067156 0.485637
C29   C     C_R   0.325177 0.263701 0.927787 -0.177335
H8    H     H_    0.281691 0.201049 0.872046 0.181646
C30   C     C_R   0.383395 0.341131 0.858813 -0.196880
H9    H     H_    0.382646 0.331075 0.752245 0.208654
C31   C     C_R   0.441373 0.423644 0.927005 0.096340
C32   C     C_R   0.440799 0.424656 0.071241 0.048559
N1    N     N_R   0.499210 0.498800 0.142780 -0.185513
C33   C     C_R   0.561500 0.563714 0.072509 0.346674
C34   C     C_R   0.559603 0.567952 0.930131 0.410557
N2    N     N_R   0.499180 0.498720 0.857170 -0.176913
N3    N     N_R   0.053184 0.438330 0.242729 0.230610
O9    O     O_R   0.996834 0.416933 0.148590 -0.291258
O10   O     O_R   0.133558 0.430987 0.214968 -0.351787
O11   O     O_3   0.364565 0.781083 0.741888 -0.717636
H10   H     H_    0.342270 0.765945 0.649719 0.329963
N4    N     N_R   0.442471 0.865435 0.251338 0.206689
O12   O     O_R   0.373422 0.794445 0.238319 -0.375595
O13   O     O_R   0.497712 0.870474 0.154300 -0.365722
N5    N     N_R   0.634064 0.619103 0.141165 0.254568
O14   O     O_R   0.709493 0.581050 0.112899 -0.304230
O15   O     O_R   0.627332 0.719617 0.214446 -0.299451
O16   O     O_3   0.266502 0.183202 0.131555 -0.710184
H11   H     H_    0.273425 0.194063 0.230131 0.332218
O17   O     O_3   0.621606 0.642194 0.868590 -0.672191
H12   H     H_    0.603515 0.657529 0.776042 0.385080
N6    N     N_R   0.947064 0.558212 0.756792 0.229116
O18   O     O_R   0.003540 0.579822 0.850701 -0.297210
O19   O     O_R   0.866698 0.564590 0.785049 -0.312128
O20   O     O_3   0.484744 0.123851 0.255220 -0.737299
H13   H     H_    0.443399 0.084468 0.190815 0.347406
O21   O     O_3   0.596170 0.189699 0.750990 -0.714905
H14   H     H_    0.610267 0.210922 0.845932 0.346767

loop_
_geom_bond_atom_site_label_1
_geom_bond_atom_site_label_2
_geom_bond_distance
_ccdc_geom_bond_type
C24   C25   1.390122 A    
C25   C26   1.402328 A    
H2    C14   1.110259 S    
C25   N4    1.436065 S    
C20   O11   1.381094 S    
C33   C34   1.417570 A    
Zn1   O7    1.976732 S    
C2    C7    1.396858 S    
C20   C21   1.422638 A    
C12   C14   1.541116 S    
C22   C23   1.426039 A    
O7    C4    1.292513 A    
C5    C6    1.537163 S    
N3    O9    1.300304 A    
C5    H1    1.110193 S    
C19   H6    1.079725 S    
C21   C26   1.401245 A    
N4    O13   1.300003 A    
O5    C3    1.303345 A    
C34   N2    1.379020 A    
N3    O10   1.300425 A    
C10   C13   1.540845 S    
C28   O16   1.379893 S    
C11   C12   1.524594 S    
Zn1   N2    2.029818 S    
C7    C15   1.183399 T    
Zn2   N1    2.030070 S    
C30   C31   1.407897 A    
C1    C23   1.459120 S    
O11   H10   0.990597 S    
C9    C10   1.540804 S    
C13   H3    1.110235 S    
N4    O12   1.301448 A    
O3    Zn1   1.975416 S    
C3    C26   1.455041 S    
C6    C14   1.537006 S    
C29   C30   1.390154 A    
O20   H13   0.989942 S    
C32   N1    1.378223 A    
C4    C8    1.397780 S    
O21   H14   0.991948 S    
O3    C2    1.292275 A    
C23   C24   1.419605 A    
N6    O19   1.300364 A    
C8    C16   1.183851 T    
C13   C14   1.558921 S    
C28   C29   1.386505 A    
O16   H11   0.991778 S    
O1    C1    1.299701 A    
N5    O15   1.298175 A    
C27   H7    1.063564 S    
C6    N3    1.457704 S    
C21   C22   1.398331 A    
C11   N6    1.457585 S    
C17   C18   1.407083 A    
Zn2   O8    1.975416 S    
C31   C32   1.434749 A    
C27   C28   1.403115 A    
C5    C12   1.541133 S    
O8    C4    1.292202 A    
C10   C15   1.428380 S    
C9    C11   1.536904 S    
N1    C33   1.369733 A    
Zn1   O5    1.988758 S    
C29   H8    1.083222 S    
C30   H9    1.064691 S    
C6    C10   1.524407 S    
O1    Zn1   1.983687 S    
O2    Zn2   1.988759 S    
C12   C16   1.429020 S    
O6    C3    1.295974 A    
O4    Zn2   1.976731 S    
C9    H4    1.110274 S    
C31   N2    1.376319 A    
C17   C22   1.422762 A    
C18   H5    1.082335 S    
O2    C1    1.301941 A    
N6    O18   1.300318 A    
N5    O14   1.301099 A    
C27   C32   1.408560 A    
C17   O21   1.382488 S    
O4    C2    1.292304 A    
C34   O17   1.375447 S    
C33   N5    1.431666 S    
C24   O20   1.383517 S    
C19   C20   1.391743 A    
C11   C13   1.536813 S    
O17   H12   0.979843 S    
C5    C9    1.559202 S    
Zn2   O6    1.983686 S    
C18   C19   1.391536 A    
