data_mof_unit_4657.cif
_audit_creation_date              2012-12-10T17:40:30-0500
_audit_creation_method            fapswitch 2.2
_symmetry_space_group_name_H-M    P1
_symmetry_Int_Tables_number       1
_space_group_crystal_system       triclinic
_cell_length_a                    13.798402
_cell_length_b                    15.057818
_cell_length_c                    15.807101
_cell_angle_alpha                 88.456654
_cell_angle_beta                  69.621453
_cell_angle_gamma                 90.728073
_cell_volume                      3076.77363707

loop_
_atom_site_label
_atom_site_type_symbol
_atom_type_description
_atom_site_fract_x
_atom_site_fract_y
_atom_site_fract_z
_atom_type_partial_charge
C1    C     C_R   0.501693 0.671051 0.496867 0.857782
C2    C     C_R   0.498614 0.328845 0.502234 0.876792
C3    C     C_R   0.378218 0.539126 0.095823 -0.099724
C4    C     C_R   0.622260 0.542450 0.903051 -0.131957
C5    C     C_R   0.307449 0.549295 0.051573 -0.158813
C6    C     C_R   0.693648 0.551158 0.946567 -0.170371
C7    C     C_R   0.532404 0.183823 0.564906 0.329321
C8    C     C_R   0.467801 0.815489 0.433024 0.331117
C9    C     C_R   0.496687 0.232099 0.504719 -0.167369
C10   C     C_R   0.504011 0.767633 0.493232 -0.150939
C11   C     C_R   0.460205 0.188419 0.444715 -0.265416
C12   C     C_R   0.541472 0.811507 0.552383 -0.289888
C13   C     C_R   0.461715 0.095794 0.440993 0.112018
C14   C     C_R   0.540194 0.903997 0.555747 0.119381
C15   C     C_R   0.499827 0.046527 0.499824 -0.015023
C16   C     C_R   0.501918 0.953132 0.496938 -0.015406
C17   C     C_R   0.535374 0.090620 0.561910 0.008748
C18   C     C_R   0.465901 0.908887 0.435172 0.015555
C19   C     C_R   0.426333 0.051726 0.379327 0.136532
C20   C     C_R   0.575861 0.948006 0.617214 0.142473
C21   C     C_R   0.428571 0.958942 0.377198 -0.165989
C22   C     C_R   0.573174 0.040644 0.619600 -0.160066
C23   C     C_R   0.437110 0.499477 0.672783 0.865720
C24   C     C_R   0.562789 0.498964 0.327444 0.870689
C25   C     C_R   0.233012 0.550004 0.436981 0.110858
C26   C     C_R   0.771580 0.438156 0.551092 0.088560
C27   C     C_R   0.180203 0.446357 0.561187 0.309487
C28   C     C_R   0.817976 0.559082 0.444370 0.314358
C29   C     C_R   0.079525 0.436931 0.555568 -0.053489
C30   C     C_R   0.924210 0.553209 0.435395 0.003681
C31   C     C_R   0.054220 0.493041 0.493760 -0.032386
C32   C     C_R   0.951053 0.493356 0.493156 -0.057701
C33   C     C_R   0.131583 0.550166 0.433832 -0.081040
C34   C     C_R   0.874139 0.434927 0.551389 -0.133962
C35   C     C_R   0.002422 0.374457 0.610452 0.094167
C36   C     C_R   0.003836 0.606861 0.371747 0.103675
C37   C     C_R   0.901613 0.373981 0.607687 0.403186
C38   C     C_R   0.106241 0.605367 0.371603 0.309049
C39   C     C_R   0.400378 0.506253 0.772089 -0.150797
C40   C     C_R   0.599788 0.504365 0.227974 -0.136258
C41   C     C_R   0.266350 0.546214 0.912602 0.185919
C42   C     C_R   0.735544 0.544575 0.084947 0.182535
C43   C     C_R   0.300111 0.534704 0.818993 -0.287959
C44   C     C_R   0.701736 0.532156 0.179090 -0.271099
C45   C     C_R   0.468349 0.490881 0.819654 0.311976
C46   C     C_R   0.530693 0.488363 0.181923 0.310867
C47   C     C_R   0.442254 0.518407 0.909180 -0.036901
C48   C     C_R   0.557677 0.516591 0.090714 -0.012623
C49   C     C_R   0.337770 0.537922 0.958185 0.080780
C50   C     C_R   0.663137 0.537308 0.040367 0.093950
C51   C     C_R   0.516691 0.524846 0.952282 0.101486
C52   C     C_R   0.483289 0.523474 0.047441 0.089115
Cu1   Cu    Cu3+1 0.402580 0.500010 0.499990 0.994163
Cu2   Cu    Cu3+1 0.597420 0.499990 0.500010 0.981657
H1    H     H_    0.228615 0.564960 0.091371 0.186913
H2    H     H_    0.773092 0.567965 0.905910 0.172876
H3    H     H_    0.294145 0.590935 0.390292 0.226029
H4    H     H_    0.712452 0.392398 0.592703 0.252592
H5    H     H_    0.755617 0.543079 0.214055 0.169249
H6    H     H_    0.247393 0.546889 0.783062 0.161872
H7    H     H_    0.351284 0.550347 0.167466 0.224262
H8    H     H_    0.649459 0.556008 0.830923 0.180218
H9    H     H_    0.432399 0.227721 0.399772 0.212299
H10   H     H_    0.569562 0.772382 0.597256 0.185865
H11   H     H_    0.400693 0.926578 0.329573 0.211608
H12   H     H_    0.601116 0.072916 0.667229 0.215775
N1    N     N_R   0.256170 0.500070 0.500040 -0.212681
N2    N     N_R   0.743830 0.499930 0.499960 -0.230192
O1    O     O_R   0.417730 0.629750 0.499970 -0.545755
O2    O     O_R   0.582270 0.370250 0.500030 -0.546149
O3    O     O_R   0.582270 0.629730 0.499980 -0.619256
O4    O     O_R   0.417730 0.370270 0.500020 -0.595126
O5    O     O_R   0.371590 0.500020 0.629830 -0.617597
O6    O     O_R   0.628410 0.499980 0.370170 -0.617024
O7    O     O_R   0.536130 0.499990 0.629840 -0.533656
O8    O     O_R   0.463870 0.500010 0.370160 -0.526244
N3    N     N_3   0.197333 0.406572 0.637633 -0.627417
H13   H     H_    0.197533 0.455586 0.682876 0.232754
H14   H     H_    0.263292 0.368668 0.619370 0.272342
N4    N     N_3   0.788608 0.633577 0.401387 -0.552207
H15   H     H_    0.753639 0.680403 0.449411 0.245773
H16   H     H_    0.743185 0.614734 0.364342 0.259813
N5    N     N_3   0.024294 0.307031 0.666783 -0.507216
H17   H     H_    0.089915 0.272592 0.629486 0.250672
H18   H     H_    0.033208 0.335709 0.723147 0.254183
N6    N     N_3   0.982009 0.660642 0.304438 -0.544352
H19   H     H_    0.028239 0.640378 0.240519 0.250039
H20   H     H_    0.000361 0.726970 0.311469 0.274464
Cl1   Cl    Cl    0.810124 0.295319 0.677592 -0.479483
Cl2   Cl    Cl    0.201779 0.674899 0.292579 -0.627457
Cl3   Cl    Cl    0.423758 0.413451 0.231190 -0.615553
Cl4   Cl    Cl    0.572108 0.417222 0.776346 -0.519102
N7    N     N_3   0.161009 0.569285 0.960773 -0.584774
H21   H     H_    0.121440 0.580709 0.915999 0.225690
H22   H     H_    0.124533 0.514092 0.001486 0.215244
N8    N     N_3   0.842094 0.567739 0.035040 -0.585341
H23   H     H_    0.882658 0.578498 0.078883 0.229157
H24   H     H_    0.875285 0.512844 0.997415 0.216212
Cl5   Cl    Cl    0.566678 0.240340 0.647527 -0.533860
Cl6   Cl    Cl    0.430656 0.757946 0.352193 -0.603265
N9    N     N_3   0.388056 0.101369 0.318955 -0.555051
H25   H     H_    0.451686 0.132818 0.269806 0.241101
H26   H     H_    0.354846 0.058841 0.284872 0.239854
N10   N     N_3   0.614539 0.898425 0.677359 -0.581911
H27   H     H_    0.551002 0.867407 0.727001 0.222287
H28   H     H_    0.648537 0.940945 0.710831 0.241105

loop_
_geom_bond_atom_site_label_1
_geom_bond_atom_site_label_2
_ccdc_geom_bond_type
N7    H21   S    
C27   C29   A    
C18   C21   A    
C19   N9    S    
C25   N1    A    
Cu1   O1    S    
N10   H28   S    
C47   C49   A    
N3    H13   S    
C40   C46   A    
C1    O3    A    
C7    Cl5   S    
C42   N8    S    
C35   C37   A    
C11   H9    S    
C12   H10   S    
N6    H20   S    
Cu2   N2    S    
C44   H5    S    
C15   C16   A    
C34   C37   A    
C4    H8    S    
C7    C9    A    
C3    H7    S    
C45   Cl4   S    
C27   N3    S    
C22   H12   S    
Cu2   O6    S    
C26   C34   A    
C41   N7    S    
Cu2   O3    S    
C31   C32   A    
C7    C17   A    
N8    H24   S    
C31   C33   A    
C39   C45   A    
C21   H11   S    
C48   C50   A    
N7    H22   S    
C41   C43   A    
C5    C49   A    
C42   C44   A    
C23   O5    A    
C2    O4    A    
C41   C49   A    
N10   H27   S    
C45   C47   A    
C46   C48   A    
C13   C19   A    
C4    C51   A    
C51   C52   A    
C25   H3    S    
N9    H25   S    
C14   C20   A    
N4    H16   S    
C6    H2    S    
C35   N5    S    
N6    H19   S    
C24   O8    A    
C39   C43   A    
C46   Cl3   S    
C36   N6    S    
Cu1   Cu2   S    
C8    C18   A    
C32   C34   A    
C2    C9    S    
C26   H4    S    
N5    H17   S    
Cu2   O2    S    
C40   C44   A    
N8    H23   S    
N3    H14   S    
C16   C18   A    
C6    C50   A    
C9    C11   A    
C10   C12   A    
C43   H6    S    
C42   C50   A    
C4    C6    A    
N5    H18   S    
C12   C14   A    
C13   C15   A    
C14   C16   A    
Cu1   O8    S    
C20   C22   A    
C28   N4    S    
C15   C17   A    
C38   Cl2   S    
C28   N2    A    
C5    H1    S    
C8    C10   A    
Cu1   O5    S    
C1    C10   S    
C33   C38   A    
C23   O7    A    
N4    H15   S    
C3    C5    A    
C47   C51   A    
C3    C52   A    
C20   N10   S    
C37   Cl1   S    
C29   C35   A    
C17   C22   A    
C30   C36   A    
C26   N2    A    
C28   C30   A    
C8    Cl6   S    
C29   C31   A    
C30   C32   A    
C11   C13   A    
C24   O6    A    
C23   C39   S    
C36   C38   A    
C24   C40   S    
Cu1   N1    S    
C1    O1    A    
C27   N1    A    
Cu2   O7    S    
C48   C52   A    
N9    H26   S    
C2    O2    A    
Cu1   O4    S    
C25   C33   A    
C19   C21   A    
