data_mof_unit_1754.cif
_audit_creation_date              2012-12-10T19:47:58-0500
_audit_creation_method            fapswitch 2.2
_symmetry_space_group_name_H-M    P1
_symmetry_Int_Tables_number       1
_space_group_crystal_system       triclinic
_cell_length_a                    15.029985
_cell_length_b                    14.102582
_cell_length_c                    10.40351
_cell_angle_alpha                 89.800231
_cell_angle_beta                  88.925863
_cell_angle_gamma                 90.041621
_cell_volume                      2204.74299322

loop_
_atom_site_label
_atom_site_type_symbol
_atom_type_description
_atom_site_fract_x
_atom_site_fract_y
_atom_site_fract_z
_atom_type_partial_charge
C1    C     C_R   0.326899 0.500000 0.503124 0.883196
C2    C     C_R   0.672324 0.500038 0.503004 0.908167
C3    C     C_R   0.046125 0.500183 0.560802 0.097157
C4    C     C_R   0.949985 0.503289 0.555484 0.097513
C5    C     C_R   0.463071 0.105396 0.398183 -0.290153
C6    C     C_R   0.568285 0.894679 0.558955 -0.288866
C7    C     C_R   0.536921 0.104951 0.601900 -0.291037
C8    C     C_R   0.431755 0.894882 0.440991 -0.291111
C9    C     C_R   0.463110 0.204820 0.400636 0.012128
C10   C     C_R   0.566747 0.795231 0.558360 0.011027
C11   C     C_R   0.536912 0.204395 0.599378 0.003703
C12   C     C_R   0.433359 0.795446 0.441426 0.010326
C13   C     C_R   0.499986 0.053356 0.500055 0.143785
C14   C     C_R   0.499990 0.946598 0.500045 0.140420
C15   C     C_R   0.513796 0.500276 0.258503 0.910247
C16   C     C_R   0.482883 0.499805 0.739801 0.909953
C17   C     C_R   0.553325 0.676341 0.095088 0.243400
C18   C     C_R   0.434632 0.325381 0.901089 0.244369
C19   C     C_R   0.428073 0.672203 0.898433 0.247865
C20   C     C_R   0.561793 0.327668 0.096163 0.242062
C21   C     C_R   0.520353 0.760790 0.043555 -0.218246
C22   C     C_R   0.466519 0.240463 0.952828 -0.234249
C23   C     C_R   0.455629 0.758639 0.949972 -0.215913
C24   C     C_R   0.532283 0.241648 0.045255 -0.235229
C25   C     C_R   0.466690 0.586292 0.942907 0.033781
C26   C     C_R   0.522809 0.414029 0.053811 0.033128
C27   C     C_R   0.518512 0.587906 0.053393 0.029854
C28   C     C_R   0.470362 0.412994 0.943876 0.036805
C29   C     C_R   0.459598 0.499365 0.877391 -0.239517
C30   C     C_R   0.531431 0.501115 0.119212 -0.240665
C31   C     C_R   0.093373 0.584786 0.568674 -0.240854
C32   C     C_R   0.898293 0.434360 0.617994 -0.242137
C33   C     C_R   0.910635 0.571796 0.477774 -0.226914
C34   C     C_R   0.090192 0.414777 0.538613 -0.234891
C35   C     C_R   0.184380 0.586286 0.546017 0.070690
C36   C     C_R   0.806855 0.432297 0.600643 0.066032
C37   C     C_R   0.819702 0.571574 0.460496 0.047571
C38   C     C_R   0.181821 0.413587 0.519181 0.069106
C39   C     C_R   0.230038 0.500070 0.521076 -0.063654
C40   C     C_R   0.767584 0.500424 0.519790 -0.038587
H1    H     H_    0.559756 0.175098 0.078398 0.153868
H2    H     H_    0.428080 0.824800 0.915547 0.151666
H3    H     H_    0.441426 0.172980 0.919635 0.153252
H4    H     H_    0.544796 0.828655 0.076388 0.151938
H5    H     H_    0.058823 0.651008 0.586830 0.133487
H6    H     H_    0.928904 0.381999 0.679505 0.134743
H7    H     H_    0.950772 0.624140 0.426766 0.135670
H8    H     H_    0.053100 0.349227 0.530066 0.134387
H9    H     H_    0.435296 0.069971 0.316032 0.132093
H10   H     H_    0.623391 0.930244 0.603747 0.132415
H11   H     H_    0.564701 0.069156 0.684057 0.132472
H12   H     H_    0.376679 0.930578 0.396104 0.132268
H13   H     H_    0.434122 0.243988 0.322300 0.146337
H14   H     H_    0.619325 0.756053 0.604171 0.138020
H15   H     H_    0.565883 0.243247 0.677701 0.150819
H16   H     H_    0.380994 0.756452 0.395131 0.144613
N1    N     N_R   0.500000 0.252470 0.500000 -0.097650
N2    N     N_R   0.500000 0.747530 0.500000 -0.099821
O1    O     O_R   0.369060 0.579480 0.500010 -0.608017
O2    O     O_R   0.630940 0.420520 0.499990 -0.606033
O3    O     O_R   0.630940 0.579480 0.499990 -0.614694
O4    O     O_R   0.369060 0.420520 0.500010 -0.598026
O5    O     O_R   0.499990 0.579480 0.316780 -0.602704
O6    O     O_R   0.500010 0.420520 0.683220 -0.608988
O7    O     O_R   0.500010 0.579480 0.683220 -0.604367
O8    O     O_R   0.499990 0.420520 0.316780 -0.611898
Zn1   Zn    Zn3+2 0.500000 0.606140 0.500000 0.935872
Zn2   Zn    Zn3+2 0.500000 0.393860 0.500000 0.938699
C41   C     C_3   0.631706 0.683475 0.182393 -0.854032
H17   H     H_    0.612022 0.720301 0.272645 0.264779
H18   H     H_    0.659272 0.612696 0.205390 0.233742
H19   H     H_    0.685646 0.724808 0.133904 0.214593
C42   C     C_3   0.357704 0.319794 0.810097 -0.867108
H20   H     H_    0.331579 0.390746 0.784180 0.224916
H21   H     H_    0.378360 0.282139 0.721013 0.258504
H22   H     H_    0.302127 0.279760 0.856604 0.218490
C43   C     C_3   0.352850 0.674488 0.804887 -0.866941
H23   H     H_    0.374413 0.712688 0.716184 0.265626
H24   H     H_    0.329362 0.602525 0.779321 0.226387
H25   H     H_    0.295317 0.712660 0.848751 0.213851
C44   C     C_3   0.640306 0.324657 0.184517 -0.866748
H26   H     H_    0.664929 0.396451 0.208797 0.222379
H27   H     H_    0.622128 0.286253 0.274501 0.257837
H28   H     H_    0.696223 0.286501 0.136400 0.218852
N3    N     N_3   0.228810 0.676299 0.544815 -0.445219
H29   H     H_    0.202516 0.717220 0.470638 0.172126
H30   H     H_    0.213959 0.710790 0.631336 0.181644
N4    N     N_3   0.753870 0.362770 0.667771 -0.441285
H31   H     H_    0.763655 0.370954 0.766370 0.179744
H32   H     H_    0.777006 0.295552 0.641417 0.179659
N5    N     N_3   0.781048 0.642457 0.380133 -0.463705
H33   H     H_    0.794685 0.708901 0.419507 0.187088
H34   H     H_    0.812493 0.639252 0.289718 0.178114
N6    N     N_3   0.224540 0.324589 0.493396 -0.431873
H35   H     H_    0.196058 0.294951 0.411871 0.176328
H36   H     H_    0.211621 0.279183 0.571195 0.181566

loop_
_geom_bond_atom_site_label_1
_geom_bond_atom_site_label_2
_ccdc_geom_bond_type
O8    Zn2   S    
C17   C41   S    
C42   H20   S    
C19   C23   A    
C1    O4    A    
C44   H26   S    
C43   H23   S    
C36   N4    S    
C7    C11   A    
C23   H2    S    
O6    Zn2   S    
C28   C29   A    
C10   N2    A    
C37   C40   A    
C1    O1    A    
C38   C39   A    
C2    O2    A    
C6    C14   A    
C41   H18   S    
C19   C43   S    
O1    Zn1   S    
C20   C24   A    
O7    Zn1   S    
C8    H12   S    
C5    C13   A    
C2    O3    A    
C3    C31   A    
C12   N2    A    
C43   H24   S    
C34   C38   A    
C13   C14   S    
C27   C30   A    
C24   H1    S    
C42   H21   S    
C5    H9    S    
C41   H17   S    
C19   C25   A    
C44   H27   S    
N3    H30   S    
C25   C29   A    
O5    Zn1   S    
C37   N5    S    
C17   C27   A    
C36   C40   A    
C18   C28   A    
C9    N1    A    
N5    H33   S    
C3    C34   A    
C16   C29   S    
N3    H29   S    
C15   O8    A    
C33   C37   A    
C41   H19   S    
C35   C39   A    
C5    C9    A    
N5    H34   S    
C21   H4    S    
O3    Zn1   S    
C22   H3    S    
C8    C12   A    
C38   N6    S    
C12   H16   S    
C6    H10   S    
N6    H36   S    
C4    C32   A    
N4    H32   S    
C26   C30   A    
C18   C42   S    
C21   C23   A    
C33   H7    S    
C42   H22   S    
C22   C24   A    
C9    H13   S    
N1    Zn2   S    
C3    C4    S    
C32   C36   A    
C44   H28   S    
C11   H15   S    
C15   C30   S    
C43   H25   S    
C4    C33   A    
C8    C14   A    
C18   C22   A    
C32   H6    S    
C6    C10   A    
C25   C27   A    
C26   C28   A    
O4    Zn2   S    
C7    H11   S    
C11   N1    A    
C35   N3    S    
C20   C26   A    
C31   C35   A    
N6    H35   S    
C10   H14   S    
C17   C21   A    
C1    C39   S    
C2    C40   S    
N2    Zn1   S    
C7    C13   A    
C34   H8    S    
N4    H31   S    
O2    Zn2   S    
C31   H5    S    
C15   O5    A    
C16   O7    A    
C16   O6    A    
C20   C44   S    
