data_mof_unit_2312.cif
_audit_creation_date              2012-12-10T20:30:10-0500
_audit_creation_method            fapswitch 2.2
_symmetry_space_group_name_H-M    P1
_symmetry_Int_Tables_number       1
_space_group_crystal_system       triclinic
_cell_length_a                    9.895208
_cell_length_b                    10.688733
_cell_length_c                    12.952981
_cell_angle_alpha                 90.247561
_cell_angle_beta                  71.322484
_cell_angle_gamma                 89.806294
_cell_volume                      1297.82276721

loop_
_atom_site_label
_atom_site_type_symbol
_atom_type_description
_atom_site_fract_x
_atom_site_fract_y
_atom_site_fract_z
_atom_type_partial_charge
C1    C     C_R   0.501186 0.739981 0.496735 0.884976
C2    C     C_R   0.446929 0.384929 0.974452 -0.147658
C3    C     C_R   0.487194 0.391020 0.860331 0.017587
C4    C     C_R   0.553454 0.406037 0.023422 0.133763
C5    C     C_R   0.699105 0.403271 0.958918 0.143052
C6    C     C_R   0.736377 0.370580 0.849129 -0.251034
C7    C     C_R   0.630858 0.364028 0.799876 -0.125964
C8    C     C_R   0.518147 0.445170 0.131399 -0.162139
C9    C     C_R   0.767393 0.470450 0.114020 -0.115362
C10   C     C_R   0.382284 0.425423 0.812306 -0.185391
C11   C     C_R   0.386059 0.936714 0.479275 0.025766
C12   C     C_R   0.423711 0.478785 0.701627 0.929497
C13   C     C_R   0.507877 0.871373 0.479574 -0.146678
C14   C     C_R   0.637781 0.934664 0.459410 -0.167826
C15   C     C_R   0.638041 0.064098 0.459528 -0.191171
C16   C     C_R   0.508351 0.128594 0.480105 -0.060053
C17   C     C_R   0.386133 0.064453 0.480308 0.002204
C18   C     C_3   0.236962 0.072296 0.557455 0.384792
C19   C     C_3   0.236853 0.930617 0.556053 0.353441
C20   C     C_R   0.909721 0.597546 0.545172 0.217962
C21   C     C_R   0.951288 0.410820 0.445236 -0.230644
C22   C     C_R   0.095321 0.411176 0.444610 0.658506
C23   C     C_R   0.501623 0.260073 0.496697 0.926528
C24   C     C_R   0.051208 0.596302 0.546778 0.222017
C25   C     C_3   0.006064 0.636099 0.663433 -0.477659
C26   C     C_3   0.854101 0.642074 0.660269 -0.477951
C27   C     C_R   0.578200 0.497585 0.295234 0.885075
C28   C     C_R   0.804501 0.437284 0.004129 -0.108851
C29   C     C_R   0.623497 0.473783 0.178015 -0.139700
C30   C     C_R   0.237848 0.408769 0.872652 -0.372010
C31   C     C_R   0.200074 0.367928 0.980483 0.602506
C32   C     C_R   0.302258 0.361653 0.033202 0.530781
H1    H     H_    0.850286 0.494398 0.148488 0.200336
H2    H     H_    0.160623 0.116544 0.521559 0.167657
H3    H     H_    0.022847 0.561537 0.717778 0.186563
H4    H     H_    0.048235 0.729089 0.675281 0.238484
H5    H     H_    0.781773 0.574561 0.715283 0.219753
H6    H     H_    0.847147 0.358630 0.799844 0.156335
H7    H     H_    0.914550 0.441493 0.953155 0.175221
H8    H     H_    0.407860 0.459186 0.179110 0.233033
H9    H     H_    0.155572 0.423712 0.835480 0.189847
H10   H     H_    0.663650 0.339190 0.714433 0.183625
H11   H     H_    0.736584 0.885324 0.451035 0.191176
N1    N     N_R   0.856940 0.500860 0.500710 -0.156712
N2    N     N_R   0.142580 0.500820 0.500710 -0.183276
O1    O     O_R   0.385310 0.683210 0.499990 -0.590757
O2    O     O_R   0.614650 0.683240 0.500000 -0.612814
O3    O     O_R   0.328390 0.499940 0.653610 -0.615783
O4    O     O_R   0.557730 0.499980 0.653620 -0.631806
O5    O     O_R   0.385350 0.316760 0.500000 -0.548697
O6    O     O_R   0.614690 0.316790 0.500010 -0.656695
O7    O     O_R   0.442270 0.500020 0.346380 -0.579830
O8    O     O_R   0.671610 0.500060 0.346390 -0.607915
Zn1   Zn    Zn3+2 0.346870 0.499980 0.499990 1.036627
Zn2   Zn    Zn3+2 0.653130 0.500020 0.500010 0.949629
H12   H     H_    0.736982 0.112554 0.451032 0.181212
F1    F     F_    0.231428 0.120478 0.658215 -0.673094
H13   H     H_    0.228282 0.886358 0.635393 0.101780
F2    F     F_    0.144420 0.883058 0.505177 -0.668389
H14   H     H_    0.915194 0.337492 0.402663 0.200043
F3    F     F_    0.185887 0.320419 0.389268 -0.615038
H15   H     H_    0.811319 0.739076 0.666093 0.224653
F4    F     F_    0.260628 0.320926 0.137784 -0.603779
F5    F     F_    0.064216 0.335274 0.035472 -0.649753

loop_
_geom_bond_atom_site_label_1
_geom_bond_atom_site_label_2
_ccdc_geom_bond_type
C17   C18   S    
O3    Zn1   S    
C2    C4    A    
C6    H6    S    
C26   H5    S    
C6    C7    A    
C13   C14   A    
C27   C29   S    
C5    C28   A    
C11   C13   A    
C10   C30   A    
C18   F1    S    
C3    C7    A    
C31   C32   A    
C9    C29   A    
C30   C31   A    
C4    C8    A    
C15   H12   S    
O1    Zn1   S    
C27   O8    A    
C12   O4    A    
C26   H15   S    
C30   H9    S    
C3    C10   A    
C21   C22   A    
C24   C25   S    
C22   F3    S    
C9    H1    S    
C18   H2    S    
N1    Zn2   S    
C11   C19   S    
O5    Zn1   S    
C10   C12   S    
C25   H3    S    
C24   N2    A    
C2    C32   A    
C20   N1    A    
C12   O3    A    
O7    Zn1   S    
N2    Zn1   S    
C2    C3    A    
C16   C23   S    
O6    Zn2   S    
O8    Zn2   S    
C19   H13   S    
C5    C6    A    
C1    O1    A    
C1    C13   S    
C8    C29   A    
C25   H4    S    
C15   C16   A    
C21   N1    A    
C16   C17   A    
C22   N2    A    
C27   O7    A    
C32   F4    S    
C21   H14   S    
O2    Zn2   S    
C18   C19   S    
C7    H10   S    
C14   C15   A    
C4    C5    A    
C23   O5    A    
C8    H8    S    
C28   H7    S    
C19   F2    S    
C25   C26   S    
O4    Zn2   S    
C23   O6    A    
C31   F5    S    
C1    O2    A    
C20   C24   A    
C9    C28   A    
C14   H11   S    
C20   C26   S    
C11   C17   A    
