data_mof_unit_2543.cif
_audit_creation_date              2012-12-11T14:17:44-0500
_audit_creation_method            fapswitch 2.2
_symmetry_space_group_name_H-M    P1
_symmetry_Int_Tables_number       1
_space_group_crystal_system       triclinic
_cell_length_a                    6.929334
_cell_length_b                    13.701182
_cell_length_c                    20.386344
_cell_angle_alpha                 101.740702
_cell_angle_beta                  90.596971
_cell_angle_gamma                 90.400156
_cell_volume                      1894.80291365

loop_
_atom_site_label
_atom_site_type_symbol
_atom_type_description
_atom_site_fract_x
_atom_site_fract_y
_atom_site_fract_z
_atom_type_partial_charge
O1    O     O_R   0.506860 0.599390 0.449240 -0.551648
O2    O     O_R   0.180220 0.594600 0.586780 -0.555578
O3    O     O_R   0.004500 0.400610 0.550760 -0.540426
C1    C     C_R   0.350392 0.618325 0.612218 0.671182
O4    O     O_R   0.177490 0.611290 0.451970 -0.530401
O5    O     O_R   0.001750 0.417420 0.414990 -0.541765
C2    C     C_R   0.345345 0.635875 0.433092 0.735569
O6    O     O_R   0.509610 0.582580 0.585010 -0.515528
O7    O     O_3   0.337420 0.436370 0.488020 -0.370691
V1    V     V_3+5 0.064680 0.511800 0.502220 1.544560
O8    O     O_R   0.671710 0.405400 0.413220 -0.543681
C3    C     C_R   0.839036 0.386175 0.385976 0.713685
O9    O     O_R   0.674440 0.388710 0.548030 -0.536404
C4    C     C_R   0.844181 0.362458 0.565194 0.694647
V2    V     V_3+5 0.564010 0.488200 0.497780 1.547585
O10   O     O_3   0.841140 0.563630 0.511980 -0.361205
C5    C     C_R   0.068751 0.148422 0.622397 -0.073908
H1    H     H_    0.236234 0.070475 0.714724 0.184137
H2    H     H_    0.169377 0.089342 0.603435 0.180644
C6    C     C_R   0.865259 0.282241 0.602500 -0.170266
C7    C     C_R   0.731960 0.293336 0.918961 -0.219079
C8    C     C_R   0.690575 0.366904 0.883423 -0.031593
C9    C     C_R   0.760450 0.361070 0.819009 0.378875
C10   C     C_R   0.863658 0.274829 0.787020 -0.060115
C11   C     C_R   0.939098 0.210697 0.828493 -0.036528
C12   C     C_R   0.897212 0.250420 0.716207 0.072634
C13   C     C_R   0.026191 0.172364 0.690699 -0.029766
C14   C     C_R   0.123402 0.122825 0.733854 -0.120262
C15   C     C_R   0.088978 0.144367 0.802095 0.394312
C16   C     C_R   0.806275 0.299444 0.669426 -0.245342
C17   C     C_R   0.993317 0.203829 0.578405 0.408687
C18   C     C_R   0.858391 0.215844 0.893520 -0.068920
H3    H     H_    0.697010 0.354985 0.684106 0.178456
H4    H     H_    0.668318 0.298373 0.967880 0.143436
H5    H     H_    0.605642 0.430383 0.906737 0.196387
C19   C     C_2   0.999602 0.287423 0.285301 -0.008020
C20   C     C_2   0.839173 0.326094 0.316917 -0.196955
H6    H     H_    0.138924 0.303205 0.310239 0.154104
H7    H     H_    0.701554 0.317387 0.290503 0.188897
C21   C     C_2   0.999919 0.231362 0.214346 -0.193323
C22   C     C_2   0.861640 0.165947 0.185254 0.232210
H8    H     H_    0.125305 0.242907 0.185208 0.142575
C23   C     C_2   0.219963 0.795573 0.777572 0.356539
C24   C     C_2   0.354717 0.801202 0.826994 0.199384
C25   C     C_2   0.218564 0.714126 0.717239 -0.150776
C26   C     C_2   0.365546 0.696878 0.673485 0.244437
H9    H     H_    0.086313 0.670409 0.706762 0.154104
C27   C     C_R   0.221545 0.878463 0.384330 0.457549
C28   C     C_R   0.347582 0.717070 0.395355 -0.321799
C29   C     C_R   0.371512 0.683415 0.072545 0.318389
C30   C     C_R   0.342554 0.608610 0.108549 -0.193441
C31   C     C_R   0.312593 0.631801 0.177553 0.429318
C32   C     C_R   0.327563 0.732455 0.213159 0.054258
C33   C     C_R   0.330243 0.808590 0.175167 -0.102676
C34   C     C_R   0.325776 0.760506 0.284630 -0.033622
C35   C     C_R   0.266104 0.858167 0.315209 -0.164531
C36   C     C_R   0.258335 0.932699 0.276172 0.498895
C37   C     C_R   0.300568 0.907767 0.207773 -0.199393
C38   C     C_R   0.393227 0.696461 0.326336 0.368826
C39   C     C_R   0.260892 0.808678 0.424018 0.279977
C40   C     C_R   0.357908 0.783824 0.104888 -0.143973
H10   H     H_    0.334463 0.531648 0.082048 0.188487
H11   H     H_    0.302871 0.966885 0.179748 0.120671
O11   O     O_R   0.203230 0.917310 0.915020 -0.518201
O12   O     O_R   0.535500 0.888690 0.048040 -0.533157
O13   O     O_R   0.711080 0.082610 0.085000 -0.529796
C41   C     C_R   0.366948 0.861797 0.064831 0.772628
O14   O     O_R   0.532630 0.905370 0.913230 -0.507002
O15   O     O_R   0.708190 0.099410 0.949230 -0.532887
C42   C     C_R   0.362757 0.881642 0.887650 0.828322
O16   O     O_R   0.206120 0.900510 0.050790 -0.553215
O17   O     O_3   0.375360 0.063570 0.011990 -0.373539
V3    V     V_3+5 0.648170 0.988200 0.997780 1.659041
O18   O     O_R   0.038240 0.111390 0.951940 -0.513141
C43   C     C_R   0.870350 0.134435 0.931496 0.782759
O19   O     O_R   0.041120 0.094710 0.086750 -0.570169
C44   C     C_R   0.873254 0.112606 0.114436 0.653337
V4    V     V_3+5 0.148810 0.011930 0.002180 1.592423
O20   O     O_3   0.871750 0.936430 0.988010 -0.360357
O21   O     O_3   0.057499 0.183227 0.513253 -0.582140
H12   H     H_    0.969290 0.213643 0.484689 0.306950
Cl1   Cl    Cl    0.669396 0.128797 0.231553 -0.655674
Cl2   Cl    Cl    0.029845 0.881562 0.782291 -0.545461
Cl3   Cl    Cl    0.526741 0.705367 0.824477 -0.484944
Cl4   Cl    Cl    0.571982 0.775513 0.682278 -0.516855
O22   O     O_3   0.212352 0.833033 0.491061 -0.584061
H13   H     H_    0.285109 0.790864 0.516590 0.301283
O23   O     O_3   0.223755 0.030888 0.305969 -0.573180
H14   H     H_    0.222933 0.072778 0.271615 0.316915
Cl5   Cl    Cl    0.094453 0.985572 0.422935 -0.448884
O24   O     O_3   0.512362 0.618502 0.298777 -0.602975
H15   H     H_    0.578927 0.592269 0.334497 0.306880
Cl6   Cl    Cl    0.405452 0.648515 0.985420 -0.589960
Cl7   Cl    Cl    0.211779 0.535097 0.212400 -0.624888
O25   O     O_3   0.742189 0.445430 0.792621 -0.609455
H16   H     H_    0.862708 0.453043 0.768237 0.302082
Cl8   Cl    Cl    0.280622 0.111174 0.850135 -0.634483

loop_
_geom_bond_atom_site_label_1
_geom_bond_atom_site_label_2
_ccdc_geom_bond_type
C34   C35   A    
C34   C38   A    
C23   Cl2   S    
O25   H16   S    
C1    O6    A    
C18   C43   S    
C17   O21   S    
C6    C16   A    
C32   C33   A    
C8    H5    S    
C12   C13   A    
C28   C39   A    
C14   C15   A    
C10   C12   A    
C22   C44   S    
V2    O10   S    
O12   V3    S    
C35   C36   A    
C25   H9    S    
C3    C20   S    
O17   V4    S    
O8    V2    S    
O12   C41   A    
C9    C10   A    
O15   V3    S    
O1    V2    S    
O11   C42   A    
O7    V1    S    
C26   Cl4   S    
C11   C18   A    
C21   H8    S    
O1    C2    A    
O9    C4    A    
C30   H10   S    
C27   C39   A    
C32   C34   A    
C11   C15   A    
C7    C18   A    
O18   C43   A    
C30   C31   A    
C5    C13   A    
C4    C6    S    
C19   C21   S    
H1    C14   S    
C10   C11   A    
C2    C28   S    
O24   H15   S    
O4    C2    A    
C39   O22   S    
O22   H13   S    
O21   H12   S    
C1    C26   S    
C7    H4    S    
O14   V3    S    
C25   C26   D    
O13   V3    S    
O2    C1    A    
C23   C24   D    
C31   Cl7   S    
C40   C41   S    
C29   C30   A    
V3    O20   S    
C38   O24   S    
O19   C44   A    
C24   C42   S    
C23   C25   S    
O3    C4    A    
C21   C22   D    
C12   C16   A    
O6    V2    S    
O9    V2    S    
C5    C17   A    
O2    V1    S    
C31   C32   A    
C33   C37   A    
C37   H11   S    
C27   C35   A    
O13   C44   A    
C19   C20   D    
C16   H3    S    
V4    O20   S    
O11   V4    S    
O19   V4    S    
O17   V3    S    
C24   Cl3   S    
O5    V1    S    
O8    C3    A    
C29   Cl6   S    
C33   C40   A    
C28   C38   A    
C36   O23   S    
C15   Cl8   S    
C19   H6    S    
O7    V2    S    
O4    V1    S    
C20   H7    S    
O3    V1    S    
V1    O10   S    
O5    C3    A    
C36   C37   A    
C22   Cl1   S    
C5    H2    S    
C9    O25   S    
O15   C43   A    
C41   O16   A    
O23   H14   S    
O14   C42   A    
O18   V4    S    
C13   C14   A    
C29   C40   A    
C8    C9    A    
C27   Cl5   S    
C7    C8    A    
O16   V4    S    
C6    C17   A    
