data_mof_unit_4250.cif
_audit_creation_date              2013-03-05T15:53:29-0500
_audit_creation_method            fapswitch 2.2
_symmetry_space_group_name_H-M    P1
_symmetry_Int_Tables_number       1
_space_group_crystal_system       triclinic
_cell_length_a                    24.613095
_cell_length_b                    17.263848
_cell_length_c                    15.58233
_cell_angle_alpha                 89.852442
_cell_angle_beta                  129.409272
_cell_angle_gamma                 90.233222
_cell_volume                      5115.69535983

loop_
_atom_site_label
_atom_site_type_symbol
_atom_site_description
_atom_site_fract_x
_atom_site_fract_y
_atom_site_fract_z
_atom_type_partial_charge
C1    C     C_R   0.850916 0.857693 0.241007 -0.099104
C2    C     C_R   0.150761 0.859691 0.761828 -0.094245
C3    C     C_R   0.350774 0.357829 0.241633 -0.117635
C4    C     C_R   0.648208 0.357238 0.757120 -0.091715
H1    H     H_    0.802892 0.841689 0.224204 0.101025
H2    H     H_    0.198113 0.844042 0.776175 0.111007
H3    H     H_    0.303187 0.341997 0.226669 0.119944
H4    H     H_    0.695348 0.340879 0.771520 0.118620
N1    N     N_R   0.888400 0.921830 0.294620 -0.032993
N2    N     N_R   0.111600 0.921830 0.705380 -0.031285
N3    N     N_R   0.388400 0.421830 0.294620 -0.037410
N4    N     N_R   0.611600 0.421830 0.705380 -0.030619
C5    C     C_R   0.111669 0.894931 0.406077 -0.104067
C6    C     C_R   0.897901 0.873671 0.594054 -0.102211
C7    C     C_R   0.610650 0.393913 0.405163 -0.130566
C8    C     C_R   0.387586 0.398925 0.594432 -0.128329
H5    H     H_    0.090427 0.896394 0.320462 0.138811
H6    H     H_    0.922273 0.865835 0.679788 0.119731
H7    H     H_    0.588846 0.396099 0.319263 0.160851
H8    H     H_    0.409040 0.406322 0.679683 0.142819
N5    N     N_R   0.079940 0.922160 0.443410 -0.056362
N6    N     N_R   0.920060 0.922160 0.556590 -0.049862
N7    N     N_R   0.579940 0.422160 0.443410 -0.053102
N8    N     N_R   0.420060 0.422160 0.556590 -0.056937
C9    C     C_R   0.187601 0.896606 0.590556 -0.088735
C10   C     C_R   0.820263 0.875962 0.409464 -0.133352
C11   C     C_R   0.687610 0.395803 0.589334 -0.059519
C12   C     C_R   0.311629 0.398289 0.410694 -0.040723
N9    N     N_R   0.125650 0.922400 0.556620 -0.063272
N10   N     N_R   0.874350 0.922400 0.443380 -0.052246
N11   N     N_R   0.625650 0.422400 0.556620 -0.063380
N12   N     N_R   0.374350 0.422400 0.443380 -0.068303
C13   C     C_R   0.062624 0.863457 0.768759 -0.063515
C14   C     C_R   0.943024 0.858793 0.243509 -0.039045
C15   C     C_R   0.557464 0.359331 0.758296 -0.054512
C16   C     C_R   0.441525 0.359885 0.240315 -0.039942
H9    H     H_    0.031863 0.852775 0.794541 0.142741
H10   H     H_    0.980790 0.843170 0.232848 0.139055
H11   H     H_    0.520791 0.345067 0.772069 0.142431
H12   H     H_    0.477525 0.345736 0.225372 0.142745
N13   N     N_R   0.054230 0.922730 0.705400 -0.055573
N14   N     N_R   0.945770 0.922730 0.294600 -0.055217
N15   N     N_R   0.554230 0.422730 0.705400 -0.055893
N16   N     N_R   0.445770 0.422730 0.294600 -0.052212
C17   C     C_R   0.884885 0.815997 0.210895 -0.056577
C18   C     C_R   0.120251 0.820711 0.799974 -0.052579
C19   C     C_R   0.383515 0.316985 0.208600 -0.049746
C20   C     C_R   0.615062 0.316157 0.789629 -0.052151
C21   C     C_R   0.178985 0.878210 0.496621 -0.017330
C22   C     C_R   0.838429 0.838312 0.503528 -0.002146
C23   C     C_R   0.678411 0.376754 0.494309 -0.024558
C24   C     C_R   0.319044 0.382852 0.505596 0.027580
C25   C     C_R   0.838847 0.143023 0.406166 -0.093348
C26   C     C_R   0.163854 0.141440 0.594033 -0.104639
C27   C     C_R   0.338272 0.642755 0.406071 -0.070157
C28   C     C_R   0.688963 0.599754 0.593744 -0.146953
H13   H     H_    0.798730 0.158052 0.319955 0.127278
H14   H     H_    0.201784 0.157610 0.680165 0.122256
H15   H     H_    0.297068 0.657080 0.320045 0.120034
H16   H     H_    0.735688 0.590288 0.677902 0.160255
N17   N     N_R   0.873790 0.077030 0.443380 -0.035218
N18   N     N_R   0.126210 0.077030 0.556620 -0.038093
N19   N     N_R   0.373790 0.577030 0.443380 -0.035123
N20   N     N_R   0.626210 0.577030 0.556620 -0.044001
C29   C     C_R   0.922500 0.107519 0.197338 -0.139118
C30   C     C_R   0.077851 0.106050 0.803392 -0.142440
C31   C     C_R   0.423519 0.609175 0.198943 -0.101979
C32   C     C_R   0.578349 0.607128 0.803215 -0.136350
H17   H     H_    0.949668 0.104401 0.164143 0.150542
H18   H     H_    0.051153 0.100808 0.837263 0.146130
H19   H     H_    0.451493 0.607766 0.167014 0.147389
H20   H     H_    0.552671 0.601419 0.838714 0.147108
N21   N     N_R   0.945200 0.076700 0.294600 -0.055444
N22   N     N_R   0.054800 0.076700 0.705400 -0.059258
N23   N     N_R   0.445200 0.576700 0.294600 -0.056671
N24   N     N_R   0.554800 0.576700 0.705400 -0.059229
C33   C     C_R   0.167134 0.106918 0.801639 -0.074177
C34   C     C_R   0.833028 0.107158 0.198750 -0.083280
C35   C     C_R   0.666584 0.610356 0.798416 -0.076723
C36   C     C_R   0.333465 0.608119 0.199270 -0.078377
H21   H     H_    0.219989 0.104241 0.829498 0.142441
H22   H     H_    0.780192 0.104112 0.170990 0.134383
H23   H     H_    0.718656 0.610570 0.823118 0.159291
H24   H     H_    0.280517 0.605545 0.171086 0.143943
N25   N     N_R   0.111030 0.077600 0.705380 -0.048174
N26   N     N_R   0.888970 0.077600 0.294620 -0.051499
N27   N     N_R   0.611030 0.577600 0.705380 -0.045589
N28   N     N_R   0.388970 0.577600 0.294620 -0.051787
C37   C     C_R   0.906949 0.140631 0.591358 -0.077780
C38   C     C_R   0.096845 0.137493 0.408721 -0.082813
C39   C     C_R   0.407306 0.640317 0.591356 -0.048029
C40   C     C_R   0.616037 0.603298 0.410218 -0.006071
N29   N     N_R   0.919490 0.077280 0.556590 -0.063537
N30   N     N_R   0.080510 0.077280 0.443410 -0.061771
N31   N     N_R   0.419490 0.577280 0.556590 -0.063298
N32   N     N_R   0.580510 0.577280 0.443410 -0.073517
Ni1   Ni    Ni4+2 0.882160 0.999430 0.370180 0.272671
Ni2   Ni    Ni4+2 0.117840 0.999430 0.629820 0.264560
Ni3   Ni    Ni4+2 0.382160 0.499430 0.370180 0.266863
Ni4   Ni    Ni4+2 0.617840 0.499430 0.629820 0.256122
Ni5   Ni    Ni4+2 0.012460 0.999430 0.370180 0.256852
Ni6   Ni    Ni4+2 0.987540 0.999430 0.629820 0.255373
Ni7   Ni    Ni4+2 0.512460 0.499430 0.370180 0.254508
Ni8   Ni    Ni4+2 0.487540 0.499430 0.629820 0.253888
C41   C     C_R   0.858547 0.185038 0.496800 -0.052037
C42   C     C_R   0.146345 0.182026 0.503547 -0.025454
C43   C     C_R   0.358559 0.684167 0.497166 -0.034531
C44   C     C_R   0.685588 0.616694 0.504614 -0.018618
C45   C     C_R   0.852491 0.126774 0.135883 0.110014
C46   C     C_R   0.147790 0.125526 0.864865 0.110704
C47   C     C_R   0.353623 0.628569 0.137474 0.102289
C48   C     C_R   0.647882 0.628736 0.862664 0.115124
C49   C     C_R   0.838506 0.734583 0.612178 0.175019
C50   C     C_R   0.203949 0.758995 0.451985 0.103607
C51   C     C_R   0.293427 0.318960 0.616707 0.130229
C52   C     C_R   0.699431 0.292248 0.395547 0.134557
C53   C     C_R   0.816089 0.762522 0.510256 0.056828
C54   C     C_R   0.224962 0.834165 0.491336 0.059591
C55   C     C_R   0.268445 0.359053 0.519919 0.078375
C56   C     C_R   0.726448 0.346227 0.480062 0.070160
C57   C     C_R   0.777295 0.711910 0.418870 -0.103395
C58   C     C_R   0.292036 0.860940 0.536231 -0.082273
C59   C     C_R   0.195123 0.363984 0.435624 -0.075111
C60   C     C_R   0.798578 0.364267 0.549644 -0.124230
H25   H     H_    0.768442 0.724368 0.342751 0.126581
H26   H     H_    0.309102 0.918709 0.569846 0.129922
H27   H     H_    0.171941 0.403434 0.367004 0.155085
H28   H     H_    0.819982 0.412229 0.607350 0.148303
C61   C     C_R   0.151604 0.310524 0.434409 -0.115392
C62   C     C_R   0.844091 0.314525 0.551225 -0.078560
C63   C     C_R   0.743312 0.648512 0.422584 -0.127796
C64   C     C_R   0.336732 0.812332 0.535927 -0.072173
H29   H     H_    0.095702 0.310028 0.365326 0.164464
H30   H     H_    0.900319 0.324235 0.610121 0.164997
H31   H     H_    0.708901 0.613557 0.349017 0.144354
H32   H     H_    0.389078 0.831798 0.571161 0.150058
C65   C     C_R   0.182688 0.252707 0.516315 0.075855
C66   C     C_R   0.816088 0.248331 0.483467 0.055515
C67   C     C_R   0.746986 0.639461 0.515906 0.011774
C68   C     C_R   0.312738 0.738638 0.488892 0.014161
C69   C     C_R   0.251462 0.265102 0.613895 0.040177
C70   C     C_R   0.743633 0.242882 0.398900 0.050980
C71   C     C_R   0.805177 0.672512 0.615994 0.071527
C72   C     C_R   0.247429 0.711479 0.450346 0.113827
C73   C     C_3   0.816911 0.705743 0.716048 -0.360007
C74   C     C_3   0.187567 0.680269 0.337607 -0.289961
C75   C     C_3   0.312439 0.212676 0.694574 -0.294870
C76   C     C_3   0.693203 0.175969 0.356076 -0.300986
C77   C     C_3   0.852919 0.774205 0.709878 -0.514665
C78   C     C_3   0.139421 0.731777 0.341318 -0.500589
C79   C     C_3   0.358804 0.272280 0.696999 -0.500726
C80   C     C_3   0.643588 0.231627 0.351278 -0.495392
H33   H     H_    0.768065 0.723191 0.701040 0.169174
H34   H     H_    0.190125 0.697595 0.271462 0.168011
H35   H     H_    0.323280 0.208301 0.775425 0.201509
H36   H     H_    0.673348 0.156563 0.272586 0.184900
H37   H     H_    0.823024 0.829124 0.686728 0.208783
H38   H     H_    0.114370 0.777532 0.276444 0.215786
H39   H     H_    0.395582 0.301473 0.778953 0.222121
H40   H     H_    0.595859 0.244829 0.264963 0.233964
H41   H     H_    0.910122 0.778919 0.781273 0.234516
H42   H     H_    0.102819 0.700503 0.348451 0.214823
H43   H     H_    0.383647 0.252088 0.661308 0.218706
H44   H     H_    0.632957 0.218262 0.409318 0.218394
H45   H     H_    0.712351 0.116747 0.987738 0.163509
H46   H     H_    0.287747 0.116290 0.013365 0.164201
H47   H     H_    0.214085 0.616235 0.987646 0.161280
H48   H     H_    0.787830 0.621088 0.008061 0.182458
H49   H     H_    0.209263 0.720386 0.821402 0.140503
H50   H     H_    0.788074 0.719859 0.175898 0.118650
H51   H     H_    0.710129 0.219521 0.821818 0.147454
H52   H     H_    0.289747 0.218765 0.178995 0.149125
C81   C     C_2   0.146990 0.749585 0.866979 0.362161
C82   C     C_2   0.862942 0.740749 0.153211 0.346960
C83   C     C_2   0.640469 0.243821 0.854528 0.360790
C84   C     C_2   0.357987 0.244749 0.143785 0.363293
C85   C     C_2   0.194388 0.706479 0.871978 -0.310670
C86   C     C_2   0.809312 0.701686 0.135887 -0.278217
C87   C     C_2   0.692205 0.203811 0.867648 -0.302123
C88   C     C_2   0.307275 0.203489 0.132564 -0.299315
H53   H     H_    0.829066 0.186593 0.991326 0.158110
H54   H     H_    0.170798 0.184185 0.009459 0.159666
H55   H     H_    0.330883 0.690750 0.994990 0.156887
H56   H     H_    0.672044 0.684450 0.009956 0.155956
C89   C     C_2   0.805865 0.154190 0.020930 -0.194935
C90   C     C_2   0.194170 0.152332 0.980025 -0.196995
C91   C     C_2   0.307617 0.656544 0.023092 -0.190843
C92   C     C_2   0.695043 0.654915 0.978286 -0.225001
C93   C     C_2   0.735984 0.149673 0.959525 -0.009936
C94   C     C_2   0.263989 0.148534 0.041604 -0.014213
C95   C     C_2   0.237863 0.650587 0.960777 -0.013540
C96   C     C_2   0.764909 0.650829 0.039427 -0.025469
C97   C     C_2   0.865458 0.655695 0.817668 1.146422
O1    O     O_2   0.921716 0.633849 0.844793 -0.572624
O2    O     O_R   0.844797 0.632740 0.879108 -0.796961
H57   H     H_    0.879437 0.595590 0.941075 0.361373
C98   C     C_2   0.172894 0.595308 0.335397 1.099750
O3    O     O_2   0.215082 0.553762 0.414929 -0.675055
O4    O     O_R   0.110515 0.564303 0.240051 -0.737083
H58   H     H_    0.105594 0.506777 0.246518 0.318498
C99   C     C_2   0.312301 0.135489 0.649553 1.095971
O5    O     O_2   0.294283 0.130079 0.556328 -0.633913
O6    O     O_R   0.334571 0.070205 0.717164 -0.767487
H59   H     H_    0.335100 0.022052 0.680920 0.319462
C100  C     C_2   0.718711 0.110458 0.438006 1.094320
O7    O     O_2   0.740984 0.123265 0.532636 -0.620674
O8    O     O_R   0.717383 0.034883 0.404935 -0.781284
H60   H     H_    0.736846 0.995835 0.466896 0.327585
N33   N     N_R   0.127068 0.731424 0.933820 0.239809
O9    O     O_R   0.061487 0.718003 0.886751 -0.377082
O10   O     O_R   0.173327 0.734778 0.041635 -0.412140
N34   N     N_R   0.895315 0.713239 0.108186 0.240031
O11   O     O_R   0.922613 0.644217 0.133736 -0.396053
O12   O     O_R   0.904761 0.759747 0.052786 -0.383037
N35   N     N_R   0.616125 0.223052 0.914470 0.238351
O13   O     O_R   0.550032 0.206979 0.860605 -0.398752
O14   O     O_R   0.657919 0.229364 0.022135 -0.410557
N36   N     N_R   0.381329 0.225013 0.082307 0.238684
O15   O     O_R   0.446929 0.207732 0.134740 -0.407008
O16   O     O_R   0.339026 0.232593 0.974792 -0.421208
C101  C     C_2   0.254907 0.908708 0.703314 0.963838
O17   O     O_2   0.306194 0.869304 0.737265 -0.624217
O18   O     O_R   0.259462 0.965265 0.771692 -0.798613
H61   H     H_    0.307921 0.968202 0.847206 0.348477
C102  C     C_2   0.747679 0.889611 0.306159 1.018485
O19   O     O_2   0.698446 0.852760 0.286757 -0.605753
O20   O     O_R   0.735169 0.948052 0.233262 -0.799158
H62   H     H_    0.683515 0.953186 0.166497 0.341015
C103  C     C_2   0.754687 0.402090 0.703779 0.924857
O21   O     O_2   0.801945 0.355827 0.737972 -0.613489
O22   O     O_R   0.762664 0.458814 0.774863 -0.825772
H63   H     H_    0.810324 0.456688 0.851683 0.335105
C104  C     C_2   0.245719 0.407420 0.296206 0.942812
O23   O     O_2   0.201047 0.356378 0.253084 -0.635795
O24   O     O_R   0.236549 0.472637 0.234963 -0.812312
H64   H     H_    0.189867 0.472121 0.156754 0.338360
C105  C     C_2   0.919994 0.144348 0.697605 1.018396
O25   O     O_2   0.924503 0.084145 0.743260 -0.638528
O26   O     O_R   0.925829 0.215570 0.745095 -0.788826
H65   H     H_    0.934100 0.209784 0.817354 0.346435
C106  C     C_2   0.086833 0.134986 0.304579 0.996863
O27   O     O_2   0.072263 0.073186 0.256040 -0.652115
O28   O     O_R   0.097072 0.200620 0.263879 -0.787156
H66   H     H_    0.089580 0.189999 0.193054 0.345358
C107  C     C_2   0.421330 0.645344 0.698253 0.975368
O29   O     O_2   0.426724 0.585909 0.745977 -0.650561
O30   O     O_R   0.426536 0.717518 0.743337 -0.783549
H67   H     H_    0.435448 0.713077 0.816238 0.342635
C108  C     C_2   0.587926 0.600665 0.294445 0.908018
O31   O     O_2   0.565141 0.539787 0.242834 -0.671515
O32   O     O_R   0.585990 0.668331 0.243129 -0.766022
H68   H     H_    0.565188 0.659399 0.163200 0.332436

loop_
_geom_bond_atom_site_label_1
_geom_bond_atom_site_label_2
_geom_bond_distance
_ccdc_geom_bond_type
N24   Ni8   1.849784 S    
O6    H59   1.010959 S    
C39   C107  1.473659 S    
C107  O30   1.396914 S    
C58   H26   1.079521 S    
C85   C95   1.453366 S    
C27   H15   1.077403 S    
C22   C53   1.446362 S    
C12   C24   1.395297 A    
C99   O5    1.223928 D    
C6    H6    1.070086 S    
C75   C79   1.516071 S    
O18   H61   1.013699 S    
C14   N14   1.338779 A    
C25   C41   1.374306 A    
N22   N25   1.384214 A    
C36   H24   1.079873 S    
C34   N26   1.333417 A    
C80   H40   1.111489 S    
O32   H68   1.013803 S    
C62   H30   1.082542 S    
C100  O7    1.223953 D    
C2    C18   1.389477 A    
C7    H7    1.081142 S    
N10   Ni1   1.837102 S    
N1    N14   1.412276 A    
C103  O21   1.221979 D    
C48   C92   1.463626 S    
N9    Ni2   1.842477 S    
H50   C86   1.084695 S    
C1    H1    1.070904 S    
C8    H8    1.081428 S    
C28   H16   1.074487 S    
C102  O19   1.222325 D    
N4    N15   1.412400 A    
C63   H31   1.078085 S    
C10   C22   1.391438 A    
H54   C90   1.087471 S    
N17   N29   1.362993 A    
C76   C80   1.520984 S    
N35   O14   1.301313 A    
C10   C102  1.479341 S    
O28   H66   1.013879 S    
C30   N22   1.346043 A    
C105  O26   1.395831 S    
N19   N31   1.362993 A    
C40   N32   1.343024 A    
C79   H39   1.111783 S    
C29   N21   1.347328 A    
N13   Ni6   1.841144 S    
C16   C19   1.388774 A    
N3    Ni3   1.855798 S    
C106  O27   1.222956 D    
C54   C58   1.399137 A    
H49   C85   1.085096 S    
C43   C68   1.412885 S    
N2    Ni2   1.850512 S    
N26   Ni1   1.864432 S    
C53   C57   1.405756 A    
N15   Ni8   1.841145 S    
C28   C44   1.368548 A    
C16   H12   1.078439 S    
N19   Ni3   1.856526 S    
N25   Ni2   1.869805 S    
N33   O10   1.301307 A    
C41   C66   1.435853 S    
N18   Ni2   1.851066 S    
C25   N17   1.321093 A    
C40   C44   1.396044 A    
N7    Ni7   1.855787 S    
O26   H65   1.013799 S    
N30   Ni5   1.864569 S    
C11   C23   1.388571 A    
C97   O2    1.395277 S    
C27   N19   1.322523 A    
H45   C93   1.084165 S    
O24   H64   1.013653 S    
C28   N20   1.317555 A    
C9    C101  1.475958 S    
C7    C23   1.363535 A    
C4    N4    1.336611 A    
C15   N15   1.340310 A    
C104  O23   1.222301 D    
C82   C86   1.345845 D    
C91   C95   1.335443 D    
C19   C84   1.471188 S    
C38   C106  1.479357 S    
C4    H4    1.071474 S    
C12   C104  1.471446 S    
C60   H28   1.081892 S    
C20   C83   1.473126 S    
C73   H33   1.111940 S    
H52   C88   1.085065 S    
C7    N7    1.319401 A    
C24   C55   1.455297 S    
C33   N25   1.334612 A    
O4    H58   1.012490 S    
C8    N8    1.319864 A    
C84   N36   1.437343 S    
C105  O25   1.222914 D    
C59   C61   1.402047 A    
N2    N13   1.412400 A    
N23   Ni7   1.855119 S    
C13   C18   1.386971 A    
C99   O6    1.395118 S    
H51   C87   1.084529 S    
C2    H2    1.073660 S    
C67   C71   1.403928 A    
C57   C63   1.398045 A    
C15   C20   1.389820 A    
C12   N12   1.346626 A    
C35   N27   1.331207 A    
N16   Ni7   1.835887 S    
C11   C103  1.476133 S    
C38   N30   1.343152 A    
C100  O8    1.396647 S    
C9    N9    1.335482 A    
C78   H42   1.112790 S    
C81   N33   1.438421 S    
C108  O32   1.397695 S    
C83   N35   1.437740 S    
C26   C42   1.374984 A    
C5    N5    1.323073 A    
O8    H60   1.013958 S    
C70   C76   1.503671 S    
C75   C99   1.506512 S    
C1    N1    1.338990 A    
C51   C69   1.366821 A    
C38   C42   1.403993 A    
C72   C74   1.503083 S    
C66   C70   1.393221 A    
H46   C94   1.084466 S    
H53   C89   1.087363 S    
C42   C65   1.447437 S    
C83   C87   1.347713 D    
C26   N18   1.320570 A    
C45   C89   1.462715 S    
C40   C108  1.466493 S    
N5    N9    1.362996 A    
C13   H9    1.073930 S    
C61   C65   1.403696 A    
H56   C92   1.087350 S    
C27   C43   1.370291 A    
C32   H20   1.076226 S    
N8    Ni8   1.850286 S    
C50   C72   1.364113 A    
C90   C94   1.336041 D    
C15   H11   1.079521 S    
N35   O13   1.300654 A    
N8    N12   1.362994 A    
C57   H25   1.082366 S    
C101  O17   1.222012 D    
C37   C105  1.474311 S    
C86   C96   1.462100 S    
C34   H22   1.079998 S    
C84   C88   1.346177 D    
C23   C56   1.436641 S    
O20   H62   1.013715 S    
C74   H34   1.111940 S    
C81   C85   1.346180 D    
C64   H32   1.083337 S    
C3    N3    1.336286 A    
N33   O9    1.300655 A    
C108  O31   1.221772 D    
C18   C81   1.469195 S    
C60   C62   1.401994 A    
N3    N16   1.412276 A    
C58   C64   1.388739 A    
C14   C17   1.386271 A    
C80   H44   1.112908 S    
N11   Ni4   1.842479 S    
C30   C46   1.377370 A    
C89   C93   1.337793 D    
C104  O24   1.397253 S    
N24   N27   1.384214 A    
C29   C45   1.380073 A    
C50   C54   1.386906 A    
C76   C100  1.511212 S    
C49   C53   1.394638 A    
C79   H43   1.113191 S    
C35   C48   1.379416 A    
C31   C47   1.378379 A    
N34   O12   1.301414 A    
C61   H29   1.082299 S    
C51   C55   1.397285 A    
N18   N30   1.362996 A    
C11   N11   1.346780 A    
C103  O22   1.397245 S    
C5    C21   1.361162 A    
C16   N16   1.339828 A    
C31   N23   1.345011 A    
C50   C78   1.495862 S    
C37   C41   1.396726 A    
C2    N2    1.334398 A    
N14   Ni5   1.835886 S    
C59   H27   1.075880 S    
C52   C80   1.499473 S    
C75   H35   1.112179 S    
N31   Ni8   1.870151 S    
C4    C20   1.394049 A    
N27   Ni4   1.869804 S    
C26   H14   1.076895 S    
C30   H18   1.076204 S    
C8    C24   1.368321 A    
C71   C73   1.508237 S    
C74   C78   1.514664 S    
C65   C69   1.397801 A    
C46   C90   1.461633 S    
N1    Ni1   1.855798 S    
N21   Ni5   1.855119 S    
N6    N10   1.362994 A    
C49   C77   1.492998 S    
C14   H10   1.078311 S    
C49   C71   1.370845 A    
C73   C97   1.510188 S    
N17   Ni1   1.856526 S    
C68   C72   1.390664 A    
N20   N32   1.362996 A    
H48   C96   1.083747 S    
N29   Ni6   1.870152 S    
C52   C70   1.359357 A    
C44   C67   1.458449 S    
O30   H67   1.013769 S    
C10   N10   1.339560 A    
C55   C59   1.407240 A    
C64   C68   1.397732 A    
H47   C95   1.084678 S    
C78   H38   1.111077 S    
C3    H3    1.073273 S    
C87   C93   1.458367 S    
N6    Ni6   1.850284 S    
N12   Ni3   1.837102 S    
C5    H5    1.080767 S    
N36   O16   1.301196 A    
C92   C96   1.337987 D    
C13   N13   1.342395 A    
C6    N6    1.317965 A    
C74   C98   1.504366 S    
C98   O4    1.397219 S    
N5    Ni5   1.855787 S    
C36   N28   1.332693 A    
C88   C94   1.457908 S    
C17   C82   1.473470 S    
C82   N34   1.437808 S    
C35   H23   1.079069 S    
C32   N24   1.347204 A    
C1    C17   1.393592 A    
N36   O15   1.300470 A    
C6    C22   1.371330 A    
C29   H17   1.075730 S    
C47   C91   1.459319 S    
C36   C47   1.378948 A    
C3    C19   1.394523 A    
C102  O20   1.398409 S    
C25   H13   1.078428 S    
C34   C45   1.377175 A    
C31   H19   1.075780 S    
N22   Ni6   1.849785 S    
C37   N29   1.342779 A    
C98   O3    1.223144 D    
C33   H21   1.079970 S    
C9    C21   1.376967 A    
N21   N26   1.384345 A    
N4    Ni4   1.850512 S    
N28   Ni3   1.864432 S    
C63   C67   1.406838 A    
C69   C75   1.503883 S    
C39   N31   1.334056 A    
O2    H57   1.013206 S    
C21   C54   1.411105 S    
C52   C56   1.390789 A    
N23   N28   1.384345 A    
N20   Ni4   1.851065 S    
C77   H41   1.112355 S    
N34   O11   1.301630 A    
C101  O18   1.397843 S    
C97   O1    1.224162 D    
N32   Ni7   1.864569 S    
C51   C79   1.501068 S    
O22   H63   1.013671 S    
C73   C77   1.513498 S    
C76   H36   1.112318 S    
C106  O28   1.395192 S    
C107  O29   1.222834 D    
C77   H37   1.112361 S    
C33   C46   1.378034 A    
C32   C48   1.381964 A    
H55   C91   1.087513 S    
C56   C60   1.406266 A    
N7    N11   1.362996 A    
C39   C43   1.390158 A    
C62   C66   1.404119 A    
