data_mof_unit_2895.cif
_audit_creation_date              2012-10-26T21:01:33-0400
_audit_creation_method            fapswitch 2.2
_symmetry_space_group_name_H-M    P1
_symmetry_Int_Tables_number       1
_space_group_crystal_system       triclinic
_cell_length_a                    15.878519
_cell_length_b                    12.91349
_cell_length_c                    11.887711
_cell_angle_alpha                 99.476723
_cell_angle_beta                  93.26657
_cell_angle_gamma                 94.600357
_cell_volume                      2390.41432324

loop_
_atom_site_label
_atom_site_type_symbol
_atom_type_description
_atom_site_fract_x
_atom_site_fract_y
_atom_site_fract_z
_atom_type_partial_charge
C1    C     C_R   0.494966 0.299799 0.479131 0.534128
C2    C     C_R   0.458631 0.972608 0.489406 0.040245
C3    C     C_R   0.411094 0.409284 0.025984 -0.135250
C4    C     C_R   0.588899 0.590723 0.974018 -0.135236
C5    C     C_R   0.419908 0.415693 0.145244 0.149270
C6    C     C_R   0.580084 0.584320 0.854758 0.149277
C7    C     C_R   0.539694 0.541538 0.154800 0.147187
C8    C     C_R   0.460307 0.458460 0.845200 0.147193
C9    C     C_R   0.532503 0.533293 0.032591 -0.012050
C10   C     C_R   0.467496 0.466707 0.967409 -0.012036
C11   C     C_R   0.340362 0.500336 0.500432 0.527627
C12   C     C_R   0.505034 0.700201 0.520868 0.534124
C13   C     C_R   0.659638 0.499664 0.499568 0.527620
C14   C     C_3   0.967268 0.407428 0.522781 0.013208
C15   C     C_3   0.032732 0.592571 0.477220 0.013211
C16   C     C_3   0.019711 0.421652 0.419957 0.004409
C17   C     C_3   0.980289 0.578347 0.580044 0.004408
C18   C     C_1   0.250974 0.500525 0.501217 0.022706
C19   C     C_1   0.749026 0.499474 0.498783 0.022687
C20   C     C_3   0.031815 0.486264 0.602627 -0.056711
C21   C     C_3   0.968184 0.513735 0.397373 -0.056706
C22   C     C_3   0.083940 0.500489 0.499806 0.054703
C23   C     C_R   0.391447 0.023064 0.443318 0.006150
C24   C     C_3   0.916060 0.499510 0.500195 0.054704
C25   C     C_1   0.175590 0.500595 0.500966 0.057955
C26   C     C_1   0.824410 0.499404 0.499035 0.057945
C27   C     C_R   0.517260 0.814133 0.530572 0.030180
C28   C     C_R   0.482739 0.185867 0.469428 0.030173
C29   C     C_2   0.039070 0.333284 0.329315 0.225761
C30   C     C_2   0.960930 0.666714 0.670685 0.225751
C31   C     C_2   0.933336 0.302936 0.548844 0.217418
C32   C     C_2   0.066663 0.697062 0.451157 0.217421
C33   C     C_3   0.931630 0.529333 0.280837 -0.400580
C34   C     C_R   0.608552 0.976936 0.556682 0.006150
C35   C     C_3   0.068370 0.470665 0.719164 -0.400581
C36   C     C_3   0.360735 0.821052 0.541431 -0.370387
C37   C     C_3   0.639264 0.178947 0.458566 -0.370386
C38   C     C_3   0.677259 0.808443 0.564294 -0.384557
C39   C     C_3   0.322740 0.191558 0.435707 -0.384560
C40   C     C_3   0.314785 0.961765 0.374076 -0.379755
C41   C     C_3   0.685213 0.038235 0.625924 -0.379754
C42   C     C_3   0.391749 0.379379 0.779621 -0.329450
C43   C     C_3   0.608252 0.620618 0.220379 -0.329451
C44   C     C_2   0.643465 0.649570 0.803214 0.269769
C45   C     C_R   0.400707 0.133114 0.450329 -0.026599
C46   C     C_2   0.356513 0.350472 0.196793 0.269784
C47   C     C_R   0.599291 0.866886 0.549671 -0.026591
C48   C     C_R   0.553719 0.130491 0.484592 -0.036512
C49   C     C_R   0.446280 0.869508 0.515407 -0.036511
C50   C     C_R   0.541368 0.027391 0.510593 0.040246
Cu1   Cu    Cu3+1 0.506200 0.507730 0.615930 0.920642
Cu2   Cu    Cu3+1 0.493800 0.492270 0.384070 0.920662
H1    H     H_    0.359226 0.357591 0.979676 0.150430
H2    H     H_    0.016363 0.462539 0.776500 0.167244
H3    H     H_    0.102500 0.398362 0.709589 0.131811
H4    H     H_    0.113159 0.539642 0.756999 0.137329
H5    H     H_    0.367787 0.784496 0.619355 0.146632
H6    H     H_    0.315242 0.880923 0.561823 0.150956
H7    H     H_    0.334392 0.758721 0.469505 0.174272
H8    H     H_    0.632212 0.215503 0.380643 0.146630
H9    H     H_    0.665608 0.241278 0.530493 0.174271
H10   H     H_    0.684757 0.119075 0.438176 0.150958
H11   H     H_    0.726681 0.834699 0.510085 0.138780
H12   H     H_    0.640765 0.642419 0.020329 0.150477
H13   H     H_    0.702751 0.824446 0.654895 0.166986
H14   H     H_    0.664918 0.722146 0.537483 0.122576
H15   H     H_    0.273321 0.165307 0.489921 0.138780
H16   H     H_    0.335082 0.277855 0.462511 0.122591
H17   H     H_    0.297245 0.175550 0.345107 0.166947
H18   H     H_    0.302864 0.993518 0.293937 0.144547
H19   H     H_    0.325196 0.878105 0.345087 0.156407
H20   H     H_    0.257575 0.967890 0.423375 0.148568
H21   H     H_    0.697135 0.006482 0.706063 0.144565
H22   H     H_    0.742424 0.032112 0.576625 0.148568
H23   H     H_    0.987506 0.283757 0.278579 0.111358
H24   H     H_    0.674802 0.121896 0.654913 0.156403
H25   H     H_    0.391339 0.367065 0.687145 0.195457
H26   H     H_    0.399356 0.300212 0.801739 0.097881
H27   H     H_    0.328477 0.403883 0.801930 0.103864
H28   H     H_    0.608662 0.632932 0.312855 0.195457
H29   H     H_    0.671524 0.596116 0.198069 0.103858
H30   H     H_    0.600643 0.699787 0.198264 0.097893
H31   H     H_    0.631174 0.671290 0.721334 0.159127
H32   H     H_    0.368828 0.328678 0.278633 0.159059
H33   H     H_    0.012494 0.716242 0.721422 0.111363
H34   H     H_    0.976767 0.245012 0.563254 0.108746
H35   H     H_    0.023232 0.754987 0.436746 0.108746
H36   H     H_    0.983637 0.537460 0.223501 0.167249
H37   H     H_    0.886841 0.460356 0.243002 0.137326
H38   H     H_    0.897500 0.601636 0.290412 0.131811
N1    N     N_R   0.515540 0.519350 0.790140 -0.245170
N2    N     N_R   0.484460 0.480650 0.209860 -0.245160
O1    O     O_R   0.504400 0.354460 0.582000 -0.506099
O2    O     O_2   0.887831 0.683453 0.687854 -0.475293
O3    O     O_2   0.857449 0.282458 0.553976 -0.525115
O4    O     O_2   0.142551 0.717541 0.446025 -0.525112
O5    O     O_2   0.712198 0.681526 0.853676 -0.504585
O6    O     O_2   0.287740 0.318633 0.146386 -0.504493
O7    O     O_R   0.495600 0.645540 0.418000 -0.506100
O8    O     O_R   0.493920 0.341410 0.386200 -0.528021
O9    O     O_R   0.506080 0.658590 0.613800 -0.528023
O10   O     O_R   0.384320 0.506520 0.597880 -0.520169
O11   O     O_R   0.615680 0.493480 0.402120 -0.520164
O12   O     O_R   0.373840 0.493460 0.402080 -0.498082
O13   O     O_R   0.626160 0.506540 0.597920 -0.498134
O14   O     O_2   0.112169 0.316545 0.312147 -0.475258

loop_
_geom_bond_atom_site_label_1
_geom_bond_atom_site_label_2
_ccdc_geom_bond_type
Cu2   O11   S    
C16   C21   S    
C23   C45   A    
C40   H19   S    
C39   H16   S    
C14   C31   S    
C36   H7    S    
C37   H10   S    
C15   C32   S    
C11   C18   S    
Cu1   O10   S    
C34   C41   S    
C40   H18   S    
C33   H36   S    
C24   C26   S    
C36   H6    S    
C21   C33   S    
C6    N1    A    
C17   C20   S    
C7    C9    A    
C14   C24   S    
C19   C26   T    
C12   O7    A    
C2    C50   A    
Cu1   N1    S    
C41   H22   S    
C20   C35   S    
C15   C22   S    
C28   C48   A    
C38   H14   S    
C22   C25   S    
C1    C28   S    
C11   O12   A    
C7    C43   S    
C13   O11   A    
C9    C10   A    
C39   C45   S    
C44   H31   S    
C48   C50   A    
C46   O6    D    
C42   H27   S    
C31   H34   S    
C6    C44   S    
C35   H2    S    
C17   C30   S    
C18   C25   T    
C1    O8    A    
C28   C45   A    
C34   C50   A    
C17   C24   S    
C13   C19   S    
C12   C27   S    
C35   H3    S    
Cu1   Cu2   S    
C37   H8    S    
C14   C20   S    
C13   O13   A    
C36   H5    S    
C43   H28   S    
C32   H35   S    
Cu2   O8    S    
C1    O1    A    
C30   H33   S    
C2    C49   A    
C33   H37   S    
C44   O5    D    
C38   H13   S    
Cu1   O13   S    
C39   H17   S    
C8    N1    A    
C37   C48   S    
C38   C47   S    
Cu1   O1    S    
C46   H32   S    
C4    C6    A    
C32   O4    D    
C20   C22   S    
C42   H26   S    
C43   H29   S    
C14   C16   S    
C29   O14   D    
Cu2   N2    S    
C38   H11   S    
C27   C47   A    
C15   C17   S    
Cu2   O12   S    
C16   C22   S    
C40   H20   S    
C35   H4    S    
C39   H15   S    
C8    C42   S    
C3    C5    A    
C37   H9    S    
C29   H23   S    
Cu1   O9    S    
C5    C46   S    
C4    H12   S    
Cu2   O7    S    
C16   C29   S    
C12   O9    A    
C30   O2    D    
C3    C10   A    
C33   H38   S    
C41   H24   S    
C3    H1    S    
C31   O3    D    
C7    N2    A    
C11   O10   A    
C5    N2    A    
C41   H21   S    
C27   C49   A    
C15   C21   S    
C42   H25   S    
C8    C10   A    
C21   C24   S    
C2    C23   A    
C43   H30   S    
C34   C47   A    
C4    C9    A    
C36   C49   S    
C23   C40   S    
