data_mof_unit_1198.cif
_audit_creation_date              2012-10-26T21:05:20-0400
_audit_creation_method            fapswitch 2.2
_symmetry_space_group_name_H-M    P1
_symmetry_Int_Tables_number       1
_space_group_crystal_system       triclinic
_cell_length_a                    9.681474
_cell_length_b                    10.873744
_cell_length_c                    13.825186
_cell_angle_alpha                 94.669594
_cell_angle_beta                  82.790708
_cell_angle_gamma                 88.032055
_cell_volume                      1437.67010226

loop_
_atom_site_label
_atom_site_type_symbol
_atom_type_description
_atom_site_fract_x
_atom_site_fract_y
_atom_site_fract_z
_atom_type_partial_charge
C1    C     C_R   0.496968 0.738114 0.498386 0.544375
C2    C     C_R   0.612758 0.931727 0.459948 0.097271
C3    C     C_R   0.618327 0.059276 0.472576 -0.161707
C4    C     C_R   0.475347 0.500802 0.683082 0.532941
C5    C     C_R   0.503423 0.131970 0.517494 -0.036339
C6    C     C_R   0.891448 0.308978 0.382289 0.185237
C7    C     C_R   0.974500 0.198899 0.364187 -0.136091
C8    C     C_R   0.117142 0.205648 0.357976 -0.187704
C9    C     C_R   0.173309 0.316571 0.384868 -0.077644
C10   C     C_R   0.089484 0.411871 0.440917 0.109123
C11   C     C_R   0.940819 0.409812 0.440910 0.108993
C12   C     C_1   0.458369 0.500917 0.787190 -0.040251
C13   C     C_R   0.909154 0.578230 0.563106 0.263303
C14   C     C_R   0.057370 0.574510 0.566619 0.105562
C15   C     C_R   0.501188 0.264037 0.506385 0.535537
C16   C     C_R   0.524450 0.501194 0.317060 0.544949
C17   C     C_1   0.540996 0.504548 0.213195 -0.045267
C18   C     C_2   0.557575 0.508612 0.021639 -0.125648
C19   C     C_2   0.441388 0.500891 0.979057 -0.123788
C20   C     C_1   0.448565 0.500987 0.874733 -0.065589
C21   C     C_1   0.550575 0.506790 0.125831 -0.069172
C22   C     C_3   0.753669 0.235113 0.249213 -0.310087
C23   C     C_R   0.233713 0.905099 0.559082 -0.122878
C24   C     C_3   0.109482 0.642056 0.654409 -0.237878
C25   C     C_3   0.092930 0.566690 0.743845 -0.415585
C26   C     C_3   0.710853 0.823350 0.306091 -0.280105
C27   C     C_3   0.807488 0.784315 0.630661 -0.277498
C28   C     C_R   0.126122 0.979309 0.613447 -0.133739
C29   C     C_R   0.149917 0.098349 0.648876 -0.114872
C30   C     C_R   0.277937 0.147479 0.622354 -0.080784
C31   C     C_R   0.384252 0.076945 0.560126 0.019991
C32   C     C_R   0.369534 0.949233 0.538657 -0.006517
C33   C     C_R   0.489974 0.874024 0.495893 0.002316
Cu1   Cu    Cu3+1 0.359340 0.500010 0.500010 0.891728
Cu2   Cu    Cu3+1 0.640660 0.499990 0.499990 0.986343
H1    H     H_    0.340599 0.493707 0.022212 0.130417
H2    H     H_    0.711813 0.102033 0.443397 0.130625
H3    H     H_    0.844594 0.404227 0.267912 0.245485
H4    H     H_    0.680029 0.273922 0.203181 0.138120
H5    H     H_    0.696109 0.170712 0.295599 0.142906
H6    H     H_    0.840056 0.185030 0.199371 0.121507
H7    H     H_    0.126167 0.468249 0.723413 0.172833
H8    H     H_    0.983391 0.570499 0.778749 0.116350
H9    H     H_    0.157246 0.605454 0.799053 0.138485
H10   H     H_    0.217719 0.667355 0.638260 0.202885
H11   H     H_    0.054537 0.732529 0.674589 0.107643
H12   H     H_    0.935128 0.114836 0.332782 0.107251
H13   H     H_    0.823590 0.902896 0.410289 0.231590
H14   H     H_    0.801987 0.763481 0.271739 0.140017
H15   H     H_    0.702358 0.905016 0.263422 0.116305
H16   H     H_    0.615807 0.769432 0.303708 0.158786
H17   H     H_    0.802799 0.622020 0.704220 0.237614
H18   H     H_    0.696970 0.816108 0.634013 0.172752
H19   H     H_    0.867279 0.811904 0.562584 0.149415
H20   H     H_    0.845573 0.831152 0.695888 0.092129
H21   H     H_    0.184377 0.127513 0.325578 0.121364
H22   H     H_    0.282593 0.321136 0.363912 0.186921
H23   H     H_    0.658405 0.515551 0.978468 0.126684
H24   H     H_    0.203536 0.817921 0.528564 0.145288
H25   H     H_    0.023574 0.944862 0.628266 0.095398
H26   H     H_    0.067529 0.154232 0.693796 0.106388
H27   H     H_    0.292750 0.241164 0.650658 0.136029
N1    N     N_R   0.852210 0.498790 0.499090 -0.226618
N2    N     N_R   0.148080 0.498710 0.499060 -0.254752
N3    N     N_2   0.806575 0.334528 0.308842 -0.453740
N4    N     N_2   0.729321 0.862611 0.405995 -0.493536
N5    N     N_2   0.816297 0.651814 0.635041 -0.461129
O1    O     O_R   0.381190 0.680360 0.500010 -0.541125
O2    O     O_R   0.618760 0.680340 0.500000 -0.437417
O3    O     O_R   0.364420 0.499990 0.637850 -0.521620
O4    O     O_R   0.601990 0.499960 0.637840 -0.477092
O5    O     O_R   0.381240 0.319660 0.500000 -0.522114
O6    O     O_R   0.618810 0.319640 0.499990 -0.482260
O7    O     O_R   0.398010 0.500040 0.362160 -0.512980
O8    O     O_R   0.635580 0.500010 0.362150 -0.465331

loop_
_geom_bond_atom_site_label_1
_geom_bond_atom_site_label_2
_ccdc_geom_bond_type
C25   H7    S    
C27   H18   S    
C22   N3    S    
C2    N4    S    
C6    C7    A    
C13   C14   A    
C4    C12   S    
C16   O8    A    
C7    H12   S    
C9    C10   A    
Cu1   O3    S    
C27   H20   S    
C9    H22   S    
C19   C20   S    
C13   N1    A    
H3    N3    S    
C3    C5    A    
C10   N2    A    
C22   H5    S    
C23   C32   A    
C25   H8    S    
Cu1   N2    S    
C2    C3    A    
C27   H19   S    
C24   H11   S    
C7    C8    A    
Cu1   O1    S    
C23   C28   A    
C4    O4    A    
C23   H24   S    
C15   O5    A    
C12   C20   T    
C29   C30   A    
H17   N5    S    
C26   N4    S    
C14   N2    A    
Cu1   O7    S    
Cu2   O8    S    
C16   O7    A    
C24   H10   S    
C25   H9    S    
C4    O3    A    
C28   C29   A    
C15   O6    A    
Cu1   Cu2   S    
C11   N1    A    
C19   H1    S    
C26   H15   S    
C30   H27   S    
C30   C31   A    
C31   C32   A    
C29   H26   S    
C5    C15   S    
C22   H6    S    
C27   N5    S    
C10   C11   A    
C22   H4    S    
Cu2   O4    S    
C18   C21   S    
C16   C17   S    
Cu1   O5    S    
Cu2   O2    S    
C1    O1    A    
C28   H25   S    
C24   C25   S    
C3    H2    S    
C18   C19   D    
C13   N5    S    
C26   H14   S    
C14   C24   S    
C6    C11   A    
C8    H21   S    
Cu2   O6    S    
Cu2   N1    S    
H13   N4    S    
C26   H16   S    
C18   H23   S    
C6    N3    S    
C1    O2    A    
C1    C33   S    
C32   C33   A    
C2    C33   A    
C8    C9    A    
C5    C31   A    
C17   C21   T    
