data_mof_unit_3452.cif
_audit_creation_date              2012-12-11T17:14:06-0500
_audit_creation_method            fapswitch 2.2
_symmetry_space_group_name_H-M    P1
_symmetry_Int_Tables_number       1
_space_group_crystal_system       triclinic
_cell_length_a                    18.187283
_cell_length_b                    7.106121
_cell_length_c                    13.054028
_cell_angle_alpha                 90.001981
_cell_angle_beta                  72.624177
_cell_angle_gamma                 89.998351
_cell_volume                      1610.12693923

loop_
_atom_site_label
_atom_site_type_symbol
_atom_type_description
_atom_site_fract_x
_atom_site_fract_y
_atom_site_fract_z
_atom_type_partial_charge
O1    O     O_R   0.453880 0.506200 0.150010 -0.540656
O2    O     O_R   0.546120 0.006200 0.849990 -0.540690
O3    O     O_R   0.604080 0.177770 0.007280 -0.532259
O4    O     O_R   0.395920 0.677770 0.992720 -0.532283
C1    C     C_R   0.635749 0.344624 0.002628 0.723378
C2    C     C_R   0.364252 0.844630 0.997365 0.723466
O5    O     O_R   0.458010 0.176640 0.159130 -0.549794
O6    O     O_R   0.541990 0.676640 0.840870 -0.549806
O7    O     O_R   0.399010 0.004010 0.002930 -0.534430
O8    O     O_R   0.600990 0.504010 0.997070 -0.534470
C3    C     C_R   0.442794 0.344868 0.201155 0.752333
C4    C     C_R   0.557207 0.844861 0.798846 0.752287
O9    O     O_3   0.480810 0.338440 0.948570 -0.377301
O10   O     O_3   0.519190 0.838440 0.051430 -0.377285
V1    V     V_3+5 0.503560 0.064490 0.009540 1.457537
V2    V     V_3+5 0.496440 0.564490 0.990460 1.457480
C5    C     C_R   0.578040 0.794866 0.507105 -0.155392
C6    C     C_R   0.421980 0.294917 0.492895 -0.155386
H1    H     H_    0.484761 0.773879 0.652363 0.133264
H2    H     H_    0.515260 0.274000 0.347631 0.133255
H3    H     H_    0.648867 0.802660 0.301710 0.143701
H4    H     H_    0.351149 0.302662 0.698297 0.143697
H5    H     H_    0.540949 0.766109 0.457554 0.132913
H6    H     H_    0.459077 0.266206 0.542442 0.132903
C7    C     C_R   0.591261 0.849492 0.682664 -0.110129
C8    C     C_R   0.408744 0.349510 0.317340 -0.110091
C9    C     C_R   0.949116 0.858992 0.380967 -0.117391
C10   C     C_R   0.050898 0.358976 0.619027 -0.117345
C11   C     C_R   0.919059 0.844342 0.491237 0.230602
C12   C     C_R   0.080959 0.344217 0.508759 0.230528
C13   C     C_R   0.840008 0.833723 0.538094 -0.185226
C14   C     C_R   0.160010 0.333477 0.461915 -0.185176
C15   C     C_R   0.788045 0.848737 0.476545 0.033409
C16   C     C_R   0.211966 0.348584 0.523465 0.033376
C17   C     C_R   0.818744 0.852476 0.361719 0.027581
C18   C     C_R   0.181266 0.352386 0.638289 0.027550
C19   C     C_R   0.706345 0.851108 0.526086 -0.016376
C20   C     C_R   0.293663 0.351020 0.473924 -0.016364
C21   C     C_R   0.657539 0.820271 0.461073 0.058508
C22   C     C_R   0.342475 0.320247 0.538933 0.058538
C23   C     C_R   0.687638 0.818374 0.350204 -0.187308
C24   C     C_R   0.312375 0.318341 0.649802 -0.187315
C25   C     C_R   0.765858 0.844151 0.299786 0.087397
C26   C     C_R   0.234152 0.344090 0.700222 0.087413
C27   C     C_R   0.670301 0.885985 0.637663 0.322622
C28   C     C_R   0.329698 0.385935 0.362350 0.322533
C29   C     C_R   0.545735 0.801834 0.617574 -0.251876
C30   C     C_R   0.454281 0.301904 0.382425 -0.251878
C31   C     C_R   0.900636 0.860700 0.315646 -0.094233
C32   C     C_R   0.099374 0.360662 0.684356 -0.094265
H7    H     H_    0.011088 0.865698 0.345679 0.138629
H8    H     H_    0.988926 0.365758 0.654307 0.138562
H9    H     H_    0.821272 0.806367 0.622879 0.193473
H10   H     H_    0.178759 0.305983 0.377141 0.193430
C33   C     C_1   0.216624 0.859424 0.998690 -0.125792
C34   C     C_1   0.783380 0.359421 0.001294 -0.125688
C35   C     C_1   0.284035 0.853207 0.997214 -0.145254
C36   C     C_1   0.715969 0.353193 0.002770 -0.145286
O11   O     O_R   0.899030 0.205490 0.002790 -0.527082
O12   O     O_R   0.100970 0.705490 0.997210 -0.527078
O13   O     O_R   0.042000 0.536370 0.840840 -0.531380
O14   O     O_R   0.958000 0.036370 0.159160 -0.531381
C37   C     C_R   0.060793 0.368703 0.799472 0.740448
C38   C     C_R   0.939211 0.868712 0.200529 0.740433
O15   O     O_R   0.895930 0.535070 0.992690 -0.528402
O16   O     O_R   0.104070 0.035070 0.007310 -0.528408
O17   O     O_R   0.953870 0.707520 0.150040 -0.531248
O18   O     O_R   0.046130 0.207520 0.849960 -0.531248
C39   C     C_R   0.864092 0.366915 0.999144 0.744625
C40   C     C_R   0.135909 0.866913 0.000848 0.744557
O19   O     O_3   0.019200 0.374340 0.051340 -0.361704
O20   O     O_3   0.980800 0.874340 0.948660 -0.361697
V3    V     V_3+5 0.996440 0.648350 0.990470 1.544370
V4    V     V_3+5 0.003560 0.148350 0.009530 1.544368
O21   O     O_3   0.710365 0.956054 0.704248 -0.586596
C41   C     C_3   0.722873 0.151161 0.685428 0.073550
H11   H     H_    0.669843 0.229258 0.729713 0.135150
H12   H     H_    0.738070 0.188908 0.598554 0.128338
C42   C     C_3   0.789599 0.212281 0.726355 -0.300665
H13   H     H_    0.777248 0.170572 0.811641 0.208552
H14   H     H_    0.843274 0.139717 0.679861 0.224784
C43   C     C_3   0.802663 0.424136 0.715149 -0.807394
H15   H     H_    0.819130 0.463777 0.629058 0.253474
H16   H     H_    0.849984 0.464970 0.748136 0.234831
H17   H     H_    0.749662 0.501420 0.759656 0.235837
O22   O     O_3   0.289617 0.455915 0.295766 -0.586617
C44   C     C_3   0.276984 0.650965 0.314672 0.073400
H18   H     H_    0.330012 0.729226 0.270591 0.135011
H19   H     H_    0.261617 0.688570 0.401571 0.128581
C45   C     C_3   0.210368 0.711955 0.273499 -0.300547
H20   H     H_    0.222963 0.670617 0.188128 0.208465
H21   H     H_    0.156716 0.638958 0.319651 0.224784
C46   C     C_3   0.197062 0.923688 0.284987 -0.807216
H22   H     H_    0.179958 0.962808 0.371239 0.253743
H23   H     H_    0.150067 0.964505 0.251291 0.234614
H24   H     H_    0.250170 0.001436 0.241233 0.235805
I1    I     I_    0.993327 0.839896 0.588530 -0.466548
I2    I     I_    0.006696 0.339824 0.411459 -0.466398
I3    I     I_    0.787937 0.867570 0.130742 -0.394861
I4    I     I_    0.212067 0.367530 0.869266 -0.394867

loop_
_geom_bond_atom_site_label_1
_geom_bond_atom_site_label_2
_ccdc_geom_bond_type
C12   C14   A    
C44   H18   S    
C46   H22   S    
C9    C11   A    
C10   H8    S    
O1    C3    A    
C41   C42   S    
O2    C4    A    
C2    O7    A    
O3    V1    S    
C21   C23   A    
H4    C24   S    
O5    C3    A    
C5    H5    S    
C1    C36   S    
C6    H6    S    
C41   H12   S    
H1    C29   S    
O18   V4    S    
O16   V4    S    
O12   V3    S    
O15   V3    S    
C5    C21   A    
O13   C37   A    
C6    C22   A    
O14   C38   A    
C10   C32   A    
C17   C31   A    
C13   C15   A    
O17   V3    S    
C17   C25   A    
C7    C29   A    
C8    C30   A    
O6    V2    S    
C22   C24   A    
C46   H23   S    
C31   C38   S    
C32   C37   S    
C23   C25   A    
C2    C35   S    
C24   C26   A    
C14   H10   S    
C9    H7    S    
C38   O17   A    
C41   H11   S    
O20   V4    S    
C42   H14   S    
O22   C44   S    
C3    C8    S    
O13   V3    S    
C15   C19   A    
C14   C16   A    
O4    V2    S    
O21   C41   S    
O19   V4    S    
C45   H21   S    
O12   C40   A    
O6    C4    A    
O1    V2    S    
C13   H9    S    
O2    V1    S    
O11   V4    S    
H2    C30   S    
O11   C39   A    
H3    C23   S    
O4    C2    A    
C34   C39   S    
C46   H24   S    
C43   H16   S    
C33   C35   T    
C18   C26   A    
C19   C27   A    
C7    C27   A    
C18   C32   A    
C45   C46   S    
O19   V3    S    
C37   O18   A    
C16   C20   A    
C5    C29   A    
C25   I3    S    
O20   V3    S    
O3    C1    A    
C6    C30   A    
C42   C43   S    
O9    V2    S    
C43   H17   S    
C12   I2    S    
C11   I1    S    
C4    C7    S    
C27   O21   S    
C10   C12   A    
O7    V1    S    
C1    O8    A    
C19   C21   A    
O8    V2    S    
C20   C22   A    
C26   I4    S    
C45   H20   S    
O16   C40   A    
O15   C39   A    
O5    V1    S    
C15   C17   A    
C34   C36   T    
C16   C18   A    
C20   C28   A    
C33   C40   S    
C8    C28   A    
C42   H13   S    
C11   C13   A    
C43   H15   S    
C44   C45   S    
C44   H19   S    
O10   V1    S    
O14   V4    S    
C9    C31   A    
C28   O22   S    
