data_mof_unit_2194.cif
_audit_creation_date              2012-12-11T21:09:37-0500
_audit_creation_method            fapswitch 2.2
_symmetry_space_group_name_H-M    P1
_symmetry_Int_Tables_number       1
_space_group_crystal_system       triclinic
_cell_length_a                    8.2803
_cell_length_b                    19.017066
_cell_length_c                    26.898085
_cell_angle_alpha                 98.75235
_cell_angle_beta                  93.144436
_cell_angle_gamma                 87.863764
_cell_volume                      4178.14009975

loop_
_atom_site_label
_atom_site_type_symbol
_atom_type_description
_atom_site_fract_x
_atom_site_fract_y
_atom_site_fract_z
_atom_type_partial_charge
Ba1   Ba    Ba6+2 0.160260 0.465850 0.521400 1.705377
Ba2   Ba    Ba6+2 0.649930 0.534160 0.478640 1.711799
C1    C     C_3   0.412918 0.255377 0.700701 -0.274118
C2    C     C_3   0.467730 0.275052 0.651682 0.346442
C3    C     C_3   0.464854 0.317211 0.395612 0.288882
C4    C     C_3   0.466003 0.237122 0.379086 -0.353061
C5    C     C_3   0.851022 0.730455 0.370380 0.313609
C6    C     C_3   0.806482 0.802455 0.354314 -0.309776
C7    C     C_3   0.391489 0.700286 0.348709 0.346461
C8    C     C_3   0.410812 0.731790 0.300752 0.029612
C9    C     C_R   0.949235 0.800993 0.520539 -0.150592
C10   C     C_R   0.985438 0.726733 0.514965 0.046508
C11   C     C_R   0.118818 0.808906 0.451788 -0.172523
C12   C     C_3   0.935590 0.274570 0.656676 0.529500
C13   C     C_R   0.188693 0.742813 0.458448 -0.003747
C14   C     C_R   0.683851 0.186218 0.542141 -0.117694
C15   C     C_R   0.617741 0.254652 0.539693 -0.039614
C16   C     C_R   0.845916 0.198743 0.472362 -0.145032
C17   C     C_R   0.817155 0.272911 0.482053 0.069242
C18   C     C_R   0.007659 0.844039 0.486118 -0.010406
C19   C     C_R   0.110430 0.699258 0.485150 -0.251842
C20   C     C_R   0.790597 0.153477 0.505321 0.035705
C21   C     C_R   0.695247 0.299619 0.513494 -0.225841
C22   C     C_R   0.206662 0.963249 0.453439 -0.079720
C23   C     C_3   0.883503 0.266000 0.708904 -0.389191
C24   C     C_R   0.292432 0.016243 0.437019 0.195725
C25   C     C_R   0.255194 0.086499 0.454907 -0.085037
C26   C     C_R   0.122199 0.102560 0.484101 -0.099383
C27   C     C_R   0.005092 0.051590 0.486691 0.036156
C28   C     C_R   0.054225 0.977792 0.475530 0.021329
C29   C     C_R   0.845650 0.074103 0.501276 0.031395
C30   C     C_R   0.739234 0.019429 0.508579 0.068650
C31   C     C_R   0.790110 0.945659 0.499461 0.027841
C32   C     C_R   0.951105 0.923060 0.486191 0.002525
C33   C     C_R   0.578106 0.035082 0.523171 -0.052936
C34   C     C_3   0.863575 0.627658 0.637998 0.886794
C35   C     C_R   0.481358 0.983360 0.535899 -0.070863
C36   C     C_R   0.524983 0.912777 0.522530 -0.020900
C37   C     C_R   0.671331 0.894782 0.500207 -0.038808
C38   C     C_R   0.268898 0.459034 0.172206 0.641304
C39   C     C_R   0.239938 0.585881 0.178466 0.610313
C40   C     C_2   0.057385 0.560647 0.270958 0.265734
C41   C     C_3   0.047481 0.580611 0.327706 -0.078873
C42   C     C_1   0.281745 0.499432 0.336403 0.032137
C43   C     C_2   0.318728 0.501136 0.289236 -0.107380
C44   C     C_2   0.197369 0.529330 0.252984 0.227431
C45   C     C_3   0.954603 0.633842 0.689126 -0.243129
C46   C     C_R   0.319219 0.516514 0.099386 -0.075276
C47   C     C_R   0.312126 0.454242 0.121629 -0.043061
C48   C     C_R   0.348977 0.388494 0.092967 -0.045310
C49   C     C_R   0.282732 0.582681 0.128227 -0.018400
C50   C     C_2   0.158166 0.536048 0.357716 -0.242358
C51   C     C_2   0.650145 0.471428 0.637383 -0.223977
C52   C     C_R   0.434182 0.441482 0.967814 0.020576
C53   C     C_R   0.417242 0.572606 0.976063 0.021847
C54   C     C_R   0.446396 0.505170 0.946637 0.051076
C55   C     C_R   0.459696 0.375740 0.936331 -0.097582
C56   C     C_3   0.958450 0.378881 0.365808 0.249785
C57   C     C_R   0.498837 0.372672 0.886480 -0.060241
C58   C     C_R   0.514156 0.434885 0.865507 -0.025578
C59   C     C_R   0.487897 0.501342 0.895378 -0.080039
C60   C     C_R   0.502624 0.563897 0.873920 -0.041104
C61   C     C_R   0.543428 0.559117 0.823141 0.597300
C62   C     C_R   0.553875 0.431738 0.814965 0.584329
C63   C     C_2   0.742350 0.452485 0.724985 -0.089798
C64   C     C_3   0.752360 0.426365 0.669326 -0.125774
C65   C     C_1   0.525196 0.510059 0.656642 0.114205
C66   C     C_2   0.490174 0.516167 0.704691 -0.069764
C67   C     C_3   0.946796 0.360119 0.308674 0.437067
C68   C     C_2   0.607374 0.488376 0.741883 0.225196
C69   C     C_R   0.395912 0.445366 0.019282 0.021726
C70   C     C_R   0.362358 0.512693 0.048278 0.055154
C71   C     C_R   0.371082 0.576281 0.026756 0.020442
C72   C     C_R   0.390193 0.384025 0.043106 -0.090250
C73   C     C_R   0.289026 0.644664 0.106372 -0.033922
C74   C     C_R   0.435826 0.634302 0.953509 -0.093048
C75   C     C_R   0.477098 0.629896 0.903677 -0.053725
C76   C     C_R   0.331814 0.641682 0.056897 -0.094099
C77   C     C_3   0.332632 0.682289 0.588682 0.407415
C78   C     C_3   0.315500 0.762658 0.603846 -0.006173
H1    H     H_    0.496123 0.332483 0.657741 -0.010344
H2    H     H_    0.921479 0.685111 0.712519 0.137217
H3    H     H_    0.922554 0.589602 0.708991 0.073442
H4    H     H_    0.087083 0.631863 0.684557 0.072614
H5    H     H_    0.083634 0.393566 0.378403 -0.006842
H6    H     H_    0.874646 0.424597 0.377182 0.082172
H7    H     H_    0.039874 0.318532 0.296238 0.059750
H8    H     H_    0.825021 0.339607 0.296152 0.053119
H9    H     H_    0.212983 0.661320 0.575502 -0.129989
H10   H     H_    0.417247 0.670807 0.557754 0.079689
H11   H     H_    0.515711 0.258646 0.729050 0.112205
H12   H     H_    0.226060 0.775231 0.633456 0.091087
H13   H     H_    0.272735 0.787843 0.570767 -0.001118
H14   H     H_    0.577470 0.242007 0.641613 -0.048558
H15   H     H_    0.370056 0.199947 0.694481 0.138509
H16   H     H_    0.591735 0.333595 0.404425 0.009517
H17   H     H_    0.394897 0.329242 0.430130 0.065515
H18   H     H_    0.536736 0.222837 0.344906 0.143081
H19   H     H_    0.522372 0.209822 0.409660 0.063650
H20   H     H_    0.340201 0.218855 0.370703 0.134686
H21   H     H_    0.313757 0.292234 0.715486 0.155039
H22   H     H_    0.808139 0.218414 0.706522 0.111988
H23   H     H_    0.830207 0.733715 0.411144 0.046585
H24   H     H_    0.981611 0.720063 0.363838 -0.026252
H25   H     H_    0.683573 0.820662 0.365815 0.168521
H26   H     H_    0.892350 0.843004 0.372615 0.099354
H27   H     H_    0.812332 0.798895 0.312857 0.162495
H28   H     H_    0.260088 0.694585 0.352947 -0.080096
H29   H     H_    0.451122 0.646514 0.344824 0.041829
H30   H     H_    0.394768 0.689685 0.268051 0.103543
H31   H     H_    0.533563 0.752088 0.299503 0.122510
H32   H     H_    0.870067 0.823488 0.549873 0.103413
H33   H     H_    0.148194 0.829493 0.418385 0.102612
H34   H     H_    0.646667 0.158692 0.571657 0.078276
H35   H     H_    0.918791 0.177820 0.441029 0.076695
H36   H     H_    0.155196 0.645163 0.485565 0.061823
H37   H     H_    0.653715 0.354511 0.515165 0.057260
H38   H     H_    0.271396 0.913766 0.450470 0.092236
H39   H     H_    0.332885 0.128141 0.448064 0.109384
H40   H     H_    0.828906 0.284609 0.631567 -0.091404
H41   H     H_    0.107050 0.155834 0.503045 0.159130
H42   H     H_    0.516610 0.085166 0.521772 0.072597
H43   H     H_    0.362678 0.997720 0.549981 0.097439
H44   H     H_    0.439164 0.872870 0.526399 0.113341
H45   H     H_    0.691544 0.840995 0.482594 0.122094
H46   H     H_    0.435460 0.480441 0.276223 0.119913
H47   H     H_    0.346292 0.339700 0.109079 0.128212
H48   H     H_    0.830096 0.432846 0.751449 0.087157
H49   H     H_    0.516918 0.320746 0.864228 0.121957
H50   H     H_    0.448443 0.324998 0.948643 0.073936
H51   H     H_    0.991332 0.259661 0.734444 0.141705
H52   H     H_    0.418630 0.331178 0.024565 0.073887
H53   H     H_    0.260383 0.696355 0.127578 0.142459
H54   H     H_    0.421097 0.687490 0.973364 0.077181
H55   H     H_    0.489073 0.678944 0.888478 0.130759
H56   H     H_    0.376341 0.540922 0.717364 0.090730
H57   H     H_    0.330656 0.692127 0.043414 0.078082
H58   H     H_    0.154217 0.546728 0.398454 0.054339
H59   H     H_    0.661996 0.460367 0.596962 0.065787
H60   H     H_    0.810036 0.312553 0.725093 0.109714
H61   H     H_    0.893002 0.574552 0.616437 -0.042361
N1    N     N_R   0.233403 0.524498 0.200142 -0.429690
N2    N     N_R   0.569009 0.493436 0.794352 -0.427453
O1    O     O_2   0.103290 0.325410 0.465600 -0.453949
O2    O     O_3   0.389268 0.651423 0.630506 -0.548819
O3    O     O_3   0.053511 0.327290 0.660339 -0.552873
O4    O     O_2   0.707020 0.674640 0.534420 -0.430038
O5    O     O_3   0.952550 0.585840 0.530020 -0.504478
O6    O     O_3   0.436140 0.628890 0.444040 -0.481592
O7    O     O_3   0.904409 0.684620 0.614160 -0.637219
O8    O     O_3   0.350480 0.462320 0.439870 -0.489363
O9    O     O_3   0.840680 0.592440 0.417430 -0.491051
O10   O     O_2   0.720027 0.538930 0.326227 -0.435222
O11   O     O_3   0.755549 0.677063 0.342468 -0.585190
O12   O     O_3   0.857760 0.414170 0.470020 -0.490614
O13   O     O_3   0.459840 0.537690 0.560170 -0.491746
O14   O     O_2   0.582520 0.462630 0.379680 -0.467366
O15   O     O_3   0.393791 0.351516 0.356693 -0.621964
O16   O     O_2   0.511173 0.753541 0.488122 -0.501455
O17   O     O_3   0.464509 0.744501 0.389795 -0.584185
O18   O     O_2   0.261532 0.404891 0.191232 -0.550629
O19   O     O_2   0.573517 0.373833 0.789021 -0.631111
O20   O     O_2   0.207523 0.643641 0.202932 -0.581513
O21   O     O_2   0.557402 0.613338 0.804679 -0.570382
O22   O     O_3   0.374170 0.371120 0.556000 -0.468102
O23   O     O_2   0.292213 0.245286 0.516396 -0.487809
O24   O     O_3   0.916299 0.318854 0.385909 -0.683562
O25   O     O_3   0.344146 0.260665 0.614097 -0.524101
O26   O     O_2   0.227790 0.537410 0.620340 -0.495526
O27   O     O_3   0.969630 0.407570 0.582610 -0.455700
O28   O     O_2   0.079745 0.465665 0.673570 -0.493948
P1    P     P_3+3 0.926760 0.336170 0.451740 0.980235
P2    P     P_3+3 0.399470 0.558680 0.614150 1.080948
P3    P     P_3+3 0.963178 0.408169 0.647524 0.982023
P4    P     P_3+3 0.883550 0.663840 0.548300 1.031757
P5    P     P_3+3 0.840179 0.594580 0.352839 1.021725
P6    P     P_3+3 0.410914 0.281252 0.557767 0.978219
P7    P     P_3+3 0.398240 0.443610 0.376340 0.971607
P8    P     P_3+3 0.398853 0.718853 0.444559 0.938874
F1    F     F_    0.970193 0.419324 0.286440 -0.722151
I1    I     I_    0.542064 0.807623 0.631638 -0.329529
I2    I     I_    0.036495 0.173821 0.624301 -0.469020
I3    I     I_    0.238000 0.816884 0.294896 -0.363961
I4    I     I_    0.491695 0.989717 0.391094 -0.458408
I5    I     I_    0.861132 0.587922 0.221392 -0.333617
F2    F     F_    0.701520 0.633794 0.646239 -0.721967

loop_
_geom_bond_atom_site_label_1
_geom_bond_atom_site_label_2
_ccdc_geom_bond_type
C53   C54   A    
C76   H57   S    
Ba2   O12   S    
C37   H45   S    
C38   N1    Am   
O22   P6    S    
C60   C75   A    
C6    H25   S    
C5    C6    S    
C77   O2    S    
C43   C44   S    
C7    H28   S    
O10   P5    D    
Ba1   P2    S    
C24   C25   A    
C31   C37   A    
C4    H18   S    
C26   C27   A    
C33   C35   A    
C35   C36   A    
C22   C24   A    
Ba1   Ba2   S    
C72   H52   S    
C48   C72   A    
C67   F1    S    
C36   C37   A    
O4    P4    D    
C41   C50   S    
C55   C57   A    
Ba2   O5    S    
C38   C47   A    
Ba1   O27   S    
O6    P8    S    
C34   C45   S    
C1    H11   S    
C16   C17   A    
C40   C44   D    
C45   H2    S    
Ba1   O12   S    
C77   H10   S    
C14   H34   S    
C35   H43   S    
O12   P1    S    
C46   C49   A    
O26   P2    D    
C2    H1    S    
C14   C15   A    
C50   H58   S    
C71   C76   A    
Ba1   O8    S    
C45   H3    S    
C7    C8    S    
C67   H7    S    
C18   C32   S    
C1    H21   S    
Ba2   O6    S    
O7    P4    S    
C57   C58   A    
C5    H23   S    
Ba2   O9    S    
C8    I3    S    
C63   C68   D    
C46   C70   A    
C19   H36   S    
C51   C65   D    
C56   H6    S    
C12   I2    S    
C7    H29   S    
C61   O21   D    
O13   P2    S    
O28   P3    D    
C52   C54   A    
C9    C18   A    
O5    P4    S    
C20   C29   S    
C28   C32   A    
C65   C66   D    
C30   C33   A    
C55   H50   S    
C66   H56   S    
C23   H60   S    
C17   P1    S    
C62   O19   D    
C42   P7    S    
C74   H54   S    
C26   H41   S    
O8    P7    S    
C38   O18   D    
C7    O17   S    
Ba2   O4    S    
C45   H4    S    
C10   C19   A    
C2    O25   S    
O9    P5    S    
C14   C20   A    
C58   C59   A    
C4    H20   S    
C78   H12   S    
Ba1   O13   S    
C17   C21   A    
C34   H61   S    
C63   H48   S    
O17   P8    S    
C27   C28   A    
C51   C64   S    
Ba2   P4    S    
C41   P5    S    
C29   C30   A    
Ba1   O22   S    
C43   H46   S    
C60   C61   A    
C31   C32   A    
C68   N2    S    
C8    H31   S    
O23   P6    D    
C15   C21   A    
C78   I1    S    
C74   C75   A    
C56   O24   S    
C67   H8    S    
C10   P4    S    
C2    H14   S    
C53   C74   A    
C40   I5    S    
C46   C47   A    
O2    P2    S    
C63   C64   S    
C12   H40   S    
C5    H24   S    
C11   C13   A    
C40   C41   S    
C3    O15   S    
C1    C2    S    
C23   H51   S    
C6    H27   S    
C36   H44   S    
C49   C73   A    
C3    H16   S    
C42   C43   D    
O27   P3    S    
C15   P6    S    
Ba2   O8    S    
C12   O3    S    
C57   H49   S    
Ba2   O13   S    
C11   C18   A    
C9    H32   S    
C16   C20   A    
C33   H42   S    
C52   C69   A    
O16   P8    D    
C70   C71   A    
C6    H26   S    
C16   H35   S    
C21   H37   S    
C69   C72   A    
C9    C10   A    
C73   H53   S    
C56   C67   S    
O24   P1    S    
C42   C50   D    
C62   N2    Am   
C25   H39   S    
O1    P1    D    
Ba1   P1    S    
C22   H38   S    
C56   H5    S    
O11   P5    S    
C58   C62   A    
C4    H19   S    
C39   O20   D    
C13   P8    S    
O15   P7    S    
C39   N1    Am   
C27   C29   A    
Ba1   O1    S    
C30   C31   A    
C34   O7    S    
C3    C4    S    
C5    O11   S    
C65   P2    S    
Ba2   O14   S    
O3    P3    S    
Ba1   O26   S    
C44   N1    S    
C8    H30   S    
C34   F2    S    
O14   P7    D    
C12   C23   S    
C59   C60   A    
C23   H22   S    
C73   C76   A    
C22   C28   A    
C77   H9    S    
C51   H59   S    
C77   C78   S    
C53   C71   A    
C3    H17   S    
C13   C19   A    
C69   C70   A    
C66   C68   S    
C47   C48   A    
C25   C26   A    
C61   N2    Am   
C54   C59   A    
C64   P3    S    
Ba1   O5    S    
C1    H15   S    
C48   H47   S    
C75   H55   S    
C78   H13   S    
C39   C49   A    
C11   H33   S    
O25   P6    S    
C52   C55   A    
C24   I4    S    
