data_mof_unit_3770.cif
_audit_creation_date              2013-03-05T15:51:12-0500
_audit_creation_method            fapswitch 2.2
_symmetry_space_group_name_H-M    P1
_symmetry_Int_Tables_number       1
_space_group_crystal_system       triclinic
_cell_length_a                    16.895683
_cell_length_b                    16.898329
_cell_length_c                    19.547468
_cell_angle_alpha                 117.739863
_cell_angle_beta                  62.297697
_cell_angle_gamma                 100.712858
_cell_volume                      4370.04384262

loop_
_atom_site_label
_atom_site_type_symbol
_atom_site_description
_atom_site_fract_x
_atom_site_fract_y
_atom_site_fract_z
_atom_type_partial_charge
C1    C     C_R   0.012615 0.759046 0.033648 -0.078390
H1    H     H_    0.031882 0.810924 0.080295 0.160440
N1    N     N_R   0.034930 0.670790 0.995440 -0.039212
C2    C     C_R   0.749117 0.458870 0.173655 0.505883
N2    N     N_R   0.835850 0.454880 0.118930 -0.094755
C3    C     C_R   0.815902 0.506736 0.911192 -0.132707
H2    H     H_    0.837549 0.527853 0.860981 0.095759
N3    N     N_R   0.867000 0.509260 0.948460 -0.050338
C4    C     C_R   0.983061 0.669501 0.248503 -0.199196
H3    H     H_    0.956021 0.649179 0.299534 0.125666
N4    N     N_R   0.003780 0.616410 0.165900 -0.061438
C5    C     C_R   0.752848 0.427230 0.984838 -0.069745
H4    H     H_    0.723422 0.369498 0.995073 0.183492
N5    N     N_R   0.825670 0.461520 0.995440 -0.059768
C6    C     C_R   0.051674 0.748723 0.173707 0.451636
N6    N     N_R   0.045120 0.664150 0.118920 -0.096030
C7    C     C_R   0.828229 0.532444 0.249060 -0.201348
H5    H     H_    0.847453 0.565068 0.300660 0.124142
N7    N     N_R   0.884940 0.497570 0.165910 -0.063543
C8    C     C_R   0.938830 0.688215 0.953960 -0.114716
H6    H     H_    0.896310 0.671344 0.921990 0.101150
N8    N     N_R   0.985840 0.628110 0.948460 -0.053338
C9    C     C_R   0.953141 0.772517 0.008509 0.015029
C10   C     C_R   0.741596 0.515646 0.256572 -0.078152
C11   C     C_R   0.743253 0.454659 0.933003 0.031949
C12   C     C_R   0.006910 0.754176 0.255931 -0.096118
C13   C     C_R   0.263528 0.518552 0.965241 0.495926
N9    N     N_R   0.174330 0.538480 0.004560 -0.090764
C14   C     C_R   0.923894 0.261609 0.835665 -0.120534
H7    H     H_    0.878699 0.218194 0.862155 0.111514
N10   N     N_R   0.954880 0.335850 0.881080 -0.044497
C15   C     C_R   0.160295 0.506892 0.758401 0.072824
N11   N     N_R   0.115060 0.502430 0.834090 -0.074616
C16   C     C_R   0.027917 0.312732 0.073433 -0.134684
H8    H     H_    0.052693 0.329160 0.120267 0.104389
N12   N     N_R   0.014160 0.371890 0.051540 -0.046250
C17   C     C_R   0.954136 0.244413 0.994354 -0.051754
H9    H     H_    0.913508 0.197544 0.965018 0.120393
N13   N     N_R   0.965070 0.329210 0.004560 -0.045276
C18   C     C_R   0.237270 0.575875 0.834715 -0.072303
H10   H     H_    0.276436 0.628164 0.860733 0.215399
N14   N     N_R   0.164150 0.545120 0.881070 -0.073825
C19   C     C_R   0.192653 0.436070 0.036529 -0.187441
H11   H     H_    0.177719 0.390512 0.064636 0.126471
N15   N     N_R   0.133000 0.490740 0.051540 -0.062809
C20   C     C_R   0.989356 0.339832 0.760045 -0.123810
H12   H     H_    0.000324 0.369516 0.718330 0.107967
N16   N     N_R   0.996220 0.383590 0.834100 -0.046954
Ni1   Ni    Ni4+2 0.103690 0.603690 0.000000 0.323068
Ni2   Ni    Ni4+2 0.896310 0.396310 0.000000 0.267790
Ni3   Ni    Ni4+2 0.991110 0.505800 0.892250 0.202702
Ni4   Ni    Ni4+2 0.008890 0.494200 0.107750 0.213310
C21   C     C_R   0.275187 0.448466 0.979545 -0.094464
C22   C     C_R   0.943305 0.263035 0.759284 0.044878
C23   C     C_R   0.238094 0.551439 0.756987 -0.026993
C24   C     C_R   0.993226 0.230799 0.036908 0.058342
C25   C     C_R   0.924255 0.913277 0.488097 -0.151151
H13   H     H_    0.927129 0.918857 0.544398 0.133740
C26   C     C_R   0.965010 0.839015 0.410802 -0.150840
H14   H     H_    0.995162 0.786388 0.408979 0.135887
C27   C     C_R   0.969342 0.834347 0.335908 0.185935
C28   C     C_R   0.927472 0.901488 0.339578 -0.084758
H15   H     H_    0.926573 0.896295 0.282571 0.119202
C29   C     C_R   0.886813 0.976074 0.416969 -0.179801
H16   H     H_    0.859140 0.030043 0.418403 0.127952
C30   C     C_R   0.886737 0.983054 0.491198 0.113161
C31   C     C_R   0.927613 0.137496 0.550632 -0.155079
H17   H     H_    0.966042 0.132595 0.486267 0.144835
C32   C     C_R   0.947191 0.203987 0.615722 -0.160190
H18   H     H_    0.998614 0.249660 0.599843 0.125460
C33   C     C_R   0.908321 0.204656 0.696833 0.120363
C34   C     C_R   0.840387 0.145371 0.715155 -0.212021
H19   H     H_    0.805778 0.148273 0.778848 0.126674
C35   C     C_R   0.821024 0.077763 0.649559 0.042108
C36   C     C_R   0.870330 0.069941 0.565395 0.045374
C37   C     C_R   0.498887 0.579502 0.416006 -0.107980
H20   H     H_    0.434387 0.555915 0.417190 0.165805
C38   C     C_R   0.574733 0.545639 0.338477 -0.125142
H21   H     H_    0.564839 0.504022 0.282018 0.203707
C39   C     C_R   0.660249 0.561517 0.336294 0.160505
C40   C     C_R   0.667827 0.625862 0.411314 -0.184545
H22   H     H_    0.731809 0.645810 0.412589 0.123391
C41   C     C_R   0.591886 0.662890 0.488264 -0.157247
H23   H     H_    0.599526 0.706207 0.546512 0.136310
C42   C     C_R   0.507372 0.634163 0.492066 0.233283
C43   C     C_R   0.459264 0.595888 0.610560 -0.220273
H24   H     H_    0.528331 0.579153 0.589074 0.153374
C44   C     C_R   0.393800 0.570131 0.671149 -0.108247
H25   H     H_    0.413421 0.536956 0.697170 0.168571
C45   C     C_R   0.303943 0.582248 0.694488 0.065130
C46   C     C_R   0.279372 0.627034 0.661873 -0.272683
H26   H     H_    0.209442 0.641009 0.684042 0.178935
C47   C     C_R   0.345241 0.654567 0.601043 0.539848
C48   C     C_R   0.436185 0.634958 0.572377 -0.099651
C49   C     C_R   0.674272 0.422693 0.901178 0.119849
C50   C     C_R   0.359017 0.403128 0.950704 0.175207
C51   C     C_R   0.446648 0.345990 0.987818 -0.192493
C52   C     C_R   0.364074 0.365467 0.999339 -0.142924
C53   C     C_R   0.436894 0.405611 0.880489 -0.189528
C54   C     C_R   0.520080 0.397597 0.875895 0.168617
C55   C     C_R   0.523997 0.370037 0.932115 0.169021
C56   C     C_R   0.601942 0.378747 0.941077 -0.246088
C57   C     C_R   0.673416 0.443381 0.839752 -0.163767
C58   C     C_R   0.597007 0.428526 0.825424 -0.179016
H27   H     H_    0.600357 0.361349 0.988268 0.165337
H28   H     H_    0.729312 0.475109 0.806332 0.121380
H29   H     H_    0.449274 0.322936 0.030066 0.156661
H30   H     H_    0.595145 0.449598 0.781616 0.147847
H31   H     H_    0.305480 0.357762 0.051191 0.126780
H32   H     H_    0.433011 0.424730 0.836607 0.169759
C59   C     C_R   0.801613 0.182999 0.182522 0.201292
C60   C     C_R   0.909336 0.858785 0.038145 0.127559
C61   C     C_R   0.801103 0.939933 0.041753 -0.190071
C62   C     C_R   0.843953 0.859946 0.013117 -0.140613
C63   C     C_R   0.931424 0.940522 0.092399 -0.255028
C64   C     C_R   0.888382 0.021395 0.121909 0.179929
C65   C     C_R   0.822159 0.021595 0.096693 0.094830
C66   C     C_R   0.778860 0.103568 0.127653 -0.115525
C67   C     C_R   0.866909 0.182472 0.206996 -0.229726
C68   C     C_R   0.910331 0.102206 0.176846 -0.214466
H33   H     H_    0.883926 0.244623 0.249326 0.144479
H34   H     H_    0.751060 0.937163 0.020871 0.138074
H35   H     H_    0.960826 0.103247 0.196684 0.152210
H36   H     H_    0.824731 0.798988 0.971629 0.119612
H37   H     H_    0.981889 0.942046 0.112297 0.142509
C69   C     C_1   0.121828 0.492414 0.701727 0.021724
N17   N     N_1   0.091531 0.481597 0.655837 -0.077622
S1    S     S_3+6 0.680448 0.367032 0.150839 -0.103715
O1    O     O_2   0.608500 0.390292 0.137704 -0.365911
O2    O     O_2   0.736666 0.288542 0.071109 -0.347533
O3    O     O_3   0.632708 0.339420 0.233502 -0.547163
H38   H     H_    0.587485 0.295540 0.221709 0.377167
C70   C     C_1   0.756023 0.013047 0.668106 0.051074
N18   N     N_1   0.703963 0.961155 0.682914 -0.066706
S2    S     S_3+6 0.311392 0.713551 0.563756 -0.041928
O4    O     O_2   0.282831 0.647797 0.495704 -0.300061
O5    O     O_2   0.233427 0.776161 0.637055 -0.271643
O6    O     O_3   0.395617 0.772906 0.522819 -0.534262
H39   H     H_    0.372640 0.798586 0.498804 0.383613
C71   C     C_1   0.710452 0.108548 0.105143 0.160734
N19   N     N_1   0.655522 0.112246 0.086996 -0.039946
S3    S     S_3+6 0.138291 0.821897 0.147890 -0.029384
O7    O     O_2   0.101560 0.916850 0.201047 -0.341176
O8    O     O_2   0.209427 0.812368 0.169543 -0.202152
O9    O     O_3   0.184235 0.799447 0.043490 -0.534664
H40   H     H_    0.222515 0.850529 0.039013 0.386128
S4    S     S_3+6 0.347864 0.596458 0.948029 -0.054147
O10   O     O_2   0.404304 0.568729 0.853633 -0.395201
O11   O     O_2   0.307365 0.687897 0.988849 -0.211057
O12   O     O_3   0.413704 0.601039 0.993020 -0.509903
H41   H     H_    0.466531 0.633849 0.970024 0.377738

loop_
_geom_bond_atom_site_label_1
_geom_bond_atom_site_label_2
_geom_bond_distance
_ccdc_geom_bond_type
S2    O6    1.682026 S    
C50   C53   1.403877 A    
C16   C24   1.391901 A    
C47   C48   1.414468 A    
S4    O10   1.502980 D    
C25   C30   1.404064 A    
S1    O1    1.503292 D    
C60   C62   1.406974 A    
O9    H40   0.990566 S    
N1    Ni1   1.823015 S    
S2    O4    1.502843 D    
C9    C60   1.491588 S    
C55   C56   1.380269 A    
C59   C66   1.396817 A    
N11   N14   1.385891 A    
S4    O11   1.493369 D    
C17   H9    1.080902 S    
C37   C38   1.387802 A    
C1    H1    1.063807 S    
C23   C45   1.454113 S    
C1    N1    1.354428 A    
C2    C10   1.403535 A    
C38   C39   1.403787 A    
C25   C26   1.385885 A    
C3    C11   1.387083 A    
C14   C22   1.382985 A    
C6    N6    1.352138 A    
C35   C70   1.444253 S    
C54   C58   1.403953 A    
C64   C65   1.417954 A    
C56   H27   1.079179 S    
C59   C67   1.394400 A    
C16   H8    1.080248 S    
C42   C48   1.463609 S    
C15   C69   1.437912 S    
C32   C33   1.401174 A    
C28   C29   1.389143 A    
N4    Ni4   1.831426 S    
C43   C48   1.403590 A    
C17   C24   1.387997 A    
N7    Ni4   1.857939 S    
C19   C21   1.376102 A    
N16   Ni3   1.831426 S    
C61   H34   1.082640 S    
C53   C54   1.394232 A    
C49   C57   1.404622 A    
C50   C52   1.405398 A    
C4    H3    1.076372 S    
C15   C23   1.383094 A    
C16   N12   1.346715 A    
N12   Ni4   1.830409 S    
C49   C56   1.403143 A    
C62   H36   1.080318 S    
C18   N14   1.332779 A    
C26   H14   1.083384 S    
C52   H31   1.079970 S    
C21   C50   1.473025 S    
S3    O9    1.681392 S    
C32   H18   1.081594 S    
C66   C71   1.442244 S    
C40   C41   1.388618 A    
C10   C39   1.482742 S    
C4    C12   1.370204 A    
C51   C52   1.383853 A    
C67   H33   1.081807 S    
C71   N19   1.157319 T    
C20   N16   1.335471 A    
N9    N15   1.365939 A    
C26   C27   1.396384 A    
C7    C10   1.388938 A    
C35   C36   1.407963 A    
C2    S1    1.766579 S    
C31   H17   1.083923 S    
S4    O12   1.682601 S    
N6    Ni1   1.858221 S    
C34   C35   1.394188 A    
C46   H26   1.082568 S    
C43   H24   1.083771 S    
C39   C40   1.409830 A    
C6    C12   1.386228 A    
C3    N3    1.349073 A    
N15   Ni4   1.857789 S    
C53   H32   1.078262 S    
C40   H22   1.079170 S    
C64   C68   1.404406 A    
C31   C32   1.383115 A    
C29   C30   1.399383 A    
C19   H11   1.072767 S    
C14   H7    1.080367 S    
C46   C47   1.400367 A    
C6    S3    1.773935 S    
C4    N4    1.333152 A    
N9    Ni1   1.823724 S    
C41   H23   1.083754 S    
C8    C9    1.386512 A    
C14   N10   1.336861 A    
C18   C23   1.370265 A    
C20   C22   1.380998 A    
C28   H15   1.083483 S    
C13   C21   1.402076 A    
C7    H5    1.071053 S    
C37   H20   1.081974 S    
C19   N15   1.332000 A    
N3    Ni3   1.857792 S    
C61   C65   1.406158 A    
C18   H10   1.074463 S    
C41   C42   1.399067 A    
C44   C45   1.392686 A    
C11   C49   1.471189 S    
N10   N16   1.365950 A    
C70   N18   1.157247 T    
S3    O8    1.502666 D    
N2    Ni2   1.858388 S    
C31   C36   1.399795 A    
C8    N8    1.338987 A    
N10   Ni2   1.858222 S    
C45   C46   1.401304 A    
O3    H38   0.990344 S    
S1    O3    1.682090 S    
C58   H30   1.083589 S    
C61   C62   1.395383 A    
S2    O5    1.503209 D    
C20   H12   1.075453 S    
N3    N5    1.365935 A    
C8    H6    1.078591 S    
C38   H21   1.070428 S    
C12   C27   1.451816 S    
N12   N13   1.385872 A    
C22   C33   1.464855 S    
C5    N5    1.323918 A    
C34   H19   1.082307 S    
C47   S2    1.768498 S    
S1    O2    1.502679 D    
C67   C68   1.396093 A    
C68   H35   1.083625 S    
C1    C9    1.396893 A    
C3    H2    1.080839 S    
N2    N7    1.385888 A    
N11   Ni3   1.857936 S    
C63   H37   1.081567 S    
C5    C11   1.373168 A    
C15   N11   1.345312 A    
C33   C34   1.404856 A    
C17   N13   1.340491 A    
C65   C66   1.415957 A    
C29   H16   1.083356 S    
C25   H13   1.083437 S    
N5    Ni2   1.823729 S    
C69   N17   1.157409 T    
C30   C36   1.459874 S    
C54   C55   1.408713 A    
C7    N7    1.333223 A    
C57   H28   1.081806 S    
C43   C44   1.377843 A    
C27   C28   1.402954 A    
N4    N6    1.365950 A    
O6    H39   0.990492 S    
N14   Ni1   1.858389 S    
C51   H29   1.084314 S    
C2    N2    1.344771 A    
N13   Ni2   1.823011 S    
C44   H25   1.083622 S    
C13   S4    1.773662 S    
C57   C58   1.399411 A    
S3    O7    1.502648 D    
N8    Ni3   1.830410 S    
N1    N8    1.385874 A    
C5    H4    1.071376 S    
C37   C42   1.398126 A    
C60   C63   1.408708 A    
C51   C55   1.396443 A    
C63   C64   1.405300 A    
O12   H41   0.990511 S    
C13   N9    1.358741 A    
