data_mof_unit_4781.cif
_audit_creation_date              2012-10-26T21:00:39-0400
_audit_creation_method            fapswitch 2.2
_symmetry_space_group_name_H-M    P1
_symmetry_Int_Tables_number       1
_space_group_crystal_system       triclinic
_cell_length_a                    10.884851
_cell_length_b                    9.584832
_cell_length_c                    10.803806
_cell_angle_alpha                 89.573952
_cell_angle_beta                  91.944202
_cell_angle_gamma                 89.05092
_cell_volume                      1126.31585607

loop_
_atom_site_label
_atom_site_type_symbol
_atom_type_description
_atom_site_fract_x
_atom_site_fract_y
_atom_site_fract_z
_atom_type_partial_charge
Br1   Br    Br    0.617037 0.214238 0.138058 -0.457603
Br2   Br    Br    0.458274 0.190553 0.873376 -0.507955
Br3   Br    Br    0.667133 0.807583 0.210341 -0.468867
Br4   Br    Br    0.247110 0.708906 0.770904 -0.549145
Br5   Br    Br    0.321041 0.171606 0.296705 -0.416756
Br6   Br    Br    0.703818 0.161044 0.677678 -0.373033
C1    C     C_R   0.262252 0.499976 0.502572 0.578558
C2    C     C_R   0.485930 0.499073 0.737247 0.578381
C3    C     C_R   0.525892 0.764922 0.105947 0.211605
C4    C     C_R   0.373556 0.730886 0.895825 0.159933
C5    C     C_R   0.455418 0.876945 0.058457 -0.052328
C6    C     C_R   0.372794 0.856995 0.959499 -0.106738
C7    C     C_R   0.450688 0.619137 0.939341 -0.045510
C8    C     C_R   0.505390 0.629400 0.058888 -0.038981
C9    C     C_R   0.530400 0.504393 0.127208 -0.012376
C10   C     C_R   0.469250 0.494902 0.872834 -0.005053
C11   C     C_R   0.537347 0.377121 0.063482 0.183019
C12   C     C_R   0.737643 0.498804 0.498923 0.570089
C13   C     C_R   0.498649 0.370962 0.939370 0.195314
C14   C     C_R   0.065510 0.369056 0.500405 0.274478
C15   C     C_R   0.937825 0.369936 0.485991 0.273636
C16   C     C_R   0.871509 0.496203 0.499277 -0.009878
C17   C     C_R   0.128248 0.497045 0.506999 -0.003589
C18   C     C_3   0.133689 0.188981 0.623179 -0.050914
C19   C     C_3   0.885394 0.210555 0.339993 -0.037024
C20   C     C_3   0.228402 0.866212 0.346481 -0.063532
C21   C     C_3   0.648165 0.854872 0.774469 -0.039542
C22   C     C_R   0.934356 0.621403 0.515591 -0.166141
C23   C     C_R   0.061347 0.621827 0.517802 -0.181395
C24   C     C_R   0.422924 0.075430 0.420289 0.266631
C25   C     C_R   0.580039 0.071198 0.576539 0.276766
C26   C     C_R   0.422038 0.926223 0.421296 0.369581
C27   C     C_R   0.578666 0.922113 0.577962 0.366265
C28   C     C_R   0.514670 0.500912 0.262900 0.577554
Cu1   Cu    Cu3+1 0.500000 0.640660 0.500000 1.108756
Cu2   Cu    Cu3+1 0.500000 0.359340 0.500000 1.141336
H1    H     H_    0.463602 0.978974 0.099018 0.237462
H2    H     H_    0.981175 0.183385 0.315424 0.164195
H3    H     H_    0.186000 0.932305 0.271493 0.169912
H4    H     H_    0.187900 0.761894 0.333698 0.143477
H5    H     H_    0.202011 0.907774 0.438182 0.112458
H6    H     H_    0.557601 0.900953 0.798166 0.144955
H7    H     H_    0.655832 0.748809 0.815812 0.146287
H8    H     H_    0.722572 0.915873 0.819592 0.189722
H9    H     H_    0.311508 0.941348 0.928999 0.192000
H10   H     H_    0.885578 0.719758 0.526404 0.204873
H11   H     H_    0.106801 0.720067 0.530493 0.171520
H12   H     H_    0.180647 0.262349 0.687981 0.148504
H13   H     H_    0.188472 0.090288 0.624581 0.148617
H14   H     H_    0.040544 0.164670 0.655888 0.175556
H15   H     H_    0.848266 0.296545 0.278954 0.140379
H16   H     H_    0.828788 0.117135 0.322416 0.200913
N1    N     N_R   0.500000 0.852070 0.500000 -0.225575
N2    N     N_R   0.500000 0.147940 0.500000 -0.264730
O1    O     O_R   0.319640 0.618740 0.499990 -0.490688
O2    O     O_3   0.878533 0.245154 0.466197 -0.516995
O3    O     O_3   0.356489 0.853794 0.331077 -0.525165
O4    O     O_3   0.667200 0.845756 0.645874 -0.532708
O5    O     O_R   0.680360 0.618740 0.500010 -0.463820
O6    O     O_R   0.319620 0.381170 0.499990 -0.440084
O7    O     O_R   0.680380 0.381170 0.500010 -0.429372
O8    O     O_R   0.500000 0.618810 0.319650 -0.441364
O9    O     O_R   0.500000 0.618810 0.680350 -0.484364
O10   O     O_R   0.499970 0.381240 0.319640 -0.438964
O11   O     O_R   0.500030 0.381240 0.680360 -0.446501
O12   O     O_3   0.127756 0.242035 0.500934 -0.536043

loop_
_geom_bond_atom_site_label_1
_geom_bond_atom_site_label_2
_ccdc_geom_bond_type
C15   O2    S    
C5    C6    A    
C19   H15   S    
C12   O7    A    
C27   O4    S    
Br3   C3    S    
C18   O12   S    
C19   H2    S    
Cu1   N1    S    
C27   N1    A    
C3    C5    A    
C1    O6    A    
C9    C28   S    
Br1   C11   S    
Cu1   Cu2   S    
C8    C9    A    
C19   O2    S    
C1    O1    A    
C3    C8    A    
C22   H10   S    
Cu2   O10   S    
C25   C27   A    
Br6   C25   S    
C19   H16   S    
C2    O11   A    
C2    C10   S    
C16   C22   A    
C15   C16   A    
C24   C26   A    
C24   N2    A    
C21   H6    S    
C20   H4    S    
C4    C6    A    
C26   O3    S    
C23   H11   S    
C10   C13   A    
C1    C17   S    
C17   C23   A    
C14   O12   S    
C22   C23   A    
C11   C13   A    
C28   O10   A    
Cu1   O8    S    
C25   N2    A    
C18   H14   S    
C21   O4    S    
C20   O3    S    
C20   H3    S    
Cu2   N2    S    
C2    O9    A    
Cu1   O1    S    
Cu2   O7    S    
C18   H12   S    
C21   H7    S    
C12   O5    A    
C28   O8    A    
C14   C15   A    
Cu1   O5    S    
Br5   C24   S    
C7    C10   A    
C18   H13   S    
C9    C11   A    
Cu2   O11   S    
Cu1   O9    S    
C7    C8    A    
C26   N1    A    
Br2   C13   S    
C12   C16   S    
C14   C17   A    
Br4   C4    S    
C21   H8    S    
C5    H1    S    
C20   H5    S    
C6    H9    S    
Cu2   O6    S    
C4    C7    A    
