data_mof_unit_4433.cif
_audit_creation_date              2012-12-11T15:52:28-0500
_audit_creation_method            fapswitch 2.2
_symmetry_space_group_name_H-M    P1
_symmetry_Int_Tables_number       1
_space_group_crystal_system       triclinic
_cell_length_a                    11.206562
_cell_length_b                    11.076643
_cell_length_c                    18.842805
_cell_angle_alpha                 89.996893
_cell_angle_beta                  90.179451
_cell_angle_gamma                 119.36202
_cell_volume                      2038.49754542

loop_
_atom_site_label
_atom_site_type_symbol
_atom_type_description
_atom_site_fract_x
_atom_site_fract_y
_atom_site_fract_z
_atom_type_partial_charge
C1    C     C_R   0.520039 0.456854 0.147696 0.560720
C2    C     C_3   0.929843 0.711035 0.475715 -0.011991
C3    C     C_3   0.734231 0.059566 0.469119 -0.036298
C4    C     C_3   0.266161 0.296011 0.452919 -0.021927
C5    C     C_R   0.522647 0.453789 0.354558 0.568834
C6    C     C_R   0.543873 0.062549 0.353685 0.542170
C7    C     C_R   0.876418 0.455112 0.361215 0.555846
C8    C     C_R   0.453243 0.521615 0.644953 0.549626
C9    C     C_R   0.063179 0.544284 0.646394 0.551875
C10   C     C_R   0.452319 0.873672 0.639438 0.555602
C11   C     C_R   0.502188 0.966383 0.930012 -0.010592
C12   C     C_R   0.543580 0.062673 0.147803 0.558822
C13   C     C_R   0.029008 0.533656 0.929261 -0.007903
C14   C     C_R   0.465279 0.496322 0.929598 -0.009151
C15   C     C_R   0.998660 0.502804 0.077713 0.008357
C16   C     C_R   0.503887 0.997691 0.078389 0.009137
C17   C     C_R   0.496320 0.497300 0.078042 0.008504
C18   C     C_R   0.424104 0.015762 0.961301 0.021940
C19   C     C_R   0.978893 0.405620 0.960239 0.023026
C20   C     C_R   0.591868 0.572759 0.960679 0.024646
C21   C     C_R   0.960210 0.389721 0.032361 0.031870
C22   C     C_R   0.427720 0.034833 0.033507 0.033630
C23   C     C_R   0.936606 0.479813 0.147489 0.573566
C24   C     C_R   0.607763 0.569864 0.032848 0.033000
C25   C     C_R   0.572155 0.931425 0.048834 0.065247
C26   C     C_R   0.065692 0.637061 0.048557 0.066664
C27   C     C_R   0.363525 0.432574 0.048731 0.066626
C28   C     C_R   0.067383 0.651961 0.974187 0.061507
C29   C     C_R   0.583473 0.928983 0.974390 0.061156
C30   C     C_R   0.348525 0.418895 0.974376 0.060394
C31   C     C_3   0.429550 0.150313 0.946587 -0.263896
C32   C     C_3   0.846599 0.278292 0.945194 -0.262840
C33   C     C_3   0.718181 0.564326 0.946230 -0.263987
C34   C     C_R   0.449671 0.520413 0.854858 0.559270
C35   C     C_3   0.828578 0.257817 0.024760 -0.233782
C36   C     C_3   0.428209 0.168926 0.026065 -0.232434
C37   C     C_3   0.738350 0.566502 0.025805 -0.234118
C38   C     C_R   0.457995 0.902853 0.563872 0.016652
C39   C     C_R   0.990547 0.502123 0.579705 0.038975
C40   C     C_R   0.488587 0.503253 0.573503 0.027597
C41   C     C_R   0.910135 0.468655 0.436456 0.026344
C42   C     C_R   0.499718 0.988618 0.421142 0.026885
C43   C     C_R   0.509724 0.479302 0.427674 0.033527
C44   C     C_R   0.571735 0.918561 0.527272 -0.021414
C45   C     C_R   0.069434 0.549384 0.854745 0.564068
C46   C     C_R   0.933377 0.577242 0.549924 0.038794
C47   C     C_R   0.403852 0.378759 0.538780 0.039903
C48   C     C_R   0.890693 0.559980 0.480339 -0.004739
C49   C     C_R   0.589110 0.953723 0.455839 0.034499
C50   C     C_R   0.416330 0.366455 0.466904 -0.006475
C51   C     C_R   0.398632 0.995665 0.461624 -0.116644
C52   C     C_R   0.952524 0.382091 0.468497 -0.138418
C53   C     C_R   0.586229 0.607723 0.459723 -0.160195
C54   C     C_R   0.991172 0.397399 0.539381 -0.139612
C55   C     C_R   0.373674 0.947592 0.531472 -0.122586
C56   C     C_R   0.478876 0.928507 0.855075 0.567147
C57   C     C_R   0.577203 0.619365 0.532782 -0.153693
C58   C     C_3   0.714091 0.027512 0.546478 -0.017908
C59   C     C_3   0.980261 0.727464 0.551774 -0.007521
C60   C     C_3   0.252148 0.316456 0.530618 -0.027084
Cr1   Cr    Cr6+3 0.769160 0.541570 0.250690 1.102780
Cr2   Cr    Cr6+3 0.458430 0.227590 0.250690 1.095929
Cr3   Cr    Cr6+3 0.772410 0.230840 0.250690 1.106943
Cr4   Cr    Cr6+3 0.541570 0.769160 0.749310 1.096888
Cr5   Cr    Cr6+3 0.227590 0.458430 0.749310 1.096837
Cr6   Cr    Cr6+3 0.230840 0.772410 0.749310 1.099132
H1    H     H_    0.336468 0.134963 0.918576 0.213344
H2    H     H_    0.838249 0.168384 0.044196 0.216361
H3    H     H_    0.331271 0.160914 0.045681 0.216199
H4    H     H_    0.826702 0.664143 0.045303 0.215105
H5    H     H_    0.347120 0.049220 0.441380 0.164917
H6    H     H_    0.957432 0.302463 0.438518 0.192499
H7    H     H_    0.648216 0.698311 0.427903 0.166739
H8    H     H_    0.016352 0.324399 0.563345 0.177886
H9    H     H_    0.299970 0.960849 0.562206 0.172271
H10   H     H_    0.631683 0.720802 0.556310 0.164049
H11   H     H_    0.777020 0.983774 0.568176 0.192866
H12   H     H_    0.863139 0.200260 0.917132 0.213874
H13   H     H_    0.092447 0.789111 0.556485 0.159197
H14   H     H_    0.224136 0.397385 0.541025 0.138992
H15   H     H_    0.842128 0.728275 0.471541 0.161695
H16   H     H_    0.745388 0.161383 0.456666 0.142498
H17   H     H_    0.225743 0.186105 0.437201 0.190438
H18   H     H_    0.796143 0.657485 0.918437 0.212840
H19   H     H_    0.739584 0.264514 0.045356 0.106963
H20   H     H_    0.523306 0.258012 0.046635 0.107923
H21   H     H_    0.731475 0.469993 0.046757 0.105957
H22   H     H_    0.526743 0.226467 0.921053 0.117607
H23   H     H_    0.770238 0.300512 0.919551 0.118109
H24   H     H_    0.696082 0.465196 0.920801 0.115906
I1    I     I_    0.672882 0.851875 0.116891 -0.233713
I2    I     I_    0.086998 0.835869 0.401883 -0.286678
I3    I     I_    0.871716 0.007409 0.417391 -0.338012
I4    I     I_    0.211723 0.414455 0.380232 -0.282060
I5    I     I_    0.149882 0.815904 0.117226 -0.219118
I6    I     I_    0.187431 0.341368 0.117326 -0.217175
I7    I     I_    0.088174 0.844693 0.936034 -0.267208
I8    I     I_    0.753643 0.908767 0.935394 -0.271825
I9    I     I_    0.158367 0.249233 0.936444 -0.272987
I10   I     I_    0.711569 0.193652 0.608845 -0.341514
I11   I     I_    0.871579 0.769504 0.632567 -0.287911
I12   I     I_    0.145610 0.128856 0.589036 -0.326309
O1    O     O_R   0.911480 0.572650 0.170990 -0.483222
O2    O     O_R   0.528970 0.640340 0.824320 -0.473034
O3    O     O_R   0.111370 0.471030 0.824320 -0.473109
O4    O     O_R   0.359660 0.888630 0.824320 -0.472963
O5    O     O_R   0.909980 0.572450 0.331530 -0.451016
O6    O     O_R   0.427550 0.337530 0.331530 -0.485206
O7    O     O_R   0.662470 0.090020 0.331530 -0.494808
O8    O     O_R   0.572450 0.909980 0.668470 -0.471489
O9    O     O_R   0.337530 0.427550 0.668470 -0.489341
O10   O     O_R   0.090020 0.662470 0.668470 -0.509063
O11   O     O_R   0.638950 0.528780 0.324500 -0.514679
O12   O     O_R   0.427350 0.338830 0.170990 -0.482127
O13   O     O_R   0.471220 0.110170 0.324500 -0.496603
O14   O     O_R   0.889830 0.361050 0.324500 -0.472561
O15   O     O_R   0.528780 0.638950 0.675500 -0.508613
O16   O     O_R   0.110170 0.471220 0.675500 -0.499315
O17   O     O_R   0.361050 0.889830 0.675500 -0.487484
O18   O     O_3   0.666667 0.333333 0.250560 -0.336345
O19   O     O_3   0.333333 0.666667 0.749440 -0.329779
O20   O     O_R   0.661170 0.088520 0.170990 -0.487650
O21   O     O_R   0.572650 0.911480 0.829010 -0.474298
O22   O     O_R   0.338830 0.427350 0.829010 -0.480230
O23   O     O_R   0.088520 0.661170 0.829010 -0.479415
O24   O     O_R   0.640340 0.528970 0.175680 -0.486538
O25   O     O_R   0.471030 0.111370 0.175680 -0.482495
O26   O     O_R   0.888630 0.359660 0.175680 -0.478067

loop_
_geom_bond_atom_site_label_1
_geom_bond_atom_site_label_2
_ccdc_geom_bond_type
C44   C49   A    
C28   I7    S    
C40   C47   A    
C11   C18   A    
C16   C25   A    
C46   C59   S    
Cr1   O1    S    
C44   C58   S    
C3    C49   S    
C12   O25   A    
C31   H1    S    
C29   I8    S    
C57   H10   S    
C19   C21   A    
C14   C30   A    
Cr2   O12   S    
Cr2   O25   S    
C39   C54   A    
Cr2   O6    S    
Cr4   O19   S    
C9    C39   S    
Cr5   O22   S    
Cr5   O9    S    
C10   O17   A    
C58   H11   S    
C47   C60   S    
C54   H8    S    
C43   C53   A    
C23   O1    A    
C38   C55   A    
C20   C24   A    
C45   O3    A    
C16   C22   A    
Cr5   O16   S    
C13   C28   A    
Cr1   O24   S    
C40   C57   A    
Cr5   O19   S    
C41   C52   A    
Cr2   O18   S    
Cr3   O26   S    
C42   C51   A    
C55   H9    S    
C9    O10   A    
C15   C23   S    
C5    C43   S    
C37   H4    S    
C27   C30   A    
C9    O16   A    
C27   I6    S    
C51   H5    S    
Cr6   O4    S    
C60   I12   S    
C19   C32   S    
Cr5   O3    S    
C52   C54   A    
C8    O15   A    
C47   C50   A    
C25   C29   A    
C12   C16   S    
C46   C48   A    
C25   I1    S    
C17   C24   A    
C13   C19   A    
C59   I11   S    
C56   O21   A    
C14   C20   A    
C58   I10   S    
C1    O24   A    
C8    O9    A    
C59   H13   S    
C53   C57   A    
C2    C59   S    
C15   C26   A    
C36   H20   S    
C30   I9    S    
C33   C37   S    
Cr4   O15   S    
C4    C50   S    
C17   C27   A    
C7    O14   A    
Cr3   O7    S    
C32   C35   S    
C38   C44   A    
C52   H6    S    
Cr4   O8    S    
C32   H23   S    
C4    C60   S    
C3    H16   S    
C24   C37   S    
Cr6   O19   S    
C3    I3    S    
C2    I2    S    
C56   O4    A    
C39   C46   A    
C4    I4    S    
C20   C33   S    
Cr6   O17   S    
Cr1   O11   S    
C6    O7    A    
C7    O5    A    
C1    O12   A    
Cr3   O14   S    
Cr3   O20   S    
C36   H3    S    
C26   I5    S    
Cr4   O2    S    
C60   H14   S    
C34   O22   A    
C31   H22   S    
C5    O11   A    
C18   C22   A    
C1    C17   S    
C37   H21   S    
C53   H7    S    
C14   C34   S    
C43   C50   A    
C21   C35   S    
Cr4   O21   S    
C22   C36   S    
C26   C28   A    
Cr6   O23   S    
C10   C38   S    
C2    C48   S    
Cr2   O13   S    
C33   H24   S    
C13   C45   S    
Cr3   O18   S    
C35   H19   S    
C4    H17   S    
C35   H2    S    
C41   C48   A    
C10   O8    A    
C51   C55   A    
C7    C41   S    
Cr1   O5    S    
C33   H18   S    
C34   O2    A    
C6    O13   A    
C42   C49   A    
C32   H12   S    
C3    C58   S    
C15   C21   A    
C12   O20   A    
C11   C29   A    
C6    C42   S    
C45   O23   A    
C31   C36   S    
C2    H15   S    
C18   C31   S    
C8    C40   S    
Cr6   O10   S    
C11   C56   S    
C23   O26   A    
Cr1   O18   S    
C5    O6    A    
