data_mof_unit_946.cif
_audit_creation_date              2012-10-26T19:51:32-0400
_audit_creation_method            fapswitch 2.2
_symmetry_space_group_name_H-M    P1
_symmetry_Int_Tables_number       1
_space_group_crystal_system       triclinic
_cell_length_a                    19.381071
_cell_length_b                    18.388002
_cell_length_c                    9.053814
_cell_angle_alpha                 90.054605
_cell_angle_beta                  94.670757
_cell_angle_gamma                 90.066098
_cell_volume                      3215.87156697

loop_
_atom_site_label
_atom_site_type_symbol
_atom_type_description
_atom_site_fract_x
_atom_site_fract_y
_atom_site_fract_z
_atom_type_partial_charge
C1    C     C_R   0.367786 0.499963 0.499180 0.531139
C2    C     C_R   0.463491 0.198623 0.389221 -0.142372
C3    C     C_R   0.500358 0.839489 0.499596 -0.020223
C4    C     C_R   0.500848 0.159439 0.498668 -0.013478
C5    C     C_R   0.562415 0.961561 0.529285 -0.114922
C6    C     C_R   0.439020 0.038062 0.467880 -0.114938
C7    C     C_R   0.438792 0.961574 0.469073 -0.115044
C8    C     C_R   0.562450 0.038069 0.529858 -0.114654
C9    C     C_R   0.500801 0.077548 0.498677 0.030981
C10   C     C_R   0.500531 0.921743 0.499327 0.030433
C11   C     C_R   0.499718 0.499994 0.220781 0.546428
C12   C     C_R   0.632350 0.500096 0.500427 0.531199
C13   C     C_R   0.500241 0.500039 0.779213 0.545558
C14   C     C_1   0.499889 0.500007 0.065601 -0.088921
C15   C     C_1   0.500076 0.500068 0.934393 -0.088861
C16   C     C_R   0.744501 0.436410 0.476251 -0.141931
C17   C     C_R   0.257736 0.441435 0.558454 -0.145210
C18   C     C_R   0.253983 0.558393 0.433810 -0.142384
C19   C     C_R   0.745006 0.565769 0.529555 -0.141846
C20   C     C_R   0.816468 0.437340 0.478279 -0.070354
C21   C     C_R   0.185903 0.442402 0.559683 -0.097617
C22   C     C_R   0.182111 0.558478 0.431951 -0.098500
C23   C     C_R   0.456146 0.722874 0.399745 0.157954
C24   C     C_R   0.816860 0.566589 0.531404 -0.104149
C25   C     C_R   0.852836 0.502378 0.506409 0.103091
C26   C     C_R   0.148072 0.500970 0.496576 0.083615
C27   C     C_R   0.708194 0.500632 0.502256 0.005695
C28   C     C_R   0.292222 0.499873 0.497048 0.007751
C29   C     C_R   0.970230 0.518442 0.635448 0.256307
C30   C     C_R   0.030773 0.489490 0.368936 0.228540
C31   C     C_R   0.042731 0.517675 0.634141 0.240473
C32   C     C_R   0.958544 0.491499 0.370421 0.219198
C33   C     C_R   0.072750 0.503069 0.500192 -0.068848
C34   C     C_R   0.534663 0.275869 0.615538 0.142426
C35   C     C_R   0.928470 0.503803 0.504383 -0.061838
C36   C     C_3   0.944271 0.602671 0.808794 -0.104788
C37   C     C_3   0.066390 0.402515 0.214434 -0.073052
C38   C     C_3   0.116696 0.593106 0.773799 -0.119330
C39   C     C_3   0.902654 0.543398 0.167998 -0.083190
C40   C     C_3   0.406525 0.688290 0.281201 -0.213914
C41   C     C_3   0.430833 0.695124 0.124208 -0.298117
C42   C     C_3   0.413941 0.768586 0.050764 -0.455515
C43   C     C_3   0.566604 0.305972 0.763718 -0.202757
C44   C     C_3   0.635398 0.347052 0.755369 -0.265108
C45   C     C_R   0.544079 0.722984 0.599991 0.156692
C46   C     C_3   0.685935 0.333394 0.891070 -0.476227
C47   C     C_3   0.593714 0.688535 0.718447 -0.214263
C48   C     C_3   0.569452 0.695478 0.875464 -0.297658
C49   C     C_3   0.586082 0.769179 0.948578 -0.455281
C50   C     C_3   0.430614 0.306124 0.238992 -0.203610
C51   C     C_3   0.361806 0.346212 0.253746 -0.260307
C52   C     C_3   0.306979 0.327647 0.128300 -0.482605
C53   C     C_R   0.465293 0.275774 0.384330 0.142505
C54   C     C_R   0.454376 0.799715 0.404584 -0.130448
C55   C     C_R   0.537719 0.198794 0.608859 -0.142653
C56   C     C_R   0.546165 0.799819 0.594819 -0.130911
Cu1   Cu    Cu3+1 0.500000 0.573360 0.500000 0.897761
Cu2   Cu    Cu3+1 0.500000 0.426640 0.500000 0.906233
H1    H     H_    0.717367 0.385711 0.452660 0.117447
H2    H     H_    0.566258 0.168158 0.695906 0.092956
H3    H     H_    0.583186 0.828861 0.668770 0.099106
H4    H     H_    0.435044 0.167852 0.302027 0.092445
H5    H     H_    0.611397 0.933739 0.550075 0.093162
H6    H     H_    0.390382 0.066458 0.445485 0.097942
H7    H     H_    0.389704 0.933787 0.448584 0.093127
H8    H     H_    0.611160 0.066477 0.552201 0.098914
H9    H     H_    0.949011 0.641117 0.714811 0.066348
H10   H     H_    0.988581 0.610422 0.892763 0.152528
H11   H     H_    0.896520 0.617792 0.861083 0.100307
H12   H     H_    0.286398 0.395853 0.607973 0.118445
H13   H     H_    0.014700 0.375810 0.201846 0.154105
H14   H     H_    0.099477 0.376505 0.305763 0.086899
H15   H     H_    0.091570 0.393462 0.110241 0.151802
H16   H     H_    0.087741 0.636650 0.709349 0.070385
H17   H     H_    0.169596 0.587918 0.736686 0.136729
H18   H     H_    0.122532 0.611071 0.891157 0.136517
H19   H     H_    0.950844 0.570425 0.137337 0.144537
H20   H     H_    0.873018 0.580778 0.235889 0.085628
H21   H     H_    0.869951 0.531804 0.064390 0.164035
H22   H     H_    0.360017 0.785247 0.066933 0.144235
H23   H     H_    0.279547 0.603714 0.384924 0.103221
H24   H     H_    0.450666 0.810976 0.095512 0.152719
H25   H     H_    0.419005 0.764429 0.929802 0.145783
H26   H     H_    0.487276 0.684587 0.127486 0.183106
H27   H     H_    0.404491 0.652305 0.053272 0.147009
H28   H     H_    0.398674 0.630573 0.299167 0.189719
H29   H     H_    0.354150 0.712493 0.285354 0.091589
H30   H     H_    0.662085 0.349339 0.993824 0.156630
H31   H     H_    0.700668 0.275050 0.897615 0.149122
H32   H     H_    0.733547 0.366274 0.882407 0.160489
H33   H     H_    0.660757 0.330163 0.655179 0.166882
H34   H     H_    0.718377 0.616154 0.549321 0.112991
H35   H     H_    0.625672 0.406267 0.752390 0.195234
H36   H     H_    0.528639 0.334998 0.825986 0.156960
H37   H     H_    0.577583 0.260103 0.842173 0.095842
H38   H     H_    0.639967 0.786106 0.932431 0.144087
H39   H     H_    0.549246 0.811269 0.903523 0.152962
H40   H     H_    0.580967 0.765232 0.069538 0.145546
H41   H     H_    0.513053 0.684580 0.872303 0.183319
H42   H     H_    0.595974 0.652949 0.946525 0.146835
H43   H     H_    0.601591 0.630816 0.700499 0.190958
H44   H     H_    0.646116 0.712797 0.714264 0.090593
H45   H     H_    0.843867 0.387528 0.457456 0.121076
H46   H     H_    0.326266 0.341097 0.019318 0.154081
H47   H     H_    0.293658 0.268914 0.131117 0.145078
H48   H     H_    0.259345 0.359727 0.141642 0.151612
H49   H     H_    0.340447 0.332217 0.360418 0.175119
H50   H     H_    0.370685 0.405580 0.247567 0.190760
H51   H     H_    0.466967 0.336134 0.174342 0.156123
H52   H     H_    0.418990 0.260574 0.159839 0.095624
H53   H     H_    0.159743 0.397693 0.609510 0.116127
H54   H     H_    0.153034 0.603931 0.382999 0.107462
H55   H     H_    0.844306 0.617496 0.549904 0.090098
H56   H     H_    0.417486 0.828672 0.330472 0.099170
N1    N     N_R   0.500000 0.683620 0.500000 -0.216634
N2    N     N_R   0.500000 0.316380 0.500000 -0.198561
O1    O     O_R   0.400190 0.561980 0.499980 -0.516598
O2    O     O_3   0.060446 0.478048 0.236947 -0.533775
O3    O     O_3   0.082964 0.524817 0.767172 -0.525313
O4    O     O_3   0.917330 0.477112 0.241798 -0.546076
O5    O     O_R   0.599810 0.438020 0.500020 -0.508506
O6    O     O_R   0.599810 0.561980 0.500020 -0.519479
O7    O     O_R   0.400190 0.438020 0.499980 -0.510753
O8    O     O_R   0.500000 0.561940 0.288400 -0.507570
O9    O     O_R   0.500000 0.438060 0.711600 -0.508681
O10   O     O_R   0.500000 0.561940 0.711600 -0.507156
O11   O     O_R   0.500000 0.438060 0.288400 -0.506920
O12   O     O_3   0.939391 0.528672 0.766599 -0.523658

loop_
_geom_bond_atom_site_label_1
_geom_bond_atom_site_label_2
_ccdc_geom_bond_type
C7    C10   A    
C21   C26   A    
C42   H22   S    
C47   H43   S    
C41   C42   S    
C11   O11   A    
C11   O8    A    
C42   H24   S    
C18   H23   S    
C6    C9    A    
C36   H9    S    
Cu1   N1    S    
C46   H31   S    
C38   H18   S    
C8    H8    S    
Cu2   O7    S    
Cu2   O11   S    
C39   H19   S    
C40   H29   S    
C17   H12   S    
C11   C14   S    
C20   C25   A    
C40   H28   S    
C39   O4    S    
C50   H52   S    
C43   H36   S    
C5    H5    S    
C6    H6    S    
C44   H35   S    
Cu1   O6    S    
C12   O5    A    
C45   C56   A    
C51   H50   S    
C1    C28   S    
C43   H37   S    
C31   C33   A    
C19   H34   S    
C19   C27   A    
C53   N2    A    
C13   O9    A    
C16   C27   A    
C49   H40   S    
C52   H48   S    
C24   H55   S    
C47   H44   S    
C55   H2    S    
Cu2   N2    S    
C36   O12   S    
C32   O4    S    
C21   H53   S    
C44   C46   S    
C46   H30   S    
C38   H17   S    
C45   C47   S    
C48   H42   S    
C50   C53   S    
C37   O2    S    
C12   C27   S    
C51   C52   S    
C39   H20   S    
C18   C28   A    
C24   C25   A    
Cu1   O10   S    
C20   H45   S    
C8    C9    A    
C30   O2    S    
C41   H26   S    
C23   N1    A    
C50   H51   S    
C17   C21   A    
C16   H1    S    
C39   H21   S    
C2    C4    A    
C43   C44   S    
C1    O7    A    
C7    H7    S    
C3    C56   A    
C45   N1    A    
C26   C33   S    
C47   C48   S    
C14   C15   T    
C16   C20   A    
C50   C51   S    
C1    O1    A    
C31   O3    S    
C44   H33   S    
C25   C35   S    
C38   O3    S    
C40   C41   S    
C52   H47   S    
C22   H54   S    
C37   H13   S    
C4    C55   A    
C29   O12   S    
C13   O10   A    
C36   H11   S    
C23   C54   A    
Cu1   O1    S    
C38   H16   S    
C48   H41   S    
C37   H15   S    
C52   H46   S    
Cu2   O5    S    
C30   C33   A    
C18   C22   A    
C17   C28   A    
C32   C35   A    
C2    C53   A    
C5    C8    A    
C36   H10   S    
C6    C7    A    
C46   H32   S    
C41   H27   S    
C29   C35   A    
C13   C15   S    
C19   C24   A    
C42   H25   S    
C5    C10   A    
C29   C31   A    
C3    C10   S    
Cu1   O8    S    
C30   C32   A    
Cu1   Cu2   S    
C48   C49   S    
C54   H56   S    
C3    C54   A    
C49   H38   S    
C49   H39   S    
C2    H4    S    
C34   C55   A    
C12   O6    A    
Cu2   O9    S    
C51   H49   S    
C22   C26   A    
C37   H14   S    
C56   H3    S    
C4    C9    S    
C34   C43   S    
C34   N2    A    
C23   C40   S    
