data_mof_unit_2056.cif
_audit_creation_date              2013-03-05T16:12:50-0500
_audit_creation_method            fapswitch 2.2
_symmetry_space_group_name_H-M    P1
_symmetry_Int_Tables_number       1
_space_group_crystal_system       triclinic
_cell_length_a                    26.15057
_cell_length_b                    6.883761
_cell_length_c                    21.545861
_cell_angle_alpha                 89.999697
_cell_angle_beta                  95.989081
_cell_angle_gamma                 89.999849
_cell_volume                      3857.39254383

loop_
_atom_site_label
_atom_site_type_symbol
_atom_site_description
_atom_site_fract_x
_atom_site_fract_y
_atom_site_fract_z
_atom_type_partial_charge
O1    O     O_R   0.208650 0.594520 0.175450 -0.567062
O2    O     O_R   0.791350 0.405480 0.824550 -0.567056
O3    O     O_R   0.291350 0.094520 0.324550 -0.567059
O4    O     O_R   0.708650 0.905480 0.675450 -0.567061
O5    O     O_R   0.192980 0.260780 0.300160 -0.586003
O6    O     O_R   0.807020 0.739220 0.699840 -0.586003
O7    O     O_R   0.307020 0.760780 0.199840 -0.585993
O8    O     O_R   0.692980 0.239220 0.800160 -0.585993
C1    C     C_R   0.179879 0.433805 0.320033 1.011742
C2    C     C_R   0.820122 0.566195 0.679968 1.011732
C3    C     C_R   0.320120 0.933808 0.179964 1.011732
C4    C     C_R   0.679881 0.066192 0.820036 1.011735
O9    O     O_R   0.202550 0.264660 0.174420 -0.592975
O10   O     O_R   0.797450 0.735340 0.825580 -0.592977
O11   O     O_R   0.297450 0.764660 0.325580 -0.592977
O12   O     O_R   0.702550 0.235340 0.674420 -0.592975
O13   O     O_R   0.300990 0.096480 0.197920 -0.559366
O14   O     O_R   0.699010 0.903520 0.802080 -0.559366
O15   O     O_R   0.199010 0.596480 0.302080 -0.559366
O16   O     O_R   0.800990 0.403520 0.697920 -0.559366
C5    C     C_R   0.190366 0.433462 0.151488 1.042068
C6    C     C_R   0.809634 0.566538 0.848512 1.042064
C7    C     C_R   0.309632 0.933460 0.348513 1.042085
C8    C     C_R   0.690368 0.066540 0.651487 1.042089
O17   O     O_3   0.282290 0.427760 0.257860 -0.246213
O18   O     O_3   0.717710 0.572240 0.742140 -0.246215
O19   O     O_3   0.217710 0.927760 0.242140 -0.246231
O20   O     O_3   0.782290 0.072240 0.757860 -0.246225
V1    V     V_3+5 0.244010 0.152080 0.248540 1.275151
V2    V     V_3+5 0.755990 0.847920 0.751460 1.275153
V3    V     V_3+5 0.255990 0.652080 0.251460 1.275155
V4    V     V_3+5 0.744010 0.347920 0.748540 1.275158
C9    C     C_R   0.655489 0.061944 0.592714 -0.214659
C10   C     C_R   0.344510 0.938054 0.407287 -0.214660
C11   C     C_R   0.844513 0.561938 0.907286 -0.214656
C12   C     C_R   0.155487 0.438062 0.092713 -0.214652
C13   C     C_R   0.643351 0.132952 0.482295 -0.034605
C14   C     C_R   0.356648 0.867027 0.517704 -0.034611
C15   C     C_R   0.856651 0.632960 0.017705 -0.034613
C16   C     C_R   0.143354 0.367071 0.982293 -0.034634
C17   C     C_R   0.673347 0.140382 0.539309 -0.166119
C18   C     C_R   0.326652 0.859602 0.460690 -0.166107
C19   C     C_R   0.826657 0.640392 0.960689 -0.166106
C20   C     C_R   0.173349 0.359655 0.039307 -0.166130
C21   C     C_R   0.604285 0.992663 0.589941 0.233547
C22   C     C_R   0.395713 0.007345 0.410062 0.233544
C23   C     C_R   0.895716 0.492645 0.910062 0.233539
C24   C     C_R   0.104280 0.507308 0.089940 0.233544
C25   C     C_R   0.570059 0.018790 0.533755 0.039930
C26   C     C_R   0.429939 0.981214 0.466247 0.039929
C27   C     C_R   0.929941 0.518762 0.966249 0.039935
C28   C     C_R   0.070056 0.481185 0.033752 0.039940
C29   C     C_R   0.592505 0.064420 0.478194 -0.062124
C30   C     C_R   0.407494 0.935570 0.521807 -0.062124
C31   C     C_R   0.907494 0.564394 0.021812 -0.062121
C32   C     C_R   0.092505 0.435574 0.978188 -0.062126
C33   C     C_R   0.514989 0.001699 0.529744 0.027802
C34   C     C_R   0.485008 0.998307 0.470259 0.027803
C35   C     C_R   0.985009 0.501668 0.970257 0.027825
C36   C     C_R   0.014987 0.498260 0.029744 0.027814
C37   C     C_R   0.511402 0.996759 0.416830 -0.200359
C38   C     C_R   0.488596 0.003241 0.583172 -0.200359
C39   C     C_R   0.988592 0.496685 0.083177 -0.200374
C40   C     C_R   0.011403 0.503225 0.916823 -0.200366
C41   C     C_R   0.563694 0.040209 0.419605 0.311290
C42   C     C_R   0.436304 0.959774 0.580396 0.311291
C43   C     C_R   0.936300 0.540152 0.080405 0.311255
C44   C     C_R   0.063697 0.459776 0.919596 0.311265
H1    H     H_    0.288266 0.800086 0.458949 0.183837
H2    H     H_    0.711735 0.199887 0.541048 0.183842
H3    H     H_    0.211739 0.300177 0.041046 0.183840
H4    H     H_    0.788272 0.699916 0.958948 0.183833
H5    H     H_    0.659952 0.186521 0.441654 0.187798
H6    H     H_    0.340047 0.813447 0.558344 0.187798
H7    H     H_    0.840050 0.686550 0.058342 0.187798
H8    H     H_    0.159958 0.313520 0.941654 0.187800
H9    H     H_    0.492182 0.954947 0.372176 0.207055
H10   H     H_    0.507814 0.045053 0.627827 0.207056
H11   H     H_    0.007809 0.454842 0.127830 0.207068
H12   H     H_    0.992185 0.545040 0.872168 0.207051
C45   C     C_R   0.437800 0.817432 0.095753 -0.036576
C46   C     C_R   0.562201 0.182563 0.904250 -0.036579
C47   C     C_R   0.062196 0.317441 0.404243 -0.036545
C48   C     C_R   0.937806 0.682554 0.595761 -0.036542
H13   H     H_    0.465907 0.701807 0.096218 0.196737
H14   H     H_    0.534093 0.298185 0.903784 0.196735
H15   H     H_    0.034084 0.201825 0.403775 0.196727
H16   H     H_    0.965920 0.798168 0.596231 0.196725
C49   C     C_R   0.397760 0.802088 0.134042 -0.125149
C50   C     C_R   0.602241 0.197909 0.865960 -0.125148
C51   C     C_R   0.102236 0.302096 0.365952 -0.125143
C52   C     C_R   0.897766 0.697902 0.634052 -0.125157
H17   H     H_    0.396208 0.674733 0.163291 0.182241
H18   H     H_    0.603792 0.325263 0.836710 0.182237
H19   H     H_    0.103786 0.174746 0.336701 0.182230
H20   H     H_    0.896216 0.825250 0.663304 0.182229
C53   C     C_R   0.361062 0.950864 0.136072 -0.257400
C54   C     C_R   0.638939 0.049135 0.863929 -0.257399
C55   C     C_R   0.138938 0.450860 0.363927 -0.257395
C56   C     C_R   0.861063 0.549141 0.636075 -0.257397
C57   C     C_R   0.365075 0.116532 0.096751 0.219654
C58   C     C_R   0.634928 0.883470 0.903252 0.219651
C59   C     C_R   0.134929 0.616519 0.403252 0.219652
C60   C     C_R   0.865071 0.383484 0.596748 0.219657
C61   C     C_R   0.404992 0.129069 0.057291 0.301921
C62   C     C_R   0.595012 0.870930 0.942712 0.301920
C63   C     C_R   0.095012 0.629061 0.442713 0.301950
C64   C     C_R   0.904989 0.370941 0.557289 0.301952
C65   C     C_R   0.441796 0.980002 0.057402 -0.100603
C66   C     C_R   0.558206 0.019993 0.942601 -0.100600
C67   C     C_R   0.058205 0.480007 0.442598 -0.100612
C68   C     C_R   0.941797 0.519991 0.557405 -0.100614
C69   C     C_1   0.483013 0.992626 0.017028 0.169482
C70   C     C_1   0.516989 0.007366 0.982975 0.169483
C71   C     C_1   0.016990 0.492628 0.482974 0.169452
C72   C     C_1   0.983013 0.507369 0.517030 0.169446
N1    N     N_R   0.587404 0.047335 0.362327 0.245282
O21   O     O_R   0.562185 0.118195 0.312128 -0.314397
O22   O     O_R   0.630226 0.954884 0.357544 -0.333514
N2    N     N_R   0.412595 0.952621 0.637674 0.245280
O23   O     O_R   0.437815 0.881740 0.687869 -0.314395
O24   O     O_R   0.369772 0.045062 0.642462 -0.333512
N3    N     N_R   0.912585 0.547257 0.137684 0.245301
O25   O     O_R   0.937812 0.617984 0.187898 -0.314391
O26   O     O_R   0.869747 0.454898 0.142452 -0.333512
N4    N     N_R   0.087409 0.452638 0.862316 0.245284
O27   O     O_R   0.062194 0.381751 0.812119 -0.314387
O28   O     O_R   0.130228 0.545107 0.857526 -0.333503
Br1   Br    Br    0.412105 0.172682 0.342122 -0.523641
Br2   Br    Br    0.587894 0.827340 0.657884 -0.523641
Br3   Br    Br    0.087882 0.672582 0.157893 -0.523671
Br4   Br    Br    0.912106 0.327320 0.842118 -0.523665
Br5   Br    Br    0.318141 0.333875 0.095334 -0.490873
Br6   Br    Br    0.681864 0.666134 0.904671 -0.490861
Br7   Br    Br    0.181864 0.833846 0.404674 -0.490870
Br8   Br    Br    0.818135 0.166161 0.595324 -0.490866
N5    N     N_R   0.407938 0.293593 0.016732 0.247491
O29   O     O_R   0.370083 0.332352 0.974450 -0.294923
O30   O     O_R   0.450234 0.393603 0.017892 -0.376472
N6    N     N_R   0.592067 0.706406 0.983272 0.247491
O31   O     O_R   0.629922 0.667653 0.025555 -0.294913
O32   O     O_R   0.549771 0.606393 0.982113 -0.376469
N7    N     N_R   0.092070 0.793576 0.483279 0.247512
O33   O     O_R   0.129921 0.832286 0.525566 -0.294927
O34   O     O_R   0.049782 0.893633 0.482103 -0.376483
N8    N     N_R   0.907930 0.206430 0.516720 0.247517
O35   O     O_R   0.870080 0.167736 0.474430 -0.294923
O36   O     O_R   0.950215 0.106360 0.517900 -0.376478

loop_
_geom_bond_atom_site_label_1
_geom_bond_atom_site_label_2
_geom_bond_distance
_ccdc_geom_bond_type
O17   V3    1.690170 S    
C55   C59   1.431039 A    
O1    C5    1.293386 A    
C19   H4    1.081225 S    
C44   N4    1.438653 S    
O19   V1    1.690175 S    
C9    C21   1.416796 A    
O3    C7    1.293379 A    
C10   C18   1.394901 A    
O1    V3    1.987099 S    
O15   V3    1.973679 S    
C22   Br1   1.937212 S    
C25   C33   1.438477 A    
N3    O25   1.301468 A    
C5    C12   1.481738 S    
C39   H11   1.077148 S    
O7    C3    1.322885 A    
C6    C11   1.481741 S    
N5    O30   1.300846 A    
C35   C40   1.402768 A    
C48   C68   1.401469 A    
C36   C39   1.402762 A    
C46   C66   1.401445 A    
O9    V1    1.991255 S    
N6    O32   1.300852 A    
C14   C18   1.387748 A    
C21   Br2   1.937213 S    
N1    O22   1.301435 A    
C14   H6    1.081912 S    
O4    C8    1.293376 A    
N3    O26   1.301439 A    
N7    O33   1.301048 A    
C60   C64   1.416035 A    
C52   H20   1.082912 S    
O13   V1    1.973685 S    
C31   C43   1.410875 A    
C20   H3    1.081224 S    
O2    V4    1.987095 S    
O3    V1    1.987091 S    
C59   Br7   1.933296 S    
C13   H5    1.081908 S    
C28   C36   1.438463 A    
C69   C70   1.214116 T    
C13   C17   1.387752 A    
C1    O15   1.301647 A    
C56   C60   1.431034 A    
C15   C31   1.404939 A    
C2    O16   1.301649 A    
C16   C32   1.404939 A    
O2    C6    1.293387 A    
C24   Br3   1.937248 S    
C58   C62   1.416015 A    
C10   C22   1.416797 A    
C15   H7    1.081879 S    
C11   C19   1.394894 A    
C66   C70   1.456598 S    
C16   C20   1.387738 A    
O5    V1    1.971646 S    
C65   C69   1.456598 S    
C13   C29   1.404938 A    
C34   C37   1.402673 A    
O11   C7    1.289562 A    
C11   C23   1.416774 A    
C35   C36   1.431159 A    
O12   C8    1.289563 A    
C42   N2    1.438578 S    
O17   V1    2.145183 S    
C40   H12   1.077148 S    
O10   V2    1.991252 S    
O16   V4    1.973682 S    
N2    O24   1.301436 A    
C50   H18   1.082904 S    
N8    O36   1.300791 A    
C57   C61   1.416021 A    
C39   C43   1.395022 A    
O7    V3    1.971646 S    
C38   C42   1.394972 A    
O19   V3    2.145176 S    
C26   C34   1.438475 A    
O20   V4    2.145174 S    
N6    O31   1.301106 A    
C37   H9    1.077131 S    
O18   V4    1.690171 S    
C15   C19   1.387753 A    
C33   C38   1.402671 A    
C32   C44   1.410862 A    
C61   N5    1.437468 S    
C18   H1    1.081246 S    
C16   H8    1.081877 S    
C49   C53   1.407293 A    
O8    V4    1.971646 S    
C58   Br6   1.933368 S    
O5    C1    1.322859 A    
C37   C41   1.394973 A    
C62   N6    1.437465 S    
C14   C30   1.404947 A    
C21   C25   1.439724 A    
O8    C4    1.322887 A    
C7    C10   1.481709 S    
C53   C57   1.431040 A    
O9    C5    1.289575 A    
C26   C30   1.422276 A    
C2    C56   1.505232 S    
O14   V2    1.973680 S    
O6    V2    1.971648 S    
C45   C65   1.401446 A    
O18   V2    2.145183 S    
C47   C67   1.401468 A    
C12   C20   1.394891 A    
C27   C35   1.438456 A    
C63   N7    1.437501 S    
C40   C44   1.395001 A    
C68   C72   1.456593 S    
C29   C41   1.410853 A    
N2    O23   1.301469 A    
C52   C56   1.407308 A    
C59   C63   1.416030 A    
N8    O35   1.301045 A    
C62   C66   1.406707 A    
N7    O34   1.300800 A    
C61   C65   1.406704 A    
C3    O13   1.301633 A    
N4    O28   1.301451 A    
C60   Br8   1.933287 S    
C63   C67   1.406682 A    
C38   H10   1.077131 S    
C48   H16   1.082786 S    
C43   N3    1.438666 S    
C47   H15   1.082773 S    
O6    C2    1.322857 A    
C23   C27   1.439715 A    
O11   V3    1.991262 S    
C30   C42   1.410853 A    
C57   Br5   1.933362 S    
O12   V4    1.991264 S    
C47   C51   1.403000 A    
N5    O29   1.301105 A    
C22   C26   1.439719 A    
C8    C9    1.481712 S    
C46   C50   1.402998 A    
C23   Br4   1.937244 S    
C3    C53   1.505236 S    
C9    C17   1.394896 A    
O10   C6    1.289576 A    
O20   V2    1.690173 S    
C45   C49   1.402997 A    
C64   N8    1.437506 S    
C54   C58   1.431041 A    
N1    O21   1.301468 A    
C46   H14   1.082728 S    
C33   C34   1.431150 A    
C28   C32   1.422343 A    
N4    O27   1.301476 A    
C25   C29   1.422284 A    
C12   C24   1.416771 A    
C27   C31   1.422336 A    
C49   H17   1.082906 S    
O4    V2    1.987096 S    
C51   H19   1.082907 S    
C64   C68   1.406680 A    
C24   C28   1.439721 A    
C1    C55   1.505237 S    
C4    O14   1.301634 A    
C4    C54   1.505233 S    
C41   N1    1.438582 S    
C67   C71   1.456595 S    
C48   C52   1.402997 A    
C51   C55   1.407309 A    
C50   C54   1.407297 A    
C45   H13   1.082735 S    
C71   C72   1.214172 T    
C17   H2    1.081234 S    
