data_mof_unit_4774.cif
_audit_creation_date              2012-12-11T15:33:43-0500
_audit_creation_method            fapswitch 2.2
_symmetry_space_group_name_H-M    P1
_symmetry_Int_Tables_number       1
_space_group_crystal_system       triclinic
_cell_length_a                    27.182451
_cell_length_b                    7.195682
_cell_length_c                    22.627019
_cell_angle_alpha                 90.00387
_cell_angle_beta                  101.158885
_cell_angle_gamma                 90.003513
_cell_volume                      4342.08839793

loop_
_atom_site_label
_atom_site_type_symbol
_atom_type_description
_atom_site_fract_x
_atom_site_fract_y
_atom_site_fract_z
_atom_type_partial_charge
O1    O     O_R   0.207310 0.594030 0.676830 -0.541574
O2    O     O_R   0.792690 0.405970 0.323170 -0.526250
O3    O     O_R   0.292690 0.094030 0.823170 -0.541602
O4    O     O_R   0.707310 0.905970 0.176830 -0.526173
O5    O     O_R   0.197320 0.262370 0.795700 -0.544301
O6    O     O_R   0.802680 0.737630 0.204300 -0.535898
O7    O     O_R   0.302680 0.762370 0.704300 -0.544308
O8    O     O_R   0.697320 0.237630 0.295700 -0.535918
C1    C     C_R   0.184425 0.432561 0.811633 0.668180
C2    C     C_R   0.815558 0.567567 0.188417 0.667474
C3    C     C_R   0.315576 0.932560 0.688368 0.668317
C4    C     C_R   0.684441 0.067567 0.311581 0.667349
O9    O     O_R   0.201410 0.264250 0.675590 -0.526740
O10   O     O_R   0.798590 0.735750 0.324410 -0.544960
O11   O     O_R   0.298590 0.764250 0.824410 -0.526823
O12   O     O_R   0.701410 0.235750 0.175590 -0.544935
O13   O     O_R   0.296810 0.094940 0.702210 -0.531414
O14   O     O_R   0.703190 0.905060 0.297790 -0.539394
O15   O     O_R   0.203190 0.594940 0.797790 -0.531456
O16   O     O_R   0.796810 0.405060 0.202210 -0.539410
C5    C     C_R   0.189935 0.432781 0.653176 0.740148
C6    C     C_R   0.810093 0.567160 0.346792 0.740155
C7    C     C_R   0.310063 0.932801 0.846824 0.740096
C8    C     C_R   0.689908 0.067142 0.153208 0.740201
O17   O     O_3   0.281300 0.427390 0.758870 -0.374712
O18   O     O_3   0.718700 0.572610 0.241130 -0.374430
O19   O     O_3   0.218700 0.927390 0.741130 -0.374683
O20   O     O_3   0.781300 0.072610 0.258870 -0.374472
V1    V     V_3+5 0.244190 0.152150 0.748350 1.430913
V2    V     V_3+5 0.755810 0.847850 0.251650 1.423181
V3    V     V_3+5 0.255810 0.652150 0.751650 1.430775
V4    V     V_3+5 0.744190 0.347850 0.248350 1.423116
C9    C     C_R   0.655380 0.058594 0.094146 -0.128323
C10   C     C_R   0.344574 0.941227 0.905916 -0.128057
C11   C     C_R   0.844628 0.558700 0.405853 -0.128283
C12   C     C_R   0.155422 0.441107 0.594082 -0.128178
C13   C     C_R   0.641908 0.054223 0.985402 -0.251308
C14   C     C_R   0.358771 0.921724 0.014525 -0.253150
C15   C     C_R   0.858129 0.555384 0.514603 -0.251387
C16   C     C_R   0.141183 0.420399 0.485493 -0.253046
C17   C     C_R   0.674615 0.062867 0.041148 0.398101
C18   C     C_R   0.325880 0.917827 0.958823 0.401105
C19   C     C_R   0.825411 0.563652 0.458858 0.398117
C20   C     C_R   0.174088 0.416958 0.541187 0.401145
C21   C     C_R   0.603346 0.044849 0.090776 -0.279960
C22   C     C_R   0.396086 0.972546 0.909403 -0.278423
C23   C     C_R   0.896653 0.544569 0.409215 -0.280022
C24   C     C_R   0.103927 0.472824 0.590584 -0.278397
C25   C     C_R   0.569163 0.034553 0.034326 0.089672
C26   C     C_R   0.430375 0.979506 0.965847 0.089901
C27   C     C_R   0.930844 0.534591 0.465665 0.089671
C28   C     C_R   0.069624 0.479354 0.534144 0.089880
C29   C     C_R   0.589458 0.045745 0.981003 0.032194
C30   C     C_R   0.410433 0.957134 0.019109 0.034363
C31   C     C_R   0.910574 0.546630 0.518988 0.032172
C32   C     C_R   0.089533 0.456049 0.480894 0.034379
C33   C     C_R   0.515851 0.011517 0.029144 0.052327
C34   C     C_R   0.483607 0.005283 0.971044 0.052429
C35   C     C_R   0.984141 0.511129 0.470848 0.052311
C36   C     C_R   0.016406 0.505515 0.528942 0.052431
C37   C     C_R   0.505609 0.023493 0.919828 -0.222236
C38   C     C_R   0.493916 0.992046 0.080357 -0.223564
C39   C     C_R   0.994435 0.524712 0.580149 -0.222226
C40   C     C_R   0.006038 0.490549 0.419645 -0.223626
C41   C     C_R   0.557201 0.043842 0.924081 -0.002086
C42   C     C_R   0.442492 0.966543 0.076095 -0.000719
C43   C     C_R   0.942850 0.545327 0.575900 -0.002064
C44   C     C_R   0.057449 0.464719 0.423912 -0.000761
H1    H     H_    0.407801 0.989671 0.866953 0.113146
H2    H     H_    0.591189 0.042433 0.133287 0.112719
H3    H     H_    0.092230 0.490479 0.633025 0.113183
H4    H     H_    0.908803 0.541740 0.366701 0.112733
H5    H     H_    0.658383 0.051386 0.945537 0.147839
H6    H     H_    0.343133 0.895058 0.054186 0.146862
H7    H     H_    0.841669 0.553092 0.554481 0.147826
H8    H     H_    0.156801 0.393158 0.445853 0.146881
H9    H     H_    0.483539 0.023328 0.874906 0.128645
H10   H     H_    0.515895 0.996218 0.125309 0.128244
H11   H     H_    0.016526 0.525160 0.625060 0.128636
H12   H     H_    0.984034 0.493967 0.374699 0.128270
C45   C     C_R   0.620331 0.887633 0.355061 -0.173546
C46   C     C_R   0.373452 0.118003 0.636379 -0.145402
C47   C     C_R   0.879611 0.387573 0.144857 -0.173511
C48   C     C_R   0.126665 0.618047 0.863777 -0.145182
H13   H     H_    0.629240 0.763783 0.332047 0.128914
H14   H     H_    0.359955 0.245346 0.653144 0.123927
H15   H     H_    0.870666 0.263678 0.167821 0.128885
H16   H     H_    0.140255 0.745412 0.847139 0.124000
C49   C     C_R   0.584399 0.874582 0.391667 -0.150576
C50   C     C_R   0.409395 0.131029 0.599830 -0.147331
C51   C     C_R   0.915538 0.374522 0.108246 -0.150511
C52   C     C_R   0.090716 0.631074 0.900319 -0.147321
H17   H     H_    0.566913 0.741189 0.395725 0.136628
H18   H     H_    0.422051 0.267725 0.589419 0.131912
H19   H     H_    0.932982 0.241088 0.104133 0.136622
H20   H     H_    0.078149 0.767788 0.910847 0.131868
C53   C     C_R   0.571550 0.030752 0.422870 0.021638
C54   C     C_R   0.428306 0.970537 0.576638 0.025400
C55   C     C_R   0.928436 0.530748 0.077111 0.021638
C56   C     C_R   0.071688 0.470558 0.923355 0.025338
C57   C     C_R   0.595195 0.201234 0.415650 -0.144541
C58   C     C_R   0.410707 0.796218 0.591872 -0.147760
C59   C     C_R   0.904846 0.701283 0.084403 -0.144575
C60   C     C_R   0.089176 0.296221 0.907974 -0.147854
H21   H     H_    0.586250 0.324782 0.438778 0.140085
H22   H     H_    0.424559 0.669314 0.575220 0.139470
H23   H     H_    0.913831 0.824874 0.061328 0.140046
H24   H     H_    0.075233 0.169302 0.924506 0.139513
C61   C     C_R   0.631283 0.214196 0.379075 -0.150771
C62   C     C_R   0.374801 0.783193 0.628723 -0.171656
C63   C     C_R   0.868762 0.714243 0.120983 -0.150589
C64   C     C_R   0.125087 0.283194 0.871128 -0.171716
H25   H     H_    0.649164 0.347019 0.375334 0.130788
H26   H     H_    0.362184 0.646818 0.639411 0.123680
H27   H     H_    0.850925 0.847112 0.124783 0.130674
H28   H     H_    0.137613 0.146801 0.860322 0.123705
C65   C     C_R   0.644753 0.056975 0.348762 -0.042249
C66   C     C_R   0.355158 0.944087 0.650917 -0.036681
C67   C     C_R   0.855242 0.556971 0.151229 -0.042246
C68   C     C_R   0.144844 0.444101 0.849088 -0.036822
N1    N     N_R   0.518721 0.167854 0.489728 -0.284436
N2    N     N_R   0.481295 0.832949 0.509977 -0.285441
N3    N     N_R   0.981351 0.667912 0.010365 -0.284432
N4    N     N_R   0.018605 0.332907 0.989893 -0.285419
N5    N     N_R   0.485361 0.153538 0.525674 -0.288707
N6    N     N_R   0.514588 0.847318 0.473928 -0.289701
N7    N     N_R   0.014714 0.653601 0.974422 -0.288707
N8    N     N_R   0.985310 0.347270 0.025941 -0.289665
C69   C     C_R   0.465885 0.985790 0.536694 0.507939
C70   C     C_R   0.534078 0.015091 0.462937 0.509734
C71   C     C_R   0.034104 0.485805 0.963292 0.507899
C72   C     C_R   0.965907 0.515093 0.037042 0.509734
C73   C     C_R   0.575874 0.067745 0.867159 0.096899
C74   C     C_R   0.570932 0.922958 0.824786 -0.137187
C75   C     C_R   0.587340 0.947401 0.770420 -0.113736
C76   C     C_R   0.608466 0.116576 0.757908 -0.083473
C77   C     C_R   0.613201 0.261668 0.799730 -0.120312
C78   C     C_R   0.596880 0.237765 0.854167 -0.143241
H29   H     H_    0.554493 0.791481 0.833949 0.112154
H30   H     H_    0.583579 0.835336 0.737940 0.115950
H31   H     H_    0.621055 0.135371 0.715755 0.113486
H32   H     H_    0.629364 0.392862 0.789887 0.111947
H33   H     H_    0.600392 0.351526 0.886072 0.112449
C79   C     C_R   0.423557 0.953838 0.133191 0.095779
C80   C     C_R   0.437517 0.803747 0.172548 -0.135111
C81   C     C_R   0.420720 0.794340 0.227111 -0.113863
C82   C     C_R   0.390179 0.934980 0.242836 -0.085792
C83   C     C_R   0.376422 0.085390 0.204050 -0.119056
C84   C     C_R   0.393137 0.095350 0.149449 -0.144300
H34   H     H_    0.461286 0.694284 0.160891 0.113895
H35   H     H_    0.431463 0.678227 0.257257 0.118272
H36   H     H_    0.377276 0.927630 0.285128 0.113115
H37   H     H_    0.352934 0.194559 0.216379 0.112873
H38   H     H_    0.382555 0.213164 0.119922 0.113740
C85   C     C_R   0.924215 0.570268 0.632807 0.096915
C86   C     C_R   0.929224 0.426255 0.675451 -0.137270
C87   C     C_R   0.912873 0.451715 0.729809 -0.113668
C88   C     C_R   0.891733 0.621138 0.742041 -0.083547
C89   C     C_R   0.886929 0.765463 0.699948 -0.120408
C90   C     C_R   0.903197 0.740549 0.645521 -0.143195
H39   H     H_    0.945677 0.294597 0.666507 0.112188
H40   H     H_    0.916689 0.340250 0.762501 0.116033
H41   H     H_    0.879187 0.640721 0.784188 0.113513
H42   H     H_    0.870756 0.896854 0.709576 0.111998
H43   H     H_    0.899637 0.853736 0.613407 0.112513
C91   C     C_R   0.076340 0.450645 0.366821 0.095797
C92   C     C_R   0.062402 0.299613 0.327848 -0.135055
C93   C     C_R   0.079175 0.288834 0.273294 -0.114025
C94   C     C_R   0.109667 0.429039 0.257194 -0.085700
C95   C     C_R   0.123400 0.580381 0.295597 -0.119012
C96   C     C_R   0.106710 0.591708 0.350189 -0.144391
H44   H     H_    0.038672 0.190472 0.339799 0.113910
H45   H     H_    0.068453 0.171990 0.243446 0.118189
H46   H     H_    0.122552 0.420626 0.214909 0.113126
H47   H     H_    0.146852 0.689205 0.282978 0.112839
H48   H     H_    0.117277 0.710216 0.379421 0.113704
O21   O     O_3   0.275733 0.877532 0.956078 -0.557543
C97   C     C_3   0.251264 0.038485 0.971538 0.082442
H49   H     H_    0.247738 0.142691 0.934574 0.126885
H50   H     H_    0.271402 0.102824 0.014264 0.115341
C98   C     C_3   0.199035 0.986201 0.980576 -0.690915
H51   H     H_    0.201628 0.883613 0.017720 0.226378
H52   H     H_    0.179209 0.111880 0.992233 0.185238
H53   H     H_    0.177267 0.924458 0.938701 0.212997
O22   O     O_3   0.725814 0.057558 0.043657 -0.560350
C99   C     C_3   0.742649 0.236918 0.031893 0.076134
H54   H     H_    0.742501 0.328945 0.071400 0.132544
H55   H     H_    0.719244 0.301153 0.991071 0.114557
C100  C     C_3   0.796012 0.222724 0.021099 -0.678519
H56   H     H_    0.796512 0.141896 0.979405 0.218140
H57   H     H_    0.811196 0.363882 0.016030 0.191061
H58   H     H_    0.820116 0.151303 0.059601 0.219856
O23   O     O_3   0.224221 0.376399 0.543948 -0.557492
C101  C     C_3   0.248730 0.537103 0.528368 0.082405
H59   H     H_    0.252241 0.641680 0.565228 0.126775
H60   H     H_    0.228627 0.601060 0.485563 0.115410
C102  C     C_3   0.300969 0.484542 0.519444 -0.691006
H61   H     H_    0.298394 0.381570 0.482407 0.226438
H62   H     H_    0.320824 0.610028 0.507690 0.185107
H63   H     H_    0.322697 0.423168 0.561399 0.213077
O24   O     O_3   0.774212 0.558648 0.456374 -0.560383
C103  C     C_3   0.757442 0.738202 0.468020 0.076101
H64   H     H_    0.757577 0.829867 0.428430 0.132630
H65   H     H_    0.780896 0.802696 0.508766 0.114516
C104  C     C_3   0.704097 0.724382 0.478901 -0.678476
H66   H     H_    0.703623 0.644084 0.520701 0.218066
H67   H     H_    0.688941 0.865670 0.483822 0.191077
H68   H     H_    0.679954 0.652574 0.440509 0.220052

loop_
_geom_bond_atom_site_label_1
_geom_bond_atom_site_label_2
_ccdc_geom_bond_type
O17   V3    S    
C55   C59   A    
C77   H32   S    
O1    C5    A    
C87   C88   A    
N3    C72   A    
O19   V1    S    
C9    C21   A    
C94   C95   A    
O3    C7    A    
C82   C83   A    
C10   C18   A    
C56   C60   A    
N1    C70   A    
C11   C23   A    
C62   C66   A    
C80   C81   A    
O22   C99   S    
C56   C71   S    
C61   C65   A    
C33   C38   A    
C5    C12   S    
C39   H11   S    
C98   H51   S    
C102  H63   S    
O7    C3    A    
C6    C11   S    
C35   C40   A    
C26   C30   A    
C103  H65   S    
C55   C72   S    
C36   C39   A    
C40   C44   A    
O2    V4    S    
C86   C87   A    
C53   C70   S    
C14   C18   A    
C78   H33   S    
C14   H6    S    
O4    C8    A    
C98   H53   S    
C101  C102  S    
C42   C79   S    
C95   C96   A    
N6    C70   A    
C18   O21   S    
C57   C61   A    
C45   C65   A    
O1    V3    S    
O13   V1    S    
C59   C63   A    
O24   C103  S    
C47   C67   A    
C102  H62   S    
C22   H1    S    
C13   H5    S    
C2    C67   S    
C28   C36   A    
N1    N5    A    
N3    N7    A    
C1    O15   A    
C15   C31   A    
C37   H9    S    
C16   C32   A    
C103  C104  S    
O2    C6    A    
C94   H46   S    
C58   H22   S    
C10   C22   A    
C15   H7    S    
C102  H61   S    
C11   C19   A    
C62   H26   S    
N2    C69   A    
C80   H34   S    
C48   C68   A    
N4    N8    A    
C13   C29   A    
C34   C37   A    
O11   C7    A    
C101  H59   S    
C85   C90   A    
C77   C78   A    
O15   V3    S    
C35   C36   A    
O12   C8    A    
C13   C17   A    
C40   H12   S    
C75   H30   S    
C74   H29   S    
O10   V2    S    
N8    C72   A    
C45   H13   S    
C50   H18   S    
O5    V1    S    
C95   H47   S    
C98   H52   S    
C52   H20   S    
C57   H21   S    
C93   H45   S    
C39   C43   A    
O7    V3    S    
C103  H64   S    
C38   C42   A    
C17   O22   S    
C26   C34   A    
C97   H49   S    
C75   C76   A    
C83   C84   A    
C2    O16   A    
C92   C93   A    
C64   C68   A    
O18   V4    S    
C76   C77   A    
C23   C27   A    
C32   C44   A    
O4    V2    S    
C16   H8    S    
N4    C71   A    
C49   C53   A    
O8    V4    S    
N2    N6    A    
C100  H58   S    
C84   H38   S    
O5    C1    A    
C79   C84   A    
C37   C41   A    
C73   C74   A    
C31   C43   A    
C89   C90   A    
C14   C30   A    
C16   C20   A    
O8    C4    A    
C7    C10   S    
C21   C25   A    
C20   O23   S    
O9    C5    A    
C90   H43   S    
C73   C78   A    
C74   C75   A    
C91   C96   A    
C88   H41   S    
O14   V2    S    
C63   C67   A    
C93   C94   A    
O6    V2    S    
C86   H39   S    
O23   C101  S    
C91   C92   A    
C12   C20   A    
C27   C35   A    
C83   H37   S    
C46   C66   A    
C24   H3    S    
C99   H55   S    
C101  H60   S    
C60   H24   S    
C29   C41   A    
C52   C56   A    
C60   C64   A    
C81   C82   A    
O16   V4    S    
C104  H68   S    
O9    V1    S    
C104  H66   S    
C3    O13   A    
C19   O24   S    
C21   H2    S    
C38   H10   S    
C48   H16   S    
C79   C80   A    
C47   H15   S    
O6    C2    A    
C25   C33   A    
C97   H50   S    
C64   H28   S    
O11   V3    S    
C92   H44   S    
C30   C42   A    
C43   C85   S    
C61   H25   S    
O12   V4    S    
C47   C51   A    
C96   H48   S    
C22   C26   A    
C8    C9    S    
C46   C50   A    
C59   H23   S    
C9    C17   A    
O10   C6    A    
N7    C71   A    
O20   V2    S    
C82   H36   S    
C45   C49   A    
C54   C58   A    
C46   H14   S    
C3    C66   S    
O3    V1    S    
C33   C34   A    
C88   C89   A    
C99   C100  S    
C25   C29   A    
C54   C69   S    
C76   H31   S    
C12   C24   A    
C27   C31   A    
C49   H17   S    
C100  H56   S    
C41   C73   S    
C23   H4    S    
C97   C98   S    
C58   C62   A    
C51   H19   S    
C81   H35   S    
N5    C69   A    
C24   C28   A    
C15   C19   A    
O21   C97   S    
C4    O14   A    
C85   C86   A    
C1    C68   S    
C89   H42   S    
C63   H27   S    
C4    C65   S    
C48   C52   A    
C51   C55   A    
C99   H54   S    
C104  H67   S    
C87   H40   S    
C50   C54   A    
C53   C57   A    
C28   C32   A    
C100  H57   S    
C44   C91   S    
