data_mof_unit_1249.cif
_audit_creation_date              2012-10-26T18:34:50-0400
_audit_creation_method            fapswitch 2.2
_symmetry_space_group_name_H-M    P1
_symmetry_Int_Tables_number       1
_space_group_crystal_system       triclinic
_cell_length_a                    10.832786
_cell_length_b                    9.512605
_cell_length_c                    17.910202
_cell_angle_alpha                 90.778893
_cell_angle_beta                  90.200615
_cell_angle_gamma                 90.001075
_cell_volume                      1845.42889977

loop_
_atom_site_label
_atom_site_type_symbol
_atom_type_description
_atom_site_fract_x
_atom_site_fract_y
_atom_site_fract_z
_atom_type_partial_charge
C1    C     C_R   0.262045 0.499998 0.499937 0.553385
C2    C     C_R   0.500343 0.500863 0.644828 0.556735
C3    C     C_R   0.871785 0.500002 0.500072 0.022166
C4    C     C_R   0.128210 0.499997 0.499931 0.021638
C5    C     C_R   0.532233 0.626698 0.848630 0.066227
C6    C     C_R   0.532625 0.371618 0.151743 0.065298
C7    C     C_R   0.499377 0.624684 0.153363 0.055896
C8    C     C_R   0.498495 0.373726 0.846395 0.055237
C9    C     C_R   0.534391 0.627729 0.769715 -0.039492
C10   C     C_R   0.534466 0.371037 0.230705 -0.045637
C11   C     C_R   0.480281 0.622965 0.231056 -0.029618
C12   C     C_R   0.737954 0.500002 0.500064 0.553990
C13   C     C_R   0.479565 0.375992 0.768589 -0.036345
C14   C     C_R   0.503521 0.502202 0.728565 -0.000509
C15   C     C_R   0.503894 0.497055 0.271453 -0.000392
C16   C     C_R   0.415518 0.073403 0.458724 0.005011
C17   C     C_R   0.584758 0.926667 0.541049 0.007628
C18   C     C_R   0.584546 0.075492 0.541225 0.006218
C19   C     C_R   0.415267 0.924580 0.458925 0.007787
C20   C     C_R   0.518074 0.499492 0.886216 -0.030770
C21   C     C_R   0.518762 0.498641 0.113865 -0.030765
C22   C     C_2   0.546022 0.758327 0.892977 0.587399
C23   C     C_1   0.521256 0.498659 0.966578 0.110220
C24   C     C_2   0.546115 0.239726 0.107612 0.587489
C25   C     C_2   0.511235 0.760325 0.114594 0.593701
C26   C     C_2   0.510276 0.237827 0.884986 0.593497
C27   C     C_3   0.576086 0.760540 0.730758 -0.346349
C28   C     C_3   0.574681 0.237832 0.270136 -0.337344
C29   C     C_3   0.428880 0.754584 0.268732 -0.341068
C30   C     C_3   0.428648 0.244370 0.730349 -0.331788
C31   C     C_1   0.521487 0.499038 0.033503 0.110336
C32   C     C_R   0.063849 0.372240 0.499957 -0.132948
C33   C     C_R   0.936145 0.627760 0.500064 -0.131878
C34   C     C_R   0.936140 0.372243 0.500031 -0.132527
C35   C     C_R   0.063853 0.627756 0.499955 -0.132368
C36   C     C_R   0.500387 0.499020 0.355173 0.556763
Cu1   Cu    Cu3+1 0.500000 0.640660 0.500000 0.933403
Cu2   Cu    Cu3+1 0.500000 0.359340 0.500000 0.926711
H1    H     H_    0.347989 0.128659 0.425545 0.110517
H2    H     H_    0.642966 0.132138 0.029504 0.338826
H3    H     H_    0.611358 0.936970 0.103748 0.355484
H4    H     H_    0.610423 0.061141 0.895999 0.355744
H5    H     H_    0.615962 0.841233 0.768919 0.158918
H6    H     H_    0.651366 0.734801 0.690976 0.134192
H7    H     H_    0.496896 0.809994 0.701663 0.165054
H8    H     H_    0.614636 0.156867 0.232343 0.160712
H9    H     H_    0.649423 0.262450 0.310833 0.151216
H10   H     H_    0.494599 0.189102 0.298354 0.156600
H11   H     H_    0.389544 0.830362 0.228592 0.161467
H12   H     H_    0.652920 0.871540 0.573731 0.102469
H13   H     H_    0.350686 0.726554 0.305568 0.129367
H14   H     H_    0.502644 0.809959 0.300703 0.170651
H15   H     H_    0.388666 0.168692 0.770151 0.162522
H16   H     H_    0.351083 0.272065 0.692610 0.145809
H17   H     H_    0.502936 0.188991 0.699165 0.162987
H18   H     H_    0.652161 0.132418 0.574353 0.113555
H19   H     H_    0.347178 0.867767 0.426171 0.103237
H20   H     H_    0.111888 0.272359 0.499922 0.127994
H21   H     H_    0.888106 0.727641 0.500126 0.128817
H22   H     H_    0.888097 0.272363 0.500052 0.128174
H23   H     H_    0.111895 0.727635 0.499906 0.128423
H24   H     H_    0.644045 0.866101 0.970865 0.338587
N1    N     N_R   0.500000 0.852070 0.500000 -0.224019
N2    N     N_R   0.500000 0.147930 0.500000 -0.228413
O1    O     O_R   0.319640 0.618740 0.499990 -0.509029
O2    O     O_R   0.645424 0.773404 0.942439 -0.676157
O3    O     O_2   0.469659 0.146143 0.113853 -0.470314
O4    O     O_R   0.644810 0.224712 0.058041 -0.675667
O5    O     O_2   0.441679 0.789918 0.063258 -0.451168
O6    O     O_R   0.604147 0.853236 0.137466 -0.681542
O7    O     O_2   0.440986 0.208176 0.936153 -0.450706
O8    O     O_R   0.602970 0.144856 0.862252 -0.685120
O9    O     O_R   0.680360 0.381260 0.500010 -0.510340
O10   O     O_R   0.680360 0.618740 0.500010 -0.508575
O11   O     O_R   0.319640 0.381260 0.499990 -0.510088
O12   O     O_R   0.500000 0.618830 0.391250 -0.502394
O13   O     O_R   0.500000 0.381170 0.608750 -0.505943
O14   O     O_R   0.500000 0.618830 0.608750 -0.503724
O15   O     O_R   0.500000 0.381170 0.391250 -0.507211
O16   O     O_2   0.469319 0.851755 0.886887 -0.467844

loop_
_geom_bond_atom_site_label_1
_geom_bond_atom_site_label_2
_ccdc_geom_bond_type
Cu1   O10   S    
C28   H9    S    
C8    C13   A    
C12   O10   A    
C8    C26   S    
C32   H20   S    
C5    C20   A    
C29   H11   S    
C19   H19   S    
C7    C11   A    
C30   H16   S    
C28   H8    S    
C8    C20   A    
C10   C15   A    
C29   H13   S    
Cu2   O15   S    
C3    C33   A    
C26   O8    S    
C22   O2    S    
C3    C12   S    
C36   O12   A    
C24   O3    D    
C11   C15   A    
C27   H6    S    
C5    C22   S    
C19   N1    A    
Cu1   O1    S    
C1    O1    A    
C18   H18   S    
C27   H7    S    
C4    C35   A    
C33   H21   S    
C13   C14   A    
C34   H22   S    
C26   O7    D    
Cu1   N1    S    
Cu2   N2    S    
Cu2   O11   S    
C30   H15   S    
H24   O2    S    
C1    O11   A    
C13   C30   S    
C3    C34   A    
C7    C21   A    
C6    C21   A    
C23   C31   T    
C9    C14   A    
C5    C9    A    
Cu1   Cu2   S    
C2    O14   A    
C21   C31   S    
C20   C23   S    
C6    C24   S    
H4    O8    S    
C17   C18   A    
C35   H23   S    
C4    C32   A    
Cu1   O12   S    
C25   O5    D    
C15   C36   S    
C9    C27   S    
C30   H17   S    
C10   C28   S    
C28   H10   S    
C36   O15   A    
C17   H12   S    
C6    C10   A    
Cu2   O13   S    
Cu1   O14   S    
C7    C25   S    
C1    C4    S    
C22   O16   D    
C2    O13   A    
C17   N1    A    
C18   N2    A    
C16   C19   A    
C33   C35   A    
C2    C14   S    
C24   O4    S    
C16   H1    S    
C27   H5    S    
C11   C29   S    
H2    O4    S    
C25   O6    S    
C16   N2    A    
C12   O9    A    
Cu2   O9    S    
C32   C34   A    
H3    O6    S    
C29   H14   S    
