data_mof_unit_2381.cif
_audit_creation_date              2012-12-10T17:11:07-0500
_audit_creation_method            fapswitch 2.2
_symmetry_space_group_name_H-M    P1
_symmetry_Int_Tables_number       1
_space_group_crystal_system       triclinic
_cell_length_a                    10.088311
_cell_length_b                    10.741143
_cell_length_c                    16.662467
_cell_angle_alpha                 90.670237
_cell_angle_beta                  84.761643
_cell_angle_gamma                 90.430131
_cell_volume                      1797.84331052

loop_
_atom_site_label
_atom_site_type_symbol
_atom_type_description
_atom_site_fract_x
_atom_site_fract_y
_atom_site_fract_z
_atom_type_partial_charge
C1    C     C_R   0.500208 0.737086 0.501987 0.916894
C2    C     C_R   0.391506 0.441680 0.789149 -0.214851
C3    C     C_R   0.493715 0.681225 0.160482 -0.090179
C4    C     C_R   0.483320 0.648395 0.240835 -0.155789
C5    C     C_R   0.598831 0.454782 0.206170 -0.267821
C6    C     C_R   0.606327 0.485202 0.124666 0.514770
C7    C     C_R   0.548299 0.597364 0.102122 0.060276
C8    C     C_2   0.411761 0.601989 0.988035 0.423123
C9    C     C_2   0.530146 0.620287 0.018064 -0.304260
C10   C     C_R   0.532561 0.533925 0.263170 -0.080104
C11   C     C_2   0.611241 0.067713 0.502405 -0.153091
C12   C     C_R   0.480714 0.501223 0.652877 0.844679
C13   C     C_2   0.500897 0.130904 0.491271 -0.313642
C14   C     C_2   0.612565 0.933667 0.497759 -0.137985
C15   C     C_2   0.499553 0.868683 0.510028 -0.325772
C16   C     C_2   0.073200 0.400516 0.506180 -0.048308
C17   C     C_2   0.928661 0.401665 0.490321 -0.043565
C18   C     C_R   0.500001 0.262802 0.498333 0.913353
C19   C     C_R   0.519108 0.502449 0.347187 0.870714
C20   C     C_R   0.464799 0.524606 0.738373 -0.010487
C21   C     C_R   0.508912 0.638455 0.767841 -0.113941
C22   C     C_R   0.482899 0.668184 0.848875 -0.203932
C23   C     C_R   0.414543 0.583044 0.900964 0.076647
C24   C     C_R   0.368204 0.469964 0.870726 0.002909
H1    H     H_    0.561027 0.705075 0.727941 0.162603
H2    H     H_    0.703526 0.114436 0.514166 0.177647
H3    H     H_    0.410098 0.087095 0.474590 0.157317
H4    H     H_    0.708302 0.888527 0.484740 0.213626
H5    H     H_    0.404064 0.910996 0.527987 0.166023
H6    H     H_    0.114041 0.568213 0.464799 0.238276
H7    H     H_    0.885500 0.314406 0.471748 0.106272
H8    H     H_    0.436169 0.711748 0.285654 0.154783
H9    H     H_    0.639631 0.368106 0.225197 0.184671
H10   H     H_    0.620346 0.628668 0.977459 0.188583
H11   H     H_    0.318810 0.401625 0.910529 0.201917
H12   H     H_    0.453002 0.769016 0.143299 0.190659
H13   H     H_    0.354798 0.354651 0.765866 0.149460
H14   H     H_    0.519489 0.755642 0.871592 0.153634
N1    N     N_2   0.147950 0.498670 0.499150 -0.138786
N2    N     N_2   0.852290 0.498640 0.499130 0.064676
O1    O     O_R   0.386960 0.680940 0.500010 -0.608915
O2    O     O_R   0.613100 0.680900 0.499990 -0.549963
O3    O     O_R   0.373570 0.500040 0.615810 -0.588574
O4    O     O_R   0.599710 0.500000 0.615790 -0.544411
O5    O     O_R   0.386900 0.319100 0.500010 -0.628744
O6    O     O_R   0.613040 0.319060 0.499990 -0.637411
O7    O     O_R   0.400290 0.500000 0.384210 -0.604998
O8    O     O_R   0.626430 0.499960 0.384190 -0.616940
Zn1   Zn    Zn3+2 0.349000 0.500030 0.500020 1.012562
Zn2   Zn    Zn3+2 0.651000 0.499970 0.499980 1.065343
S1    S     S_3+6 0.679690 0.378761 0.052083 0.036732
O9    O     O_2   0.788642 0.443776 0.000703 -0.305688
O10   O     O_2   0.736914 0.269413 0.092245 -0.266541
O11   O     O_3   0.562839 0.328012 0.993511 -0.550325
H15   H     H_    0.612825 0.286563 0.946847 0.385602
H16   H     H_    0.116227 0.313296 0.522655 0.144966
S2    S     S_3+6 0.896541 0.622091 0.561945 0.116461
O12   O     O_2   0.987162 0.579731 0.622982 -0.277035
O13   O     O_2   0.963231 0.723691 0.511340 -0.343629
O14   O     O_3   0.763652 0.685229 0.614625 -0.515084
H17   H     H_    0.798079 0.760364 0.641059 0.360528
S3    S     S_3+6 0.260724 0.573577 0.049208 0.047366
O15   O     O_2   0.278051 0.464276 0.102714 -0.262639
O16   O     O_2   0.224804 0.686500 0.100448 -0.290500
O17   O     O_3   0.136238 0.543089 0.991119 -0.526576
H18   H     H_    0.057492 0.526400 0.029576 0.417416

loop_
_geom_bond_atom_site_label_1
_geom_bond_atom_site_label_2
_ccdc_geom_bond_type
C8    C9    D    
C23   C24   A    
C16   H16   S    
C6    C7    A    
C1    C15   S    
C6    S1    S    
O6    Zn2   S    
C13   H3    S    
C14   C15   D    
O5    Zn1   S    
C10   C19   S    
S1    O11   S    
C12   C20   S    
S3    O15   D    
O8    Zn2   S    
C5    C10   A    
C12   O4    A    
C21   C22   A    
C11   C13   D    
C2    H13   S    
S2    O12   D    
C4    H8    S    
C3    H12   S    
O2    Zn2   S    
N2    Zn2   S    
C5    C6    A    
C13   C18   S    
O1    Zn1   S    
N1    Zn1   S    
H6    N1    S    
C15   H5    S    
C12   O3    A    
C3    C7    A    
C2    C24   A    
C9    H10   S    
C17   H7    S    
C11   C14   S    
C19   O7    A    
S2    O13   D    
C24   H11   S    
C16   N1    D    
C2    C20   A    
C3    C4    A    
C22   H14   S    
C18   O5    A    
C18   O6    A    
C1    O2    A    
C8    C23   S    
S1    O9    D    
C20   C21   A    
O7    Zn1   S    
O17   H18   S    
C11   H2    S    
O4    Zn2   S    
C7    C9    S    
C21   H1    S    
C22   C23   A    
O14   H17   S    
S2    O14   S    
S3    O16   D    
N2    S2    S    
C19   O8    A    
S3    O17   S    
C14   H4    S    
O11   H15   S    
C4    C10   A    
O3    Zn1   S    
C1    O1    A    
C8    S3    S    
C16   C17   S    
S1    O10   D    
C17   N2    D    
C5    H9    S    
