data_mof_unit_1169.cif
_audit_creation_date              2012-10-26T20:37:59-0400
_audit_creation_method            fapswitch 2.2
_symmetry_space_group_name_H-M    P1
_symmetry_Int_Tables_number       1
_space_group_crystal_system       triclinic
_cell_length_a                    9.886163
_cell_length_b                    11.048269
_cell_length_c                    12.999593
_cell_angle_alpha                 90.651663
_cell_angle_beta                  75.166031
_cell_angle_gamma                 111.313865
_cell_volume                      1273.40903678

loop_
_atom_site_label
_atom_site_type_symbol
_atom_type_description
_atom_site_fract_x
_atom_site_fract_y
_atom_site_fract_z
_atom_type_partial_charge
C1    C     C_R   0.439491 0.253911 0.507744 0.561113
C2    C     C_R   0.695434 0.523479 0.001236 -0.139310
C3    C     C_R   0.318346 0.477492 0.889684 -0.136060
C4    C     C_R   0.681654 0.522508 0.110316 -0.136060
C5    C     C_R   0.583053 0.509030 0.854771 -0.131474
C6    C     C_R   0.416947 0.490970 0.145229 -0.131474
C7    C     C_R   0.570162 0.508170 0.963728 0.048180
C8    C     C_R   0.429838 0.491830 0.036272 0.048180
C9    C     C_2   0.405460 0.114323 0.511899 -0.130127
C10   C     C_2   0.594540 0.885677 0.488101 -0.130127
C11   C     C_2   0.516673 0.069643 0.498152 -0.161510
C12   C     C_R   0.560509 0.746089 0.492256 0.561113
C13   C     C_2   0.483327 0.930357 0.501848 -0.161510
C14   C     C_3   0.974274 0.655618 0.369721 -0.223286
C15   C     C_3   0.025726 0.344382 0.630279 -0.223286
C16   C     C_2   0.082574 0.510023 0.491813 0.013598
C17   C     C_2   0.917426 0.489976 0.508187 0.013598
C18   C     C_R   0.473029 0.495853 0.702799 0.549691
C19   C     C_R   0.526971 0.504147 0.297201 0.549692
C20   C     C_R   0.542388 0.506087 0.182672 0.000572
C21   C     C_R   0.457612 0.493913 0.817328 0.000572
C22   C     C_R   0.304566 0.476521 0.998764 -0.139310
Cu1   Cu    Cu3+1 0.647370 0.522180 0.481340 0.927257
Cu2   Cu    Cu3+1 0.352630 0.477820 0.518660 0.927257
H1    H     H_    0.309113 0.478501 0.200627 0.118817
H2    H     H_    0.288838 0.047638 0.526137 0.098831
H3    H     H_    0.832841 0.416571 0.569525 0.132853
H4    H     H_    0.167158 0.583428 0.430474 0.132853
H5    H     H_    0.911633 0.699515 0.332614 0.163700
H6    H     H_    0.053333 0.734463 0.403538 0.090132
H7    H     H_    0.037240 0.612737 0.306244 0.084332
H8    H     H_    0.088367 0.300485 0.667386 0.163700
H9    H     H_    0.962759 0.387263 0.693756 0.084331
H10   H     H_    0.946667 0.265537 0.596462 0.090132
H11   H     H_    0.690887 0.521499 0.799373 0.118817
H12   H     H_    0.779863 0.534317 0.137889 0.128112
H13   H     H_    0.220137 0.465683 0.862111 0.128112
H14   H     H_    0.196389 0.463925 0.053599 0.101330
H15   H     H_    0.803611 0.536075 0.946401 0.101330
H16   H     H_    0.366526 0.863945 0.515998 0.154241
H17   H     H_    0.633474 0.136054 0.484002 0.154241
H18   H     H_    0.711162 0.952362 0.473863 0.098831
N1    N     N_2   0.131210 0.444490 0.546730 -0.242148
N2    N     N_2   0.868790 0.555510 0.453270 -0.242148
O1    O     O_R   0.578710 0.332530 0.490040 -0.499659
O2    O     O_R   0.421290 0.667470 0.509960 -0.499659
O3    O     O_R   0.329810 0.295070 0.521560 -0.497133
O4    O     O_R   0.670190 0.704930 0.478440 -0.497133
O5    O     O_R   0.604230 0.515670 0.637800 -0.506807
O6    O     O_R   0.395770 0.484330 0.362200 -0.506808
O7    O     O_R   0.355330 0.478200 0.669330 -0.505247
O8    O     O_R   0.644670 0.521800 0.330670 -0.505246

loop_
_geom_bond_atom_site_label_1
_geom_bond_atom_site_label_2
_ccdc_geom_bond_type
C16   H4    S    
C8    C22   A    
Cu1   Cu2   S    
C4    H12   S    
Cu1   O1    S    
C9    H2    S    
C10   H18   S    
C18   C21   S    
C11   C13   S    
C2    H15   S    
C15   H10   S    
C2    C4    A    
C19   C20   S    
C16   N1    D    
C17   H3    S    
C14   H7    S    
C12   O4    A    
Cu2   O2    S    
Cu2   O7    S    
C17   N2    D    
C15   N1    S    
C15   H8    S    
C9    C11   D    
C19   O6    A    
C1    O1    A    
Cu1   O8    S    
C10   C12   S    
C6    C20   A    
C14   H6    S    
C5    H11   S    
C12   O2    A    
C18   O7    A    
C11   H17   S    
Cu2   O6    S    
Cu1   O5    S    
C6    H1    S    
C3    C21   A    
C14   H5    S    
C4    C20   A    
C1    C9    S    
C7    C8    A    
C5    C21   A    
C3    H13   S    
C14   N2    S    
C5    C7    A    
Cu2   N1    S    
C1    O3    A    
C13   H16   S    
C6    C8    A    
Cu1   O4    S    
Cu2   O3    S    
C19   O8    A    
C15   H9    S    
Cu1   N2    S    
C2    C7    A    
C18   O5    A    
C16   C17   S    
C3    C22   A    
C10   C13   D    
C22   H14   S    
