data_mof_unit_2750.cif
_audit_creation_date              2012-12-10T17:15:51-0500
_audit_creation_method            fapswitch 2.2
_symmetry_space_group_name_H-M    P1
_symmetry_Int_Tables_number       1
_space_group_crystal_system       triclinic
_cell_length_a                    10.197626
_cell_length_b                    10.644206
_cell_length_c                    10.758191
_cell_angle_alpha                 90.400484
_cell_angle_beta                  95.099534
_cell_angle_gamma                 81.729841
_cell_volume                      1151.01692049

loop_
_atom_site_label
_atom_site_type_symbol
_atom_type_description
_atom_site_fract_x
_atom_site_fract_y
_atom_site_fract_z
_atom_type_partial_charge
C1    C     C_R   0.444540 0.501225 0.267432 1.033521
C2    C     C_R   0.523954 0.063862 0.378551 -0.052161
C3    C     C_R   0.495444 0.129066 0.489740 -0.187992
C4    C     C_R   0.464501 0.068277 0.595014 0.649246
C5    C     C_R   0.465914 0.939724 0.592980 -0.283449
C6    C     C_R   0.498042 0.871948 0.486117 -0.169731
C7    C     C_2   0.414046 0.488232 0.134791 -0.459836
C8    C     C_2   0.509482 0.435562 0.065071 0.629431
C9    C     C_2   0.585795 0.462937 0.864401 -0.282601
C10   C     C_2   0.486366 0.445597 0.932118 -0.203625
C11   C     C_2   0.070239 0.509327 0.472917 -0.001138
C12   C     C_R   0.499037 0.260845 0.498719 0.922264
C13   C     C_2   0.925642 0.523347 0.496249 0.002804
C14   C     C_R   0.555454 0.487221 0.732605 0.912906
C15   C     C_R   0.499221 0.739347 0.494350 0.985887
C16   C     C_R   0.547388 0.128002 0.269700 -0.138840
C17   C     C_R   0.573630 0.061792 0.160684 -0.179919
C18   C     C_R   0.575181 0.931234 0.157394 -0.190607
C19   C     C_R   0.550515 0.866051 0.262960 0.632896
C20   C     C_R   0.525476 0.931672 0.375928 -0.013845
H1    H     H_    0.315474 0.526332 0.092897 0.123194
H2    H     H_    0.103592 0.463884 0.388546 0.179731
H3    H     H_    0.127050 0.587593 0.634586 0.189499
H4    H     H_    0.543764 0.229726 0.267157 0.171415
H5    H     H_    0.591274 0.112156 0.078088 0.209469
H6    H     H_    0.593961 0.880200 0.071885 0.175111
H7    H     H_    0.444087 0.892143 0.675985 0.173003
H8    H     H_    0.384310 0.450195 0.891104 0.163882
H9    H     H_    0.687425 0.459677 0.905874 0.195228
N1    N     N_2   0.157290 0.551390 0.551110 -0.191872
N2    N     N_2   0.842740 0.448550 0.448960 -0.202310
O1    O     O_R   0.568950 0.489660 0.307530 -0.523496
O2    O     O_R   0.348880 0.522640 0.340350 -0.636955
O3    O     O_R   0.610060 0.300270 0.483590 -0.648015
O4    O     O_R   0.389990 0.333260 0.516410 -0.573296
O5    O     O_R   0.651120 0.477360 0.659650 -0.652638
O6    O     O_R   0.431050 0.510340 0.692470 -0.604385
O7    O     O_R   0.610010 0.666740 0.483590 -0.598695
O8    O     O_R   0.389940 0.699730 0.516410 -0.603714
Zn1   Zn    Zn3+2 0.646940 0.477980 0.478090 0.996703
Zn2   Zn    Zn3+2 0.353060 0.522020 0.521910 1.004169
F1    F     F_    0.436819 0.133376 0.700940 -0.658898
C21   C     C_2   0.874954 0.632566 0.572995 0.440675
H10   H     H_    0.805110 0.622976 0.640729 0.100944
O9    O     O_2   0.912199 0.735557 0.561406 -0.562624
C22   C     C_2   0.886025 0.335195 0.383323 0.560466
H11   H     H_    0.815985 0.297874 0.316204 0.122404
O10   O     O_2   0.995937 0.273673 0.407639 -0.593559
F2    F     F_    0.548138 0.740030 0.251061 -0.682415
F3    F     F_    0.632897 0.383621 0.114959 -0.678231

loop_
_geom_bond_atom_site_label_1
_geom_bond_atom_site_label_2
_ccdc_geom_bond_type
C9    C14   S    
N1    Zn2   S    
C6    C20   A    
C9    C10   D    
C19   F2    S    
C11   H2    S    
C19   C20   A    
C18   H6    S    
C9    H9    S    
C21   H10   S    
O2    Zn2   S    
C13   C21   S    
C17   C18   A    
C17   H5    S    
C7    C8    D    
C16   H4    S    
C1    C7    S    
C12   O4    A    
O7    Zn1   S    
C21   O9    D    
C5    H7    S    
C15   O8    A    
C15   O7    A    
C4    F1    S    
O3    Zn1   S    
C8    C10   S    
C2    C3    A    
O1    Zn1   S    
O6    Zn2   S    
C5    C6    A    
O4    Zn2   S    
C22   O10   D    
C11   C13   S    
C1    O2    A    
C3    C4    A    
H3    N1    S    
C8    F3    S    
O5    Zn1   S    
C2    C16   A    
N2    Zn1   S    
O8    Zn2   S    
C18   C19   A    
C10   H8    S    
C2    C20   A    
C22   H11   S    
C16   C17   A    
C14   O5    A    
C3    C12   S    
C6    C15   S    
C7    H1    S    
C12   O3    A    
C13   N2    D    
C1    O1    A    
C11   N1    D    
C4    C5    A    
C14   O6    A    
N2    C22   S    
