data_mof_unit_3753.cif
_audit_creation_date              2012-12-10T19:32:22-0500
_audit_creation_method            fapswitch 2.2
_symmetry_space_group_name_H-M    P1
_symmetry_Int_Tables_number       1
_space_group_crystal_system       triclinic
_cell_length_a                    22.860848
_cell_length_b                    15.750622
_cell_length_c                    14.940537
_cell_angle_alpha                 88.774394
_cell_angle_beta                  88.404802
_cell_angle_gamma                 90.011679
_cell_volume                      5376.36076896

loop_
_atom_site_label
_atom_site_type_symbol
_atom_type_description
_atom_site_fract_x
_atom_site_fract_y
_atom_site_fract_z
_atom_type_partial_charge
C1    C     C_R   0.500279 0.337603 0.500912 0.903569
C2    C     C_R   0.695742 0.581631 0.430640 0.124005
C3    C     C_R   0.232729 0.431834 0.473349 0.236965
C4    C     C_R   0.755119 0.583450 0.404377 0.191459
C5    C     C_R   0.205675 0.512776 0.476899 0.132938
C6    C     C_R   0.794936 0.531325 0.450121 0.253805
C7    C     C_3   0.554310 0.969741 0.512286 0.165488
C8    C     C_3   0.446410 0.030536 0.486136 0.171338
C9    C     C_3   0.537254 0.030745 0.435205 0.157401
C10   C     C_3   0.463466 0.969633 0.563232 0.164895
C11   C     C_1   0.501188 0.249003 0.503109 -0.195629
C12   C     C_R   0.499290 0.662434 0.499099 0.882782
C13   C     C_1   0.498730 0.751112 0.496673 -0.203512
C14   C     C_3   0.518646 0.022883 0.580349 0.050880
C15   C     C_3   0.482075 0.977390 0.418093 0.049616
C16   C     C_R   0.388567 0.500412 0.501357 0.911958
C17   C     C_R   0.611670 0.502404 0.498573 0.895942
C18   C     C_3   0.501515 0.083282 0.503035 0.027131
C19   C     C_3   0.499170 0.916970 0.495480 0.027845
C20   C     C_1   0.501756 0.173945 0.504135 -0.031750
C21   C     C_1   0.498558 0.826217 0.495064 -0.028449
C22   C     C_3   0.505979 0.419006 0.972751 0.116515
C23   C     C_R   0.232465 0.572417 0.532661 0.205135
C24   C     C_3   0.495080 0.578939 0.027112 0.117803
C25   C     C_3   0.550665 0.466730 0.028902 0.220665
C26   C     C_3   0.450388 0.531135 0.971134 0.227646
C27   C     C_3   0.455271 0.452023 0.034046 -0.240916
C28   C     C_3   0.545821 0.545876 0.965907 -0.249511
C29   C     C_3   0.500486 0.500186 0.089758 -0.000001
C30   C     C_3   0.500537 0.497840 0.910192 0.003117
C31   C     C_1   0.500230 0.500204 0.189852 0.059863
C32   C     C_1   0.500254 0.498883 0.810127 0.051961
C33   C     C_R   0.885265 0.608768 0.454279 0.520714
C34   C     C_R   0.775699 0.475003 0.520060 0.185633
C35   C     C_R   0.128927 0.479791 0.367869 0.559496
C36   C     C_R   0.882832 0.477604 0.377647 0.506444
C37   C     C_R   0.128288 0.612169 0.429895 0.545729
C38   C     C_R   0.943895 0.481961 0.357446 -0.093023
C39   C     C_R   0.067220 0.620390 0.427305 -0.095130
C40   C     C_R   0.975044 0.550994 0.392614 -0.085527
C41   C     C_R   0.036431 0.551298 0.390620 -0.082728
C42   C     C_R   0.944642 0.619753 0.431238 -0.061553
C43   C     C_R   0.067798 0.482258 0.353219 -0.066024
C44   C     C_R   0.974907 0.420371 0.305389 0.098381
C45   C     C_R   0.293887 0.571535 0.538717 0.005501
C46   C     C_R   0.036135 0.692302 0.460396 0.108777
C47   C     C_R   0.037362 0.418626 0.306123 0.158215
C48   C     C_R   0.974910 0.695065 0.450979 0.187715
C49   C     C_3   0.942445 0.361609 0.243602 -0.339915
C50   C     C_3   0.929807 0.273955 0.287915 -0.291286
C51   C     C_3   0.893150 0.219144 0.227879 -0.868549
C52   C     C_3   0.063526 0.758116 0.520732 -0.390729
C53   C     C_3   0.046189 0.739974 0.619448 -0.366543
C54   C     C_3   0.075339 0.802307 0.681127 -0.877427
C55   C     C_3   0.608678 0.432426 0.061601 -0.925014
C56   C     C_R   0.714930 0.465895 0.539484 -0.005113
C57   C     C_3   0.392110 0.564846 0.939079 -0.932161
C58   C     C_3   0.511795 0.327997 0.939961 -0.419395
C59   C     C_3   0.503892 0.262771 0.017018 -0.324588
C60   C     C_3   0.512209 0.172545 0.984033 -0.897077
C61   C     C_3   0.489306 0.670122 0.059432 -0.411199
C62   C     C_3   0.496770 0.734988 0.981905 -0.328277
C63   C     C_3   0.488789 0.825421 0.014469 -0.896376
C64   C     C_3   0.071603 0.347982 0.260285 -0.822854
C65   C     C_3   0.943174 0.779654 0.454877 -0.816647
C66   C     C_3   0.195967 0.624696 0.597227 -0.854881
C67   C     C_R   0.324769 0.500748 0.504641 -0.168974
C68   C     C_3   0.819921 0.424018 0.572549 -0.858608
C69   C     C_3   0.325937 0.649195 0.572049 -0.362048
C70   C     C_3   0.339208 0.642773 0.672285 -0.319746
C71   C     C_3   0.372940 0.720700 0.701097 -0.892026
C72   C     C_3   0.692388 0.400809 0.609302 -0.377955
C73   C     C_3   0.682713 0.441481 0.701192 -0.288058
C74   C     C_3   0.648503 0.382493 0.765918 -0.900704
C75   C     C_3   0.327380 0.345568 0.462809 -0.878157
C76   C     C_3   0.654647 0.648165 0.392622 -0.826361
C77   C     C_3   0.196330 0.351473 0.480456 -0.851305
C78   C     C_R   0.675103 0.517967 0.492256 -0.171639
C79   C     C_3   0.775876 0.641070 0.327130 -0.865686
C80   C     C_3   0.580359 0.067688 0.365177 -0.896532
C81   C     C_3   0.420238 0.933477 0.633380 -0.918591
C82   C     C_3   0.615179 0.932238 0.522898 -0.907662
C83   C     C_3   0.385529 0.067994 0.475336 -0.915438
C84   C     C_3   0.463367 0.945520 0.327022 -0.385557
C85   C     C_3   0.440765 0.017359 0.266270 -0.324508
C86   C     C_3   0.435278 0.988320 0.170175 -0.906393
C87   C     C_3   0.537356 0.054552 0.671511 -0.387279
C88   C     C_3   0.560453 0.982669 0.731756 -0.323472
C89   C     C_R   0.294131 0.427326 0.479856 0.129554
C90   C     C_3   0.565506 0.011051 0.828147 -0.911024
H1    H     H_    0.583426 0.583589 0.938243 0.143541
H2    H     H_    0.123722 0.796652 0.675145 0.262277
H3    H     H_    0.498873 0.085225 0.704429 0.207713
H4    H     H_    0.062283 0.868437 0.663801 0.263405
H5    H     H_    0.061483 0.787967 0.751656 0.255261
H6    H     H_    0.998061 0.744595 0.629825 0.238498
H7    H     H_    0.059423 0.674404 0.638782 0.221914
H8    H     H_    0.111423 0.760756 0.516454 0.256899
H9    H     H_    0.049876 0.823280 0.501163 0.200239
H10   H     H_    0.634798 0.407293 0.004371 0.240324
H11   H     H_    0.633422 0.484290 0.092545 0.245712
H12   H     H_    0.600848 0.381084 0.112426 0.241134
H13   H     H_    0.417699 0.414204 0.061651 0.148308
H14   H     H_    0.365895 0.588990 0.996731 0.249876
H15   H     H_    0.399649 0.616706 0.889035 0.234624
H16   H     H_    0.367702 0.513049 0.907431 0.244027
H17   H     H_    0.479809 0.158481 0.932313 0.261534
H18   H     H_    0.557149 0.164627 0.955308 0.266867
H19   H     H_    0.505851 0.126649 0.040925 0.255786
H20   H     H_    0.536124 0.274500 0.069519 0.229155
H21   H     H_    0.459219 0.268317 0.047567 0.217963
H22   H     H_    0.477905 0.317249 0.889509 0.200374
H23   H     H_    0.555568 0.320487 0.906942 0.208578
H24   H     H_    0.850334 0.250002 0.215629 0.279095
H25   H     H_    0.444063 0.833594 0.043916 0.268093
H26   H     H_    0.521597 0.839725 0.065510 0.260963
H27   H     H_    0.494779 0.870997 0.957208 0.255648
H28   H     H_    0.541240 0.729205 0.950696 0.217259
H29   H     H_    0.464185 0.723100 0.929962 0.227344
H30   H     H_    0.445665 0.677632 0.092942 0.208357
H31   H     H_    0.523458 0.681222 0.109386 0.198385
H32   H     H_    0.045607 0.299468 0.227458 0.209032
H33   H     H_    0.100864 0.375677 0.206779 0.271915
H34   H     H_    0.097208 0.312101 0.310555 0.256952
H35   H     H_    0.916611 0.209252 0.162829 0.253215
H36   H     H_    0.969607 0.830081 0.420062 0.207523
H37   H     H_    0.901783 0.778317 0.417837 0.258404
H38   H     H_    0.933777 0.797677 0.525142 0.253542
H39   H     H_    0.200924 0.693669 0.582660 0.259505
H40   H     H_    0.149099 0.607093 0.596612 0.222589
H41   H     H_    0.209152 0.610769 0.666708 0.216843
H42   H     H_    0.816842 0.355912 0.555666 0.239385
H43   H     H_    0.865710 0.444537 0.558901 0.236800
H44   H     H_    0.811784 0.431480 0.645432 0.227910
H45   H     H_    0.415262 0.726066 0.663124 0.277526
H46   H     H_    0.885040 0.156304 0.261026 0.246956
H47   H     H_    0.346650 0.778937 0.689398 0.262643
H48   H     H_    0.381963 0.715576 0.773509 0.243400
H49   H     H_    0.298143 0.638523 0.713188 0.215586
H50   H     H_    0.365277 0.585221 0.687480 0.250521
H51   H     H_    0.367292 0.659303 0.532450 0.183029
H52   H     H_    0.299882 0.707428 0.559011 0.209013
H53   H     H_    0.604620 0.368727 0.739523 0.271993
H54   H     H_    0.672598 0.321969 0.776020 0.256856
H55   H     H_    0.642540 0.413554 0.831558 0.244696
H56   H     H_    0.725595 0.456201 0.730348 0.208904
H57   H     H_    0.971069 0.239901 0.302103 0.202306
H58   H     H_    0.658382 0.502185 0.694569 0.242862
H59   H     H_    0.651282 0.371401 0.586899 0.196552
H60   H     H_    0.722855 0.346464 0.616332 0.198263
H61   H     H_    0.359707 0.355512 0.406773 0.251350
H62   H     H_    0.350889 0.325941 0.523923 0.225419
H63   H     H_    0.299125 0.292108 0.444090 0.246319
H64   H     H_    0.615838 0.657631 0.437208 0.227721
H65   H     H_    0.676139 0.711302 0.387452 0.231098
H66   H     H_    0.640443 0.629423 0.325384 0.244433
H67   H     H_    0.149259 0.365267 0.493109 0.222786
H68   H     H_    0.906255 0.280692 0.353276 0.260954
H69   H     H_    0.201432 0.313639 0.418933 0.270706
H70   H     H_    0.210578 0.312201 0.538498 0.223316
H71   H     H_    0.776684 0.707975 0.348922 0.247775
H72   H     H_    0.820136 0.624649 0.300776 0.229362
H73   H     H_    0.746201 0.635395 0.269981 0.237244
H74   H     H_    0.596695 0.016525 0.321131 0.242315
H75   H     H_    0.558778 0.117463 0.324236 0.237731
H76   H     H_    0.617824 0.096626 0.399062 0.248141
H77   H     H_    0.403463 0.985197 0.676310 0.246003
H78   H     H_    0.383099 0.903779 0.599433 0.248519
H79   H     H_    0.901695 0.391745 0.220031 0.232305
H80   H     H_    0.441902 0.884737 0.675494 0.241710
H81   H     H_    0.646193 0.982993 0.540612 0.243340
H82   H     H_    0.614043 0.881987 0.576070 0.238336
H83   H     H_    0.630111 0.903587 0.459006 0.248999
H84   H     H_    0.354576 0.017227 0.457430 0.245353
H85   H     H_    0.370466 0.096547 0.539206 0.249232
H86   H     H_    0.386705 0.118329 0.422245 0.238353
H87   H     H_    0.479028 0.971680 0.141568 0.264920
H88   H     H_    0.405834 0.932336 0.168034 0.268033
H89   H     H_    0.416718 0.040482 0.128640 0.254432
H90   H     H_    0.967210 0.354471 0.179286 0.173670
H91   H     H_    0.396946 0.037924 0.291067 0.228679
H92   H     H_    0.470676 0.072801 0.266232 0.230084
H93   H     H_    0.501748 0.914291 0.294432 0.207244
H94   H     H_    0.428361 0.897137 0.337913 0.199668
H95   H     H_    0.594457 0.067528 0.830885 0.265375
H96   H     H_    0.521562 0.026668 0.856724 0.266272
H97   H     H_    0.584436 0.958916 0.869306 0.254295
H98   H     H_    0.531056 0.926676 0.731163 0.230291
H99   H     H_    0.604500 0.963112 0.706962 0.227375
H100  H     H_    0.572097 0.103359 0.660749 0.195357
N1    N     N_R   0.856144 0.538900 0.427354 -0.332717
N2    N     N_R   0.152322 0.533108 0.428376 -0.319121
N3    N     N_1   0.500020 0.500000 0.268010 -0.089712
N4    N     N_1   0.499980 0.500000 0.731990 -0.093982
O1    O     O_R   0.500000 0.376780 0.574460 -0.615223
O2    O     O_2   0.165000 0.429896 0.319614 -0.571209
O3    O     O_2   0.850198 0.411542 0.352581 -0.587305
O4    O     O_2   0.163592 0.680541 0.423806 -0.580500
O5    O     O_R   0.500000 0.623220 0.425540 -0.611935
O6    O     O_R   0.500010 0.376780 0.425520 -0.607077
O7    O     O_R   0.499990 0.623220 0.574480 -0.608046
O8    O     O_R   0.416150 0.499970 0.574490 -0.617989
O9    O     O_R   0.583850 0.500030 0.425510 -0.597629
O10   O     O_R   0.416160 0.499980 0.425550 -0.603418
O11   O     O_R   0.583840 0.500020 0.574450 -0.611105
O12   O     O_2   0.857111 0.664805 0.507304 -0.565857
Zn1   Zn    Zn3+2 0.499990 0.500000 0.599450 0.949947
Zn2   Zn    Zn3+2 0.500010 0.500000 0.400550 0.967114

loop_
_geom_bond_atom_site_label_1
_geom_bond_atom_site_label_2
_ccdc_geom_bond_type
C44   C49   S    
C50   H57   S    
C57   H15   S    
C87   C88   S    
C8    C10   S    
C70   H50   S    
C24   C61   S    
C23   C45   A    
C83   H85   S    
C27   C29   S    
C8    C83   S    
C73   C74   S    
C14   C18   S    
C74   H55   S    
C68   H44   S    
C1    C11   S    
C67   C89   A    
C74   H53   S    
C52   H9    S    
C81   H80   S    
C71   H47   S    
C53   C54   S    
C50   H68   S    
C25   C28   S    
C15   C19   S    
N4    Zn1   S    
C55   H12   S    
C62   H29   S    
C26   C27   S    
C85   H92   S    
C58   H22   S    
C33   C42   A    
C65   H37   S    
C23   C66   S    
C68   H43   S    
C1    O1    A    
C24   C26   S    
C14   C87   S    
C71   H45   S    
C63   H27   S    
C90   H97   S    
C69   H51   S    
C36   N1    A    
C46   C52   S    
C86   H88   S    
C59   H20   S    
C56   C78   A    
C61   H31   S    
C76   H64   S    
C68   H42   S    
C24   C29   S    
C80   H74   S    
C60   H19   S    
C81   H78   S    
C7    C14   S    
O10   Zn2   S    
C75   H61   S    
C56   C72   S    
C22   C25   S    
C55   H10   S    
C45   C67   A    
C58   H23   S    
C59   H21   S    
C70   C71   S    
C48   C65   S    
C35   C43   A    
C75   H62   S    
C60   H18   S    
C44   C47   A    
C34   C56   A    
C49   H90   S    
C63   H25   S    
C40   C42   A    
C57   H16   S    
C59   C60   S    
O6    Zn2   S    
N3    Zn2   S    
C83   H86   S    
C53   H6    S    
C41   C43   A    
C61   C62   S    
C79   H71   S    
C16   O8    A    
C80   H76   S    
C49   H79   S    
C27   H13   S    
C38   C44   A    
C71   H48   S    
C46   C48   A    
O11   Zn1   S    
C25   C29   S    
C88   H99   S    
C11   C20   T    
C3    C89   A    
C82   H82   S    
C33   O12   S    
C51   H24   S    
C62   H28   S    
C73   H58   S    
C45   C69   S    
C51   H35   S    
C65   H38   S    
C24   C28   S    
C84   H94   S    
C36   O3    S    
C4    C79   S    
C39   C41   A    
C10   C14   S    
C34   C68   S    
C47   C64   S    
C31   N3    T    
C90   H96   S    
C53   H7    S    
C69   H52   S    
C85   C86   S    
C76   H66   S    
C86   H87   S    
C8    C18   S    
C6    C34   A    
C9    C80   S    
C6    N1    S    
C2    C4    A    
C54   H2    S    
C62   C63   S    
C2    C78   A    
C37   O4    S    
C51   H46   S    
C75   H63   S    
C5    C23   A    
C82   H83   S    
C10   C19   S    
C37   N2    A    
C50   C51   S    
O7    Zn1   S    
C13   C21   T    
C16   C67   S    
C42   C48   A    
C12   O7    A    
C84   C85   S    
C81   H77   S    
C54   H5    S    
C60   H17   S    
C35   O2    S    
C77   H69   S    
C87   H100  S    
C63   H26   S    
C4    C6    A    
C40   C41   A    
C88   C90   S    
C26   C30   S    
C8    C15   S    
C7    C19   S    
O8    Zn1   S    
C39   C46   A    
C61   H30   S    
C49   C50   S    
C64   H34   S    
C1    O6    A    
C79   H72   S    
C36   C38   A    
C3    C77   S    
C80   H75   S    
C2    C76   S    
C52   C53   S    
C66   H41   S    
C7    C9    S    
C57   H14   S    
C74   H54   S    
C82   H81   S    
C85   H91   S    
C76   H65   S    
C17   O9    A    
C84   H93   S    
C25   C55   S    
C5    N2    S    
C79   H73   S    
C72   C73   S    
C3    C5    A    
C22   C58   S    
C15   C84   S    
C90   H95   S    
C64   H33   S    
O9    Zn2   S    
C55   H11   S    
C10   C81   S    
C72   H60   S    
C33   N1    A    
C73   H56   S    
C22   C27   S    
C17   C78   S    
C65   H36   S    
C66   H39   S    
C32   N4    T    
C17   O11   A    
C58   C59   S    
C28   C30   S    
C29   C31   S    
C22   C30   S    
C30   C32   S    
O5    Zn2   S    
C38   C40   A    
C35   N2    A    
C64   H32   S    
C87   H3    S    
C52   H8    S    
C86   H89   S    
C12   O5    A    
C28   H1    S    
C18   C20   S    
C9    C15   S    
C69   C70   S    
C26   C57   S    
C54   H4    S    
C75   C89   S    
C77   H70   S    
C9    C18   S    
C88   H98   S    
C7    C82   S    
O1    Zn1   S    
C12   C13   S    
C37   C39   A    
C72   H59   S    
C83   H84   S    
C66   H40   S    
C16   O10   A    
C43   C47   A    
C77   H67   S    
C19   C21   S    
C70   H49   S    
