data_mof_unit_4572.cif
_audit_creation_date              2013-03-05T15:49:54-0500
_audit_creation_method            fapswitch 2.2
_symmetry_space_group_name_H-M    P1
_symmetry_Int_Tables_number       1
_space_group_crystal_system       triclinic
_cell_length_a                    27.8025
_cell_length_b                    12.984537
_cell_length_c                    11.672994
_cell_angle_alpha                 99.69607
_cell_angle_beta                  93.488498
_cell_angle_gamma                 90.361474
_cell_volume                      4145.50052402

loop_
_atom_site_label
_atom_site_type_symbol
_atom_site_description
_atom_site_fract_x
_atom_site_fract_y
_atom_site_fract_z
_atom_type_partial_charge
O1    O     O_R   0.502540 0.354460 0.582000 -0.576338
O2    O     O_R   0.497460 0.645540 0.418000 -0.584909
O3    O     O_R   0.496500 0.341410 0.386200 -0.581773
O4    O     O_R   0.503500 0.658590 0.613800 -0.583373
C1    C     C_R   0.500371 0.299740 0.478814 0.800775
C2    C     C_R   0.499914 0.700404 0.520969 0.804599
O5    O     O_R   0.433290 0.506540 0.597890 -0.585526
O6    O     O_R   0.566710 0.493460 0.402110 -0.575633
O7    O     O_R   0.427240 0.493490 0.402090 -0.597394
O8    O     O_R   0.572760 0.506510 0.597910 -0.594379
C3    C     C_R   0.407439 0.500638 0.500650 0.794861
C4    C     C_R   0.592551 0.499188 0.499332 0.797636
Cu1   Cu    Cu3+1 0.503580 0.507730 0.615930 0.945908
Cu2   Cu    Cu3+1 0.496420 0.492270 0.384070 0.940253
C5    C     C_R   0.178490 0.418598 0.515871 0.530238
C6    C     C_R   0.821640 0.581414 0.504978 0.535721
O9    O     O_2   0.203717 0.331985 0.527352 -0.544934
O10   O     O_2   0.796819 0.671229 0.514880 -0.540314
N1    N     N_R   0.202170 0.508151 0.504863 -0.460598
N2    N     N_R   0.797555 0.488471 0.494717 -0.460788
C7    C     C_R   0.178133 0.597611 0.492711 0.519998
C8    C     C_R   0.821014 0.395517 0.484378 0.521191
C9    C     C_R   0.281810 0.504630 0.607457 -0.106288
C10   C     C_R   0.724114 0.506301 0.601717 -0.116601
C11   C     C_R   0.331934 0.502438 0.606495 -0.207194
C12   C     C_R   0.674062 0.509868 0.602987 -0.241276
C13   C     C_R   0.326141 0.506071 0.398913 -0.230924
C14   C     C_R   0.667748 0.478529 0.391602 -0.189387
C15   C     C_R   0.276066 0.508573 0.400216 -0.106228
C16   C     C_R   0.717843 0.474814 0.390650 -0.104238
C17   C     C_R   0.253756 0.507663 0.504352 0.370624
C18   C     C_R   0.746068 0.488905 0.495652 0.372421
C19   C     C_R   0.101930 0.506247 0.501068 -0.062806
C20   C     C_R   0.897634 0.489887 0.494809 -0.063023
C21   C     C_R   0.128228 0.415748 0.514073 -0.006651
C22   C     C_R   0.871841 0.584069 0.505037 -0.008555
C23   C     C_R   0.104048 0.323887 0.525917 -0.154985
C24   C     C_R   0.896503 0.679647 0.516786 -0.154142
C25   C     C_R   0.126829 0.600030 0.490682 -0.066720
C26   C     C_R   0.872283 0.392819 0.484438 -0.065758
C27   C     C_R   0.354547 0.502885 0.502076 -0.039657
C28   C     C_R   0.645412 0.496198 0.497874 -0.052296
H1    H     H_    0.342544 0.506712 0.317232 0.151232
H2    H     H_    0.646581 0.467484 0.309329 0.181276
H3    H     H_    0.254509 0.510597 0.320202 0.135755
H4    H     H_    0.734797 0.461699 0.308470 0.140138
H5    H     H_    0.123629 0.254500 0.539095 0.183718
H6    H     H_    0.877431 0.752840 0.527870 0.183238
C29   C     C_R   0.975110 0.401070 0.492188 0.002197
C30   C     C_R   0.024211 0.593259 0.492395 0.002303
C31   C     C_R   0.973349 0.590987 0.500353 0.060724
C32   C     C_R   0.026375 0.406376 0.503446 0.060537
C33   C     C_R   0.948788 0.493828 0.495677 0.069957
C34   C     C_R   0.050746 0.502092 0.498940 0.069655
C35   C     C_R   0.949597 0.305135 0.475842 -0.202894
C36   C     C_R   0.049044 0.684123 0.476432 -0.202668
C37   C     C_R   0.899018 0.298265 0.473570 0.092281
C38   C     C_R   0.099578 0.690833 0.477356 0.090855
O11   O     O_2   0.794275 0.307239 0.474497 -0.579894
O12   O     O_2   0.204365 0.682955 0.483122 -0.572017
C39   C     C_R   0.054216 0.319223 0.521316 -0.219924
C40   C     C_R   0.946192 0.683305 0.515129 -0.219234
H7    H     H_    0.657864 0.523477 0.686153 0.164700
H8    H     H_    0.352901 0.499968 0.687252 0.158357
H9    H     H_    0.745918 0.517492 0.683057 0.138448
H10   H     H_    0.264701 0.503867 0.688209 0.137286
H11   H     H_    0.969251 0.234056 0.460233 0.135770
H12   H     H_    0.028705 0.749913 0.458503 0.135973
H13   H     H_    0.038611 0.246691 0.535934 0.134414
H14   H     H_    0.962388 0.760432 0.529678 0.133962
C41   C     C_R   0.501989 0.813122 0.531433 -0.063150
C42   C     C_R   0.498018 0.187294 0.467212 -0.053887
C43   C     C_R   0.450937 0.031423 0.394924 -0.210222
C44   C     C_R   0.548076 0.970093 0.605473 -0.206178
C45   C     C_R   0.459358 0.136623 0.398721 -0.216182
C46   C     C_R   0.538790 0.865639 0.605095 -0.222100
C47   C     C_R   0.530977 0.131986 0.529676 0.045111
C48   C     C_R   0.471139 0.866471 0.461314 0.022579
C49   C     C_R   0.520325 0.025606 0.532554 0.133017
C50   C     C_R   0.480403 0.974073 0.462452 0.125494
H15   H     H_    0.562087 0.824187 0.659130 0.151969
H16   H     H_    0.434524 0.179699 0.350048 0.151819
H17   H     H_    0.420170 0.997577 0.340574 0.150869
H18   H     H_    0.577645 0.005615 0.663128 0.154061
N3    N     N_R   0.508960 0.519350 0.790140 -0.193413
N4    N     N_R   0.491040 0.480650 0.209860 -0.191195
C51   C     C_R   0.455020 0.398555 0.023375 -0.101768
C52   C     C_R   0.548753 0.592842 0.975587 -0.102409
C53   C     C_R   0.458995 0.411397 0.145775 -0.010872
C54   C     C_R   0.542429 0.585367 0.853861 -0.005212
C55   C     C_R   0.520166 0.540565 0.156810 0.050883
C56   C     C_R   0.480050 0.458920 0.843144 0.057490
C57   C     C_R   0.518462 0.532006 0.033529 0.010658
C58   C     C_R   0.484319 0.461642 0.965700 0.007336
H19   H     H_    0.453294 0.410230 0.788482 0.183390
H20   H     H_    0.543885 0.596144 0.212363 0.180150
H21   H     H_    0.565206 0.631287 0.808910 0.121824
H22   H     H_    0.436869 0.364038 0.190582 0.123741
C59   C     C_2   0.420627 0.316664 0.962302 0.312300
H23   H     H_    0.389003 0.297504 0.005225 0.072436
O13   O     O_2   0.428456 0.265195 0.867993 -0.540209
C60   C     C_2   0.588175 0.663271 0.035229 0.306081
H24   H     H_    0.598428 0.731117 0.998595 0.075853
O14   O     O_2   0.611641 0.643449 0.120376 -0.549873
C61   C     C_3   0.874033 0.190808 0.460322 -0.319347
C62   C     C_3   0.906432 0.094260 0.450596 -0.439483
C63   C     C_3   0.876571 0.993752 0.441557 -0.797354
H25   H     H_    0.855971 0.995389 0.520438 0.260105
H26   H     H_    0.851083 0.983927 0.363290 0.263222
H27   H     H_    0.900868 0.925694 0.434096 0.235382
H28   H     H_    0.927205 0.088494 0.371387 0.227019
H29   H     H_    0.931779 0.100518 0.529000 0.224822
H30   H     H_    0.852824 0.190023 0.537888 0.237522
H31   H     H_    0.849398 0.180465 0.380426 0.234853
C64   C     C_3   0.123970 0.794377 0.464821 -0.317167
C65   C     C_3   0.091087 0.887685 0.453384 -0.440451
C66   C     C_3   0.120563 0.985796 0.446170 -0.796287
H32   H     H_    0.144517 0.008249 0.526335 0.261703
H33   H     H_    0.142773 0.972201 0.369258 0.262137
H34   H     H_    0.095898 0.051365 0.437414 0.235145
H35   H     H_    0.066944 0.869292 0.372883 0.226633
H36   H     H_    0.069019 0.904873 0.530443 0.225088
H37   H     H_    0.148611 0.819077 0.543419 0.239879
H38   H     H_    0.145100 0.780474 0.385981 0.233818
C67   C     C_3   0.428536 0.808618 0.388409 -0.392211
C68   C     C_3   0.439697 0.778835 0.259551 -0.311967
C69   C     C_3   0.402320 0.701290 0.192495 -0.829359
H39   H     H_    0.402510 0.627763 0.229258 0.263614
H40   H     H_    0.365796 0.735340 0.196909 0.253485
H41   H     H_    0.411084 0.682393 0.099812 0.237278
H42   H     H_    0.440311 0.849379 0.217626 0.206592
H43   H     H_    0.475800 0.743212 0.252115 0.235620
H44   H     H_    0.418620 0.737250 0.422893 0.202624
H45   H     H_    0.395418 0.855836 0.397113 0.187568
C70   C     C_3   0.578205 0.184290 0.585801 -0.418954
C71   C     C_3   0.621406 0.141563 0.517523 -0.387461
C72   C     C_3   0.668500 0.194534 0.571879 -0.771255
H46   H     H_    0.667257 0.279929 0.571590 0.261587
H47   H     H_    0.674911 0.180594 0.662831 0.248984
H48   H     H_    0.698971 0.162033 0.520754 0.265559
H49   H     H_    0.624508 0.056036 0.514864 0.233625
H50   H     H_    0.616159 0.155953 0.426371 0.230477
H51   H     H_    0.578688 0.269751 0.587870 0.215579
H52   H     H_    0.582967 0.174904 0.678537 0.203301

loop_
_geom_bond_atom_site_label_1
_geom_bond_atom_site_label_2
_geom_bond_distance
_ccdc_geom_bond_type
C67   H45   1.109750 S    
C37   C61   1.534685 S    
C57   C58   1.420096 A    
C13   C15   1.393750 A    
C43   C45   1.377308 A    
C61   C62   1.540986 S    
C12   H7    1.083011 S    
N1    C17   1.434631 S    
C69   H40   1.110691 S    
C70   C71   1.536759 S    
C62   H29   1.112010 S    
O5    C3    1.296763 A    
C72   H47   1.110773 S    
C42   C47   1.410845 A    
C44   C46   1.378266 A    
O1    C1    1.289035 A    
C9    H10   1.082832 S    
C61   H30   1.111586 S    
C21   C23   1.396601 A    
C10   C12   1.393536 A    
C1    C42   1.444121 S    
C32   C39   1.412151 A    
C66   H33   1.110822 S    
C44   H18   1.079273 S    
N2    C18   1.432196 S    
C41   C46   1.392065 A    
C48   C50   1.416814 A    
C62   C63   1.527373 S    
C39   H13   1.078112 S    
C64   C65   1.541144 S    
C51   C58   1.425454 A    
C65   C66   1.527399 S    
C40   H14   1.078070 S    
C14   C28   1.406000 A    
O4    Cu1   1.963201 S    
C71   H50   1.112097 S    
C55   H20   1.077257 S    
C4    C28   1.471474 S    
C63   H25   1.110873 S    
C26   C37   1.430535 A    
C23   H5    1.083714 S    
C54   H21   1.083010 S    
C24   H6    1.083700 S    
C6    N2    1.360337 A    
C70   H51   1.105843 S    
Cu1   Cu2   2.675068 S    
C63   H26   1.110823 S    
O2    C2    1.287570 A    
C31   C40   1.412208 A    
C42   C45   1.391644 A    
C5    C21   1.396455 A    
N3    C56   1.364050 A    
C32   C34   1.422053 A    
C51   C59   1.483938 S    
C62   H28   1.111871 S    
C47   C49   1.417213 A    
C2    C41   1.448525 S    
N4    C53   1.357996 A    
C72   H48   1.110468 S    
C64   H37   1.111569 S    
C65   H35   1.111865 S    
C61   H31   1.111680 S    
Cu2   N4    2.009932 S    
C7    O12   1.346817 S    
O4    C2    1.290210 A    
C66   H34   1.110716 S    
C11   C27   1.405909 A    
C8    O11   1.346903 S    
C52   C60   1.484027 S    
C29   C35   1.408392 A    
C25   C38   1.430748 A    
C14   H2    1.083025 S    
C56   H19   1.077312 S    
C30   C36   1.408129 A    
C15   H3    1.082869 S    
C31   C33   1.422041 A    
C11   H8    1.083065 S    
C9    C17   1.400199 A    
C5    N1    1.361265 A    
O7    Cu2   1.947402 S    
C10   C18   1.398557 A    
C71   H49   1.109771 S    
C55   C57   1.422407 A    
C13   C27   1.406065 A    
C23   C39   1.383778 A    
C59   H23   1.085716 S    
C7    C25   1.425764 A    
C68   H43   1.109928 S    
O6    C4    1.296654 A    
C29   C32   1.423517 A    
C8    C26   1.426016 A    
C56   C58   1.422733 A    
C30   C31   1.423232 A    
C19   C25   1.423406 A    
C60   O14   1.220298 D    
O7    C3    1.295018 A    
O3    Cu2   1.963201 S    
O8    C4    1.294909 A    
C10   H9    1.082803 S    
C70   H52   1.109680 S    
C59   O13   1.220285 D    
C52   C54   1.407921 A    
C44   C49   1.404672 A    
C35   C37   1.406839 A    
C67   C68   1.539705 S    
C63   H27   1.110681 S    
C20   C26   1.423718 A    
O1    Cu1   1.962328 S    
C69   H39   1.110608 S    
C30   C34   1.409246 A    
C12   C28   1.406192 A    
C65   H36   1.112023 S    
C67   H44   1.110266 S    
C19   C34   1.422286 A    
C5    O9    1.350531 S    
C52   C57   1.425336 A    
O6    Cu2   1.952450 S    
C64   H38   1.111669 S    
N1    C7    1.367411 A    
C16   H4    1.082789 S    
N2    C8    1.366447 A    
C71   C72   1.526616 S    
O3    C1    1.287119 A    
O8    Cu1   1.947402 S    
C46   H15   1.084492 S    
C35   H11   1.070246 S    
N3    C54   1.358262 A    
C45   H16   1.084673 S    
C72   H46   1.110143 S    
C53   H22   1.082976 S    
N4    C55   1.363753 A    
C51   C53   1.407733 A    
C69   H41   1.110625 S    
C15   C17   1.399658 A    
C36   H12   1.070143 S    
C66   H32   1.110862 S    
C6    C22   1.395877 A    
C22   C24   1.396284 A    
C16   C18   1.399006 A    
C38   C64   1.534852 S    
C68   H42   1.109331 S    
C68   C69   1.526020 S    
C29   C33   1.409288 A    
C14   C16   1.394555 A    
C19   C21   1.412743 A    
C43   C50   1.404933 A    
C36   C38   1.406397 A    
C3    C27   1.472038 S    
C20   C22   1.412904 A    
C9    C11   1.394729 A    
C60   H24   1.085702 S    
O2    Cu2   1.962327 S    
C49   C50   1.430023 A    
C13   H1    1.082902 S    
O5    Cu1   1.952455 S    
C20   C33   1.422160 A    
C6    O10   1.350590 S    
Cu1   N3    2.009929 S    
C47   C70   1.532560 S    
C48   C67   1.530455 S    
C43   H17   1.078261 S    
C41   C48   1.413681 A    
C24   C40   1.383418 A    
