data_mof_unit_3506.cif
_audit_creation_date              2012-12-10T17:49:32-0500
_audit_creation_method            fapswitch 2.2
_symmetry_space_group_name_H-M    P1
_symmetry_Int_Tables_number       1
_space_group_crystal_system       triclinic
_cell_length_a                    14.737843
_cell_length_b                    14.822752
_cell_length_c                    15.865802
_cell_angle_alpha                 76.181629
_cell_angle_beta                  102.523163
_cell_angle_gamma                 115.747797
_cell_volume                      3006.05614287

loop_
_atom_site_label
_atom_site_type_symbol
_atom_type_description
_atom_site_fract_x
_atom_site_fract_y
_atom_site_fract_z
_atom_type_partial_charge
C1    C     C_R   0.879860 0.312363 0.516259 0.830368
C2    C     C_3   0.989765 0.394874 0.070349 -0.507647
C3    C     C_3   0.998338 0.499100 0.082644 0.001175
C4    C     C_3   0.097988 0.582400 0.049659 -0.469423
C5    C     C_3   0.097007 0.582739 0.951788 -0.613352
C6    C     C_1   0.999798 0.499329 0.175181 0.083488
C7    C     C_1   0.998060 0.499484 0.824525 0.043823
C8    C     C_1   0.998775 0.499827 0.749017 -0.140606
C9    C     C_R   0.810890 0.205370 0.537750 -0.167805
C10   C     C_R   0.186020 0.796175 0.483844 -0.048204
C11   C     C_R   0.776630 0.036468 0.621175 0.478828
C12   C     C_R   0.999653 0.499929 0.659502 0.815950
C13   C     C_R   0.845681 0.134703 0.592516 -0.246582
C14   C     C_R   0.706984 0.177277 0.511183 -0.171639
C15   C     C_R   0.635084 0.083960 0.546996 0.078092
C16   C     C_R   0.671194 0.011520 0.600171 0.047445
C17   C     C_R   0.528501 0.059264 0.528438 -0.121317
C18   C     C_R   0.459503 0.956902 0.551605 0.000845
C19   C     C_R   0.498230 0.887305 0.605595 -0.184008
C20   C     C_R   0.601667 0.914816 0.630498 -0.180013
C21   C     C_R   0.487954 0.132993 0.489209 0.478468
C22   C     C_R   0.384935 0.104168 0.459923 0.523327
C23   C     C_R   0.119704 0.687687 0.487402 0.779604
C24   C     C_R   0.318719 0.001867 0.469851 -0.071075
C25   C     C_R   0.354452 0.927423 0.518519 0.005058
C26   C     C_R   0.216895 0.972912 0.431656 -0.100478
C27   C     C_R   0.151557 0.870675 0.437215 -0.194309
C28   C     C_R   0.284554 0.825226 0.528004 -0.197773
C29   C     C_R   0.698307 0.634089 0.331239 0.308258
C30   C     C_R   0.788017 0.620638 0.365167 0.631728
C31   C     C_R   0.717480 0.516574 0.493872 0.530012
C32   C     C_R   0.619928 0.517957 0.458763 -0.159512
C33   C     C_R   0.612713 0.579680 0.376237 -0.103054
C34   C     C_R   0.000299 0.500062 0.340464 0.816887
C35   C     C_R   0.530648 0.463498 0.502732 0.141296
C36   C     C_R   0.443094 0.485795 0.470685 0.101626
C37   C     C_R   0.437009 0.540261 0.385391 -0.181364
C38   C     C_R   0.520117 0.586374 0.339321 -0.110401
C39   C     C_R   0.523013 0.384066 0.574480 -0.064939
C40   C     C_R   0.438162 0.337311 0.618818 -0.132944
C41   C     C_R   0.359506 0.370568 0.595781 0.010611
C42   C     C_R   0.362205 0.448148 0.523247 -0.123528
C43   C     C_R   0.277947 0.326578 0.644722 -0.361566
C44   C     C_R   0.200020 0.360379 0.622780 0.720807
C45   C     C_3   0.990621 0.394294 0.972521 0.393903
C46   C     C_R   0.285432 0.486883 0.509250 0.529585
C47   C     C_3   0.906860 0.520402 0.928006 0.417475
C48   C     C_3   0.906438 0.519258 0.026266 1.069274
C49   C     C_1   0.000468 0.499622 0.250863 -0.104258
C50   C     C_3   0.997335 0.498526 0.916889 0.018285
Cu1   Cu    Cu3+1 0.081750 0.475690 0.522550 1.033832
Cu2   Cu    Cu3+1 0.918250 0.524310 0.477450 1.055232
H1    H     H_    0.919048 0.333447 0.094091 0.240938
H2    H     H_    0.060898 0.385951 0.966824 0.081895
H3    H     H_    0.054402 0.378531 0.110825 0.159888
H4    H     H_    0.107237 0.658346 0.058433 0.237735
H5    H     H_    0.627065 0.858441 0.672004 0.187457
H6    H     H_    0.304851 0.765813 0.567836 0.129989
H7    H     H_    0.074568 0.849945 0.404118 0.177637
H8    H     H_    0.926067 0.155731 0.614320 0.215504
H9    H     H_    0.684408 0.229497 0.461033 0.234144
H10   H     H_    0.450565 0.810904 0.631575 0.130971
H11   H     H_    0.188427 0.029014 0.394815 0.189960
H12   H     H_    0.511788 0.629202 0.274622 0.187942
H13   H     H_    0.435228 0.275990 0.672982 0.155317
H14   H     H_    0.914845 0.596523 0.890106 0.072935
H15   H     H_    0.367301 0.546328 0.352117 0.195272
H16   H     H_    0.579165 0.352463 0.595213 0.235518
H17   H     H_    0.273938 0.265446 0.699280 0.186712
H18   H     H_    0.163963 0.570684 0.943854 0.221876
H19   H     H_    0.104210 0.658428 0.913369 0.213261
H20   H     H_    0.164532 0.568548 0.088788 0.212158
N1    N     N_R   0.795410 0.560790 0.443550 -0.302026
N2    N     N_R   0.204590 0.439170 0.556520 -0.265692
O1    O     O_R   0.977910 0.338120 0.529720 -0.549777
O2    O     O_R   0.839850 0.379180 0.491640 -0.548739
O3    O     O_R   0.069060 0.479460 0.639610 -0.538593
O4    O     O_R   0.931000 0.520530 0.601530 -0.543156
O5    O     O_R   0.160150 0.620820 0.508360 -0.552708
O6    O     O_R   0.022090 0.661880 0.470280 -0.561199
O7    O     O_R   0.069000 0.479470 0.398470 -0.564408
O8    O     O_R   0.930940 0.520540 0.360390 -0.503210
F1    F     F_    0.350145 0.177231 0.420352 -0.628907
O9    O     O_3   0.812101 0.967580 0.675911 -0.565895
C51   C     C_3   0.847154 0.926560 0.624680 -0.329862
H21   H     H_    0.914675 0.985550 0.594280 0.169469
H22   H     H_    0.785996 0.889328 0.573482 0.141803
H23   H     H_    0.870675 0.867475 0.667856 0.200006
O10   O     O_3   0.901227 0.314928 0.941080 -0.491827
C52   C     C_3   0.916261 0.224449 0.955284 -0.229540
H24   H     H_    0.942182 0.202603 0.025365 0.138909
H25   H     H_    0.971306 0.231997 0.913193 0.165836
H26   H     H_    0.842844 0.162279 0.936898 0.207017
F2    F     F_    0.545058 0.234108 0.483694 -0.658716
O11   O     O_3   0.293127 0.575513 0.452106 -0.559791
C53   C     C_3   0.371088 0.658502 0.489045 -0.307810
H27   H     H_    0.447743 0.665264 0.484191 0.150786
H28   H     H_    0.365207 0.653391 0.558949 0.142781
H29   H     H_    0.365013 0.729433 0.451472 0.201002
F3    F     F_    0.119604 0.314421 0.668705 -0.652616
O12   O     O_3   0.692414 0.694241 0.250645 -0.518929
C54   C     C_3   0.728191 0.795435 0.263944 -0.252968
H30   H     H_    0.809731 0.824692 0.292136 0.176146
H31   H     H_    0.681739 0.803058 0.306466 0.124655
H32   H     H_    0.721559 0.843690 0.199662 0.199669
F4    F     F_    0.868285 0.667922 0.318997 -0.610993
O13   O     O_3   0.737124 0.474792 0.579545 -0.546072
C55   C     C_3   0.755785 0.545970 0.633475 -0.284014
H33   H     H_    0.686940 0.559571 0.632079 0.138216
H34   H     H_    0.820115 0.619330 0.614825 0.145540
H35   H     H_    0.777039 0.514875 0.701991 0.239338
F5    F     F_    0.815332 0.450324 0.893948 -0.583069
F6    F     F_    0.816392 0.444588 0.054142 -0.587529
F7    F     F_    0.912144 0.612100 0.036343 -0.659720

loop_
_geom_bond_atom_site_label_1
_geom_bond_atom_site_label_2
_ccdc_geom_bond_type
C10   C27   A    
O12   C54   S    
C11   C13   A    
C39   H16   S    
C36   C42   A    
O11   C53   S    
Cu1   N2    S    
C4    H20   S    
C9    C14   A    
C3    C6    S    
C7    C8    T    
C13   H8    S    
C51   H21   S    
C25   C28   A    
C26   C27   A    
C37   C38   A    
C36   C37   A    
C24   C26   A    
C2    H3    S    
C42   C46   A    
C54   H31   S    
C31   N1    A    
C21   F2    S    
C19   H10   S    
C15   C16   A    
C53   H29   S    
C29   C33   A    
C3    C48   S    
C55   H33   S    
C54   H32   S    
C18   C19   A    
C41   C42   A    
C9    C13   A    
C46   O11   S    
C31   C32   A    
C12   O4    A    
O13   C55   S    
C34   O7    A    
C23   O6    A    
C45   O10   S    
Cu1   O7    S    
C47   H14   S    
C8    C12   S    
C43   H17   S    
C21   C22   A    
C30   F4    S    
C41   C43   A    
C18   C25   A    
Cu2   O4    S    
C47   C50   S    
C38   H12   S    
C51   H22   S    
C2    C45   S    
Cu1   Cu2   S    
C1    O1    A    
C32   C35   A    
C44   N2    A    
C1    C9    S    
O9    C51   S    
Cu2   N1    S    
C39   C40   A    
C30   N1    A    
C14   H9    S    
C2    H1    S    
C17   C21   A    
C53   H28   S    
C35   C36   A    
C35   C39   A    
C26   H11   S    
Cu1   O3    S    
C53   H27   S    
C29   C30   A    
C11   C16   A    
C52   H25   S    
C47   C48   S    
C16   C20   A    
C12   O3    A    
C17   C18   A    
C29   O12   S    
C24   C25   A    
Cu2   O8    S    
C40   C41   A    
C45   H2    S    
C40   H13   S    
C43   C44   A    
C11   O9    S    
C22   C24   A    
C5    C50   S    
C3    C4    S    
C46   N2    A    
C52   H26   S    
C48   F7    S    
C51   H23   S    
C10   C28   A    
C15   C17   A    
C34   C49   S    
C1    O2    A    
C31   O13   S    
C7    C50   S    
Cu1   O1    S    
C4    C5    S    
Cu2   O2    S    
C5    H18   S    
C28   H6    S    
C10   C23   S    
C33   C38   A    
C55   H35   S    
C32   C33   A    
C19   C20   A    
C2    C3    S    
O10   C52   S    
C5    H19   S    
C27   H7    S    
C22   F1    S    
C44   F3    S    
C52   H24   S    
C45   C50   S    
C37   H15   S    
C55   H34   S    
C6    C49   T    
C54   H30   S    
Cu1   O5    S    
C14   C15   A    
C34   O8    A    
C23   O5    A    
C20   H5    S    
Cu2   O6    S    
C4    H4    S    
C47   F5    S    
C48   F6    S    
