data_mof_unit_926.cif
_audit_creation_date              2012-10-26T20:43:32-0400
_audit_creation_method            fapswitch 2.2
_symmetry_space_group_name_H-M    P1
_symmetry_Int_Tables_number       1
_space_group_crystal_system       triclinic
_cell_length_a                    10.833171
_cell_length_b                    9.566036
_cell_length_c                    23.564058
_cell_angle_alpha                 89.740585
_cell_angle_beta                  91.519853
_cell_angle_gamma                 89.912378
_cell_volume                      2441.06776524

loop_
_atom_site_label
_atom_site_type_symbol
_atom_type_description
_atom_site_fract_x
_atom_site_fract_y
_atom_site_fract_z
_atom_type_partial_charge
C1    C     C_R   0.262208 0.499995 0.500657 0.552344
C2    C     C_R   0.606817 0.572686 0.700866 -0.029685
C3    C     C_R   0.532561 0.624294 0.237170 0.051442
C4    C     C_R   0.600480 0.585964 0.760640 0.060984
C5    C     C_R   0.555333 0.497681 0.208650 0.217392
C6    C     C_R   0.520575 0.496751 0.790645 0.223590
C7    C     C_R   0.063810 0.372960 0.499060 -0.134434
C8    C     C_R   0.936144 0.626109 0.505349 -0.142070
C9    C     C_R   0.936088 0.372895 0.498666 -0.140200
C10   C     C_R   0.063806 0.626024 0.506007 -0.140465
C11   C     C_R   0.871674 0.499621 0.501412 0.019501
C12   C     C_R   0.737786 0.499886 0.500431 0.534966
C13   C     C_R   0.128296 0.499697 0.501938 0.021357
C14   C     C_R   0.415242 0.075953 0.467783 0.184720
C15   C     C_R   0.583323 0.925163 0.533072 0.196197
C16   C     C_R   0.582514 0.074740 0.533495 0.191783
C17   C     C_R   0.413033 0.926583 0.468923 0.184970
C18   C     C_R   0.503612 0.499602 0.390574 0.535184
C19   C     C_R   0.503828 0.499276 0.608805 0.567908
C20   C     C_R   0.625953 0.437240 0.879613 0.380576
C21   C     C_R   0.442856 0.528155 0.119325 0.387014
C22   C     C_R   0.428222 0.548270 0.880893 0.385354
C23   C     C_R   0.564639 0.372249 0.240011 0.177907
C24   C     C_R   0.654314 0.456996 0.118226 0.372135
C25   C     C_R   0.428844 0.542229 0.940358 0.028808
C26   C     C_R   0.648884 0.448350 0.058739 0.027310
C27   C     C_R   0.534461 0.490285 0.969587 -0.028587
C28   C     C_R   0.539916 0.490231 0.029464 -0.028252
C29   C     C_R   0.634993 0.439533 0.939104 0.026421
C30   C     C_R   0.436630 0.533079 0.059897 0.027343
C31   C     C_R   0.327116 0.587406 0.971175 -0.128329
C32   C     C_R   0.749757 0.400630 0.027888 -0.129204
C33   C     C_R   0.330103 0.580389 0.030338 -0.128439
C34   C     C_R   0.439958 0.405833 0.760800 0.134595
C35   C     C_R   0.742045 0.393838 0.968708 -0.129266
C36   C     C_3   0.397774 0.727363 0.312449 -0.260079
C37   C     C_3   0.273369 0.661953 0.327280 -0.399310
C38   C     C_3   0.722432 0.619856 0.670629 -0.285581
C39   C     C_3   0.829054 0.518208 0.682487 -0.431379
C40   C     C_3   0.554308 0.764423 0.207704 -0.264416
C41   C     C_3   0.688450 0.781690 0.190404 -0.412931
C42   C     C_3   0.673841 0.699227 0.791816 -0.245883
C43   C     C_3   0.617147 0.843158 0.780050 -0.435773
C44   C     C_R   0.558398 0.374657 0.299206 0.096949
C45   C     C_R   0.431807 0.411485 0.701414 0.094776
C46   C     C_R   0.516448 0.497239 0.327230 -0.027378
C47   C     C_R   0.513478 0.496498 0.671250 0.012879
C48   C     C_R   0.489162 0.617668 0.293301 -0.021684
Cu1   Cu    Cu3+1 0.500000 0.640660 0.500000 0.993425
Cu2   Cu    Cu3+1 0.500000 0.359340 0.500000 1.002599
H1    H     H_    0.244434 0.626727 0.949694 0.165287
H2    H     H_    0.663293 0.233799 0.193784 0.274200
H3    H     H_    0.424072 0.245729 0.816784 0.244511
H4    H     H_    0.303111 0.358838 0.815139 0.272378
H5    H     H_    0.516087 0.204366 0.347069 0.252476
H6    H     H_    0.661134 0.272194 0.360066 0.245034
H7    H     H_    0.253794 0.356675 0.685469 0.245819
H8    H     H_    0.356793 0.223797 0.681062 0.254681
H9    H     H_    0.241136 0.590938 0.292784 0.177743
H10   H     H_    0.279335 0.602559 0.367730 0.177526
H11   H     H_    0.202804 0.745178 0.331790 0.133471
H12   H     H_    0.834362 0.366957 0.049372 0.166692
H13   H     H_    0.439409 0.788399 0.347654 0.178310
H14   H     H_    0.374139 0.803575 0.278373 0.141074
H15   H     H_    0.851420 0.510484 0.728616 0.181484
H16   H     H_    0.804420 0.412639 0.666316 0.164879
H17   H     H_    0.912440 0.554855 0.660411 0.145294
H18   H     H_    0.708952 0.622661 0.624076 0.191684
H19   H     H_    0.750116 0.726975 0.683224 0.140578
H20   H     H_    0.752395 0.756314 0.226650 0.169647
H21   H     H_    0.709635 0.714354 0.153893 0.189667
H22   H     H_    0.704521 0.891726 0.177292 0.145754
H23   H     H_    0.249635 0.614650 0.052820 0.166935
H24   H     H_    0.491805 0.777065 0.169987 0.178757
H25   H     H_    0.537323 0.853657 0.236270 0.145619
H26   H     H_    0.614910 0.867786 0.733970 0.144661
H27   H     H_    0.521383 0.846674 0.795749 0.185302
H28   H     H_    0.672649 0.924372 0.802495 0.154115
H29   H     H_    0.675402 0.684203 0.838424 0.170137
H30   H     H_    0.772034 0.698501 0.779793 0.150152
H31   H     H_    0.338643 0.126015 0.390919 0.195021
H32   H     H_    0.238673 0.123970 0.444890 0.196367
H33   H     H_    0.652782 0.878171 0.610951 0.197820
H34   H     H_    0.820962 0.355176 0.946229 0.165339
H35   H     H_    0.758129 0.879683 0.559061 0.191570
H36   H     H_    0.651018 0.122453 0.611886 0.208232
H37   H     H_    0.756834 0.122957 0.559919 0.193654
H38   H     H_    0.303104 0.894017 0.399596 0.188647
H39   H     H_    0.233374 0.878389 0.461477 0.199270
H40   H     H_    0.111582 0.273896 0.496968 0.130020
H41   H     H_    0.888358 0.725157 0.507793 0.129505
H42   H     H_    0.888153 0.273837 0.495803 0.127803
H43   H     H_    0.111512 0.724735 0.509865 0.126530
H44   H     H_    0.508018 0.230098 0.181036 0.232791
N1    N     N_R   0.524672 0.493563 0.851754 -0.401537
N2    N     N_3   0.668503 0.849968 0.568978 -0.585752
N3    N     N_3   0.666547 0.150432 0.569759 -0.565163
N4    N     N_3   0.314332 0.853999 0.440573 -0.574383
N5    N     N_R   0.551496 0.494232 0.147416 -0.398167
N6    N     N_R   0.500000 0.852070 0.500000 -0.186455
N7    N     N_R   0.500000 0.147930 0.500000 -0.190082
N8    N     N_3   0.577324 0.239550 0.212507 -0.591954
N9    N     N_3   0.366081 0.305966 0.790222 -0.632866
N10   N     N_3   0.593588 0.249085 0.329022 -0.589126
N11   N     N_3   0.341120 0.329154 0.671249 -0.600022
N12   N     N_3   0.327560 0.152723 0.433392 -0.565595
O1    O     O_R   0.319640 0.618740 0.500000 -0.479496
O2    O     O_2   0.341174 0.557871 0.148938 -0.511186
O3    O     O_2   0.332409 0.608738 0.852373 -0.515130
O4    O     O_2   0.761937 0.431454 0.146521 -0.519944
O5    O     O_R   0.680360 0.381260 0.500000 -0.489758
O6    O     O_R   0.680360 0.618740 0.500000 -0.488537
O7    O     O_R   0.319640 0.381260 0.500000 -0.471512
O8    O     O_R   0.499960 0.618810 0.417880 -0.482409
O9    O     O_R   0.500040 0.381190 0.582120 -0.448035
O10   O     O_R   0.500040 0.618810 0.582120 -0.489263
O11   O     O_R   0.499960 0.381190 0.417880 -0.492064
O12   O     O_2   0.718350 0.381573 0.849711 -0.515086

loop_
_geom_bond_atom_site_label_1
_geom_bond_atom_site_label_2
_ccdc_geom_bond_type
C25   C31   A    
H7    N11   S    
C26   C32   A    
C27   C29   A    
Cu2   O11   S    
C22   N1    A    
C15   N6    A    
C18   O8    A    
C20   O12   S    
C44   N10   S    
Cu1   O1    S    
C43   H28   S    
C42   H30   S    
H2    N8    S    
C43   H27   S    
C36   C37   S    
C24   C26   A    
C38   C39   S    
C21   N5    A    
H35   N2    S    
C19   C47   S    
C16   N3    S    
C23   N8    S    
C15   C16   A    
C24   N5    A    
C3    C48   A    
Cu2   O9    S    
H36   N3    S    
C5    N5    S    
C44   C46   A    
C22   C25   A    
C31   C33   A    
C36   H13   S    
C17   N4    S    
C41   H21   S    
Cu1   O8    S    
C38   H19   S    
C42   H29   S    
C39   H15   S    
C14   C17   A    
C1    O7    A    
C18   C46   S    
C9    H42   S    
C45   N11   S    
C20   C29   A    
C45   C47   A    
C46   C48   A    
C37   H10   S    
C32   C35   A    
H4    N9    S    
C24   O4    S    
H6    N10   S    
C4    C6    A    
C15   N2    S    
C34   C45   A    
C14   N7    A    
C10   H43   S    
C7    H40   S    
H5    N10   S    
C23   C44   A    
C6    C34   A    
C2    C4    A    
C2    C38   S    
C5    C23   A    
C19   O9    A    
C11   C12   S    
C22   O3    S    
C8    H41   S    
C9    C11   A    
C18   O11   A    
C37   H9    S    
C1    O1    A    
Cu1   O6    S    
C33   H23   S    
C40   C41   S    
C20   N1    A    
C38   H18   S    
C3    C40   S    
Cu1   Cu2   S    
C41   H22   S    
C39   H16   S    
C1    C13   S    
C42   C43   S    
C12   O6    A    
C43   H26   S    
C7    C9    A    
H31   N12   S    
C30   C33   A    
C39   H17   S    
C31   H1    S    
C3    C5    A    
C10   C13   A    
C37   H11   S    
C35   H34   S    
C2    C47   A    
C25   C27   A    
C21   C30   A    
C29   C35   A    
C26   C28   A    
C34   N9    S    
C40   H25   S    
H39   N4    S    
Cu2   O7    S    
H8    N11   S    
C28   C30   A    
C32   H12   S    
Cu1   N6    S    
C4    C42   S    
C19   O10   A    
H3    N9    S    
C8    C11   A    
H33   N2    S    
Cu2   O5    S    
C40   H24   S    
C36   C48   S    
H32   N12   S    
C17   N6    A    
C21   O2    S    
C16   N7    A    
C7    C13   A    
Cu1   O10   S    
H44   N8    S    
Cu2   N7    S    
C8    C10   A    
C6    N1    S    
C14   N12   S    
C27   C28   A    
C36   H14   S    
C12   O5    A    
H38   N4    S    
C41   H20   S    
H37   N3    S    
