data_mof_unit_2057.cif
_audit_creation_date              2013-03-05T15:44:38-0500
_audit_creation_method            fapswitch 2.2
_symmetry_space_group_name_H-M    P1
_symmetry_Int_Tables_number       1
_space_group_crystal_system       triclinic
_cell_length_a                    19.120466
_cell_length_b                    11.151549
_cell_length_c                    18.660144
_cell_angle_alpha                 90.125518
_cell_angle_beta                  89.795465
_cell_angle_gamma                 89.839768
_cell_volume                      3978.71785901

loop_
_atom_site_label
_atom_site_type_symbol
_atom_site_description
_atom_site_fract_x
_atom_site_fract_y
_atom_site_fract_z
_atom_type_partial_charge
O1    O     O_R   0.787540 0.042690 0.170470 -0.468204
O2    O     O_R   0.212460 0.042690 0.829530 -0.434166
O3    O     O_R   0.287540 0.542690 0.170470 -0.459730
O4    O     O_R   0.712460 0.542690 0.829530 -0.464216
O5    O     O_R   0.765660 0.292160 0.175050 -0.492095
O6    O     O_R   0.234340 0.292160 0.824950 -0.468344
O7    O     O_R   0.265660 0.792160 0.175050 -0.506494
O8    O     O_R   0.734340 0.792160 0.824950 -0.495370
C1    C     C_R   0.710948 0.328862 0.138963 0.552007
C2    C     C_R   0.289422 0.327388 0.861014 0.509979
C3    C     C_R   0.230556 0.877699 0.147231 0.572991
C4    C     C_R   0.770635 0.871686 0.855279 0.558910
O9    O     O_R   0.670190 0.408980 0.168550 -0.419050
O10   O     O_R   0.329810 0.408980 0.831450 -0.414369
O11   O     O_R   0.170190 0.908980 0.168550 -0.466677
O12   O     O_R   0.829810 0.908980 0.831450 -0.432619
O13   O     O_R   0.556580 0.251450 0.175160 -0.533221
O14   O     O_R   0.443420 0.251450 0.824840 -0.514460
O15   O     O_R   0.056580 0.751450 0.175160 -0.510473
O16   O     O_R   0.943420 0.751450 0.824840 -0.500193
C5    C     C_R   0.530872 0.155184 0.147075 0.588439
C6    C     C_R   0.468162 0.155385 0.854116 0.573859
C7    C     C_R   0.029947 0.655947 0.147657 0.577885
C8    C     C_R   0.967617 0.655293 0.854468 0.582923
O17   O     O_R   0.545920 0.049510 0.170320 -0.451173
O18   O     O_R   0.454080 0.049510 0.829680 -0.440993
O19   O     O_R   0.045920 0.549510 0.170320 -0.457128
O20   O     O_R   0.954080 0.549510 0.829680 -0.425885
O21   O     O_R   0.681390 0.957840 0.176710 -0.466908
O22   O     O_R   0.318610 0.957840 0.823290 -0.423123
O23   O     O_R   0.181390 0.457840 0.176710 -0.459936
O24   O     O_R   0.818610 0.457840 0.823290 -0.446412
C9    C     C_R   0.742683 0.968950 0.148066 0.595228
C10   C     C_R   0.269696 0.015396 0.860320 0.532365
C11   C     C_R   0.242430 0.468720 0.147915 0.600752
C12   C     C_R   0.758859 0.475934 0.854226 0.572195
O25   O     O_R   0.787500 0.044280 0.330990 -0.494033
O26   O     O_R   0.212500 0.044280 0.669010 -0.450916
O27   O     O_R   0.287500 0.544280 0.330990 -0.493639
O28   O     O_R   0.712500 0.544280 0.669010 -0.493504
O29   O     O_R   0.765610 0.293630 0.323860 -0.514492
O30   O     O_R   0.234390 0.293630 0.676140 -0.496890
O31   O     O_R   0.265610 0.793630 0.323860 -0.514799
O32   O     O_R   0.734390 0.793630 0.676140 -0.489112
C13   C     C_R   0.730931 0.380883 0.350764 0.588545
C14   C     C_R   0.270015 0.379214 0.648577 0.612368
C15   C     C_R   0.230955 0.882117 0.350588 0.571018
C16   C     C_R   0.770074 0.878672 0.648414 0.608479
O33   O     O_R   0.670140 0.410570 0.329080 -0.427353
O34   O     O_R   0.329860 0.410570 0.670920 -0.457621
O35   O     O_R   0.170140 0.910570 0.329080 -0.430988
O36   O     O_R   0.829860 0.910570 0.670920 -0.462460
O37   O     O_R   0.556540 0.252920 0.323970 -0.449862
O38   O     O_R   0.443460 0.252920 0.676030 -0.465548
O39   O     O_R   0.056540 0.752920 0.323970 -0.450970
O40   O     O_R   0.943460 0.752920 0.676030 -0.467826
C17   C     C_R   0.533277 0.155726 0.354990 0.600208
C18   C     C_R   0.470924 0.157367 0.648668 0.575889
C19   C     C_R   0.033129 0.655786 0.354930 0.590777
C20   C     C_R   0.971033 0.657269 0.648694 0.579627
O41   O     O_R   0.545870 0.051100 0.330840 -0.445346
O42   O     O_R   0.454130 0.051100 0.669160 -0.467716
O43   O     O_R   0.045870 0.551100 0.330840 -0.450127
O44   O     O_R   0.954130 0.551100 0.669160 -0.457570
O45   O     O_R   0.681340 0.959300 0.325510 -0.447469
O46   O     O_R   0.318660 0.959300 0.674490 -0.464842
O47   O     O_R   0.181340 0.459300 0.325510 -0.451231
O48   O     O_R   0.818660 0.459300 0.674490 -0.492505
C21   C     C_R   0.741302 0.972663 0.354295 0.580808
C22   C     C_R   0.272113 0.019522 0.638330 0.540750
C23   C     C_R   0.241189 0.472901 0.354367 0.581808
C24   C     C_R   0.760162 0.477950 0.643335 0.584009
Cr1   Cr    Cr6+3 0.772000 0.169640 0.250110 1.105840
Cr2   Cr    Cr6+3 0.228000 0.169640 0.749890 1.153187
Cr3   Cr    Cr6+3 0.272000 0.669640 0.250110 1.113923
Cr4   Cr    Cr6+3 0.728000 0.669640 0.749890 1.140773
Cr5   Cr    Cr6+3 0.614960 0.323350 0.249260 1.175236
Cr6   Cr    Cr6+3 0.385040 0.323350 0.750740 1.166342
Cr7   Cr    Cr6+3 0.114960 0.823350 0.249260 1.182894
Cr8   Cr    Cr6+3 0.885040 0.823350 0.750740 1.178586
Cr9   Cr    Cr6+3 0.616670 0.010620 0.250840 1.199768
Cr10  Cr    Cr6+3 0.383330 0.010620 0.749160 1.181184
Cr11  Cr    Cr6+3 0.116670 0.510620 0.250840 1.204398
Cr12  Cr    Cr6+3 0.883330 0.510620 0.749160 1.193023
O49   O     O_3   0.667880 0.167870 0.250070 -0.369450
O50   O     O_3   0.332120 0.167870 0.749930 -0.404274
O51   O     O_3   0.167880 0.667870 0.250070 -0.343940
O52   O     O_3   0.832120 0.667870 0.749930 -0.354820
C25   C     C_R   0.501013 0.165983 0.926690 -0.001737
C26   C     C_R   0.493628 0.164797 0.077466 0.039731
C27   C     C_R   0.997920 0.664472 0.928149 -0.010593
C28   C     C_R   0.990989 0.669061 0.078829 0.016861
C29   C     C_R   0.499829 0.276587 0.965175 -0.108137
C30   C     C_R   0.489273 0.276325 0.041032 -0.110778
C31   C     C_R   0.004315 0.775874 0.965147 -0.089409
C32   C     C_R   0.993391 0.778643 0.040606 -0.100297
C33   C     C_R   0.490093 0.058963 0.037280 -0.003319
C34   C     C_R   0.510865 0.060700 0.965457 -0.010622
C35   C     C_R   0.977483 0.564910 0.040717 0.009386
C36   C     C_R   0.998188 0.559404 0.968692 0.003666
C37   C     C_R   0.513971 0.385781 0.929812 0.012896
C38   C     C_R   0.478848 0.387128 0.078090 0.003258
C39   C     C_R   0.025591 0.881995 0.929825 0.021469
C40   C     C_R   0.988209 0.889610 0.076848 0.040432
C41   C     C_R   0.020394 0.993213 0.966313 0.185146
C42   C     C_R   0.011374 0.993999 0.042181 0.210928
C43   C     C_R   0.502115 0.494899 0.966436 0.189637
C44   C     C_R   0.494647 0.494626 0.042261 0.196881
C45   C     C_R   0.758923 0.809586 0.051769 0.231649
C46   C     C_R   0.289146 0.875538 0.959367 0.181050
C47   C     C_R   0.285679 0.305553 0.063409 0.212857
C48   C     C_R   0.786234 0.337239 0.952529 0.156928
C49   C     C_R   0.764468 0.790569 0.977284 -0.051199
C50   C     C_R   0.287675 0.850591 0.031620 -0.111059
C51   C     C_R   0.302705 0.276750 0.991202 -0.126534
C52   C     C_R   0.779536 0.311291 0.025178 -0.104485
H1    H     H_    0.776939 0.702442 0.956283 0.135682
H2    H     H_    0.313523 0.773783 0.051774 0.230807
H3    H     H_    0.332434 0.196874 0.978016 0.093584
H4    H     H_    0.820703 0.268209 0.053300 0.241711
C53   C     C_R   0.754199 0.887643 0.929852 0.012316
C54   C     C_R   0.250476 0.922374 0.078181 -0.029074
C55   C     C_R   0.274467 0.349018 0.936049 0.021911
C56   C     C_R   0.719817 0.346445 0.062329 -0.050938
C57   C     C_R   0.743310 0.001537 0.956617 -0.099283
C58   C     C_R   0.216241 0.022432 0.053410 -0.065264
C59   C     C_R   0.237920 0.452870 0.954482 -0.016115
C60   C     C_R   0.668873 0.411399 0.027186 -0.098094
H5    H     H_    0.741545 0.075704 0.919524 0.190719
H6    H     H_    0.189822 0.078698 0.091745 0.251828
H7    H     H_    0.221763 0.513244 0.912153 0.195497
H8    H     H_    0.622145 0.435956 0.055037 0.170601
C61   C     C_R   0.770394 0.019514 0.024198 0.087565
C62   C     C_R   0.214464 0.050763 0.981594 0.102423
C63   C     C_R   0.258347 0.501058 0.019332 0.106798
C64   C     C_R   0.685279 0.471457 0.965329 0.167291
C65   C     C_R   0.754624 0.929744 0.074707 0.031023
C66   C     C_R   0.256400 0.979699 0.933778 -0.023463
C67   C     C_R   0.255408 0.419418 0.076436 0.063316
C68   C     C_R   0.741995 0.424986 0.923251 0.007159
C69   C     C_R   0.520720 0.051727 0.472256 0.107304
C70   C     C_R   0.526037 0.058475 0.546180 0.149471
C71   C     C_R   0.019196 0.551382 0.471849 0.109722
C72   C     C_R   0.025105 0.557545 0.545755 0.145585
C73   C     C_R   0.510011 0.166798 0.580761 -0.012864
C74   C     C_R   0.509263 0.157608 0.430712 -0.079523
C75   C     C_R   0.010268 0.666178 0.580750 -0.017815
C76   C     C_R   0.008805 0.657772 0.430591 -0.077082
C77   C     C_R   0.507364 0.274530 0.540920 0.154516
C78   C     C_R   0.494975 0.267550 0.466131 0.132296
C79   C     C_R   0.008334 0.774117 0.541075 0.152088
C80   C     C_R   0.995593 0.767790 0.466330 0.135350
C81   C     C_R   0.723015 0.034056 0.477573 -0.092473
C82   C     C_R   0.220880 0.056546 0.520131 -0.095586
C83   C     C_R   0.220674 0.532976 0.477575 -0.088821
C84   C     C_R   0.713964 0.529424 0.525639 -0.091132
H9    H     H_    0.702137 0.117794 0.457211 0.121568
H10   H     H_    0.188638 0.126287 0.543906 0.191606
H11   H     H_    0.197893 0.615122 0.457043 0.122800
H12   H     H_    0.682912 0.600134 0.549980 0.202852
C85   C     C_R   0.729270 0.016830 0.551370 0.214399
C86   C     C_R   0.216234 0.034776 0.447070 0.188599
C87   C     C_R   0.227294 0.516428 0.551469 0.213258
C88   C     C_R   0.714627 0.520914 0.451792 0.172433
C89   C     C_R   0.756208 0.905813 0.574693 0.059420
C90   C     C_R   0.254616 0.938240 0.417030 0.012154
C91   C     C_R   0.256619 0.407075 0.574805 0.053563
C92   C     C_R   0.753016 0.427229 0.419695 0.009848
C93   C     C_R   0.778647 0.818125 0.525470 -0.138698
C94   C     C_R   0.305162 0.879043 0.458308 -0.127136
C95   C     C_R   0.283019 0.322856 0.525545 -0.146179
C96   C     C_R   0.798596 0.356507 0.461103 -0.136539
H13   H     H_    0.802241 0.735181 0.543791 0.087054
H14   H     H_    0.335554 0.805395 0.436429 0.201209
H15   H     H_    0.310399 0.243515 0.543900 0.075892
H16   H     H_    0.829199 0.284708 0.437380 0.199424
C97   C     C_R   0.774016 0.838379 0.452659 -0.051858
C98   C     C_R   0.312840 0.907482 0.530237 -0.093613
C99   C     C_R   0.277034 0.341668 0.452743 -0.056557
C100  C     C_R   0.800155 0.370026 0.534838 -0.091927
H17   H     H_    0.793695 0.772166 0.415115 0.176657
H18   H     H_    0.351124 0.858644 0.561393 0.204074
H19   H     H_    0.298319 0.276823 0.415200 0.174598
H20   H     H_    0.834560 0.313771 0.566340 0.197850
C101  C     C_R   0.745603 0.945570 0.429123 0.058578
C102  C     C_R   0.268173 0.992258 0.562146 -0.014843
C103  C     C_R   0.245281 0.445924 0.429181 0.057882
C104  C     C_R   0.755348 0.452732 0.567512 0.018685
C105  C     C_2   0.452978 0.952489 0.065293 0.675419
O53   O     O_2   0.436004 0.874227 0.023431 -0.419456
O54   O     O_R   0.431112 0.945519 0.136818 -0.594980
H21   H     H_    0.403548 0.870145 0.147531 0.364343
C106  C     C_2   0.558245 0.965077 0.937663 0.651251
O55   O     O_2   0.586171 0.896173 0.979744 -0.430309
O56   O     O_R   0.576315 0.959784 0.865064 -0.617757
H22   H     H_    0.608971 0.890638 0.853596 0.372518
C107  C     C_2   0.941582 0.463389 0.075720 0.667973
O57   O     O_2   0.931556 0.371883 0.042071 -0.411716
O58   O     O_R   0.914611 0.474724 0.145227 -0.609958
H23   H     H_    0.891058 0.398773 0.162534 0.367103
C108  C     C_2   0.049260 0.465972 0.947993 0.667810
O59   O     O_2   0.079883 0.411938 0.995132 -0.420422
O60   O     O_R   0.068178 0.447678 0.876347 -0.604634
H24   H     H_    0.106308 0.385324 0.870318 0.384015
N1    N     N_R   0.708894 0.111691 0.600147 0.087566
O61   O     O_R   0.726586 0.109752 0.667411 -0.264121
O62   O     O_R   0.673585 0.203481 0.576822 -0.347971
N2    N     N_R   0.170763 0.108490 0.404715 0.093902
O63   O     O_R   0.108169 0.134215 0.427546 -0.177429
O64   O     O_R   0.192155 0.151719 0.343747 -0.277684
N3    N     N_R   0.206405 0.611322 0.600118 0.095082
O65   O     O_R   0.214489 0.601467 0.669067 -0.235367
O66   O     O_R   0.180725 0.711085 0.575256 -0.329584
N4    N     N_R   0.673525 0.603737 0.410507 0.089812
O67   O     O_R   0.612095 0.637113 0.433163 -0.179988
O68   O     O_R   0.697095 0.645801 0.350072 -0.281761
C109  C     C_2   0.559261 0.383407 0.863530 0.625388
O69   O     O_2   0.603713 0.304891 0.856931 -0.513287
O70   O     O_R   0.552730 0.468824 0.809412 -0.570534
H25   H     H_    0.588195 0.457309 0.769483 0.381489
C110  C     C_2   0.445319 0.394778 0.151635 0.658759
O71   O     O_2   0.418636 0.306669 0.178911 -0.432499
O72   O     O_R   0.442378 0.503091 0.189482 -0.583298
H26   H     H_    0.418303 0.495475 0.237755 0.372093
C111  C     C_2   0.070091 0.872216 0.863629 0.620930
O73   O     O_2   0.109452 0.786239 0.856504 -0.470220
O74   O     O_R   0.069135 0.960107 0.810514 -0.574354
H27   H     H_    0.101800 0.940964 0.769133 0.390125
C112  C     C_2   0.948364 0.898430 0.146518 0.669184
O75   O     O_2   0.903933 0.823410 0.160890 -0.471870
O76   O     O_R   0.959595 0.992589 0.194663 -0.573717
H28   H     H_    0.928104 0.988329 0.238400 0.372275
N5    N     N_R   0.011379 0.101624 0.925189 0.173086
O77   O     O_R   0.978610 0.097699 0.864204 -0.184736
O78   O     O_R   0.018391 0.205734 0.955032 -0.136353
N6    N     N_R   0.032286 0.094611 0.085515 0.140931
O79   O     O_R   0.075852 0.077038 0.137652 -0.283127
O80   O     O_R   0.994394 0.190702 0.088401 -0.148849
N7    N     N_R   0.493460 0.603618 0.926066 0.178426
O81   O     O_R   0.462095 0.601394 0.864301 -0.182692
O82   O     O_R   0.507388 0.706918 0.954237 -0.138092
N8    N     N_R   0.516445 0.596128 0.084612 0.158483
O83   O     O_R   0.565495 0.582134 0.132067 -0.248175
O84   O     O_R   0.476773 0.689726 0.090695 -0.179628
N9    N     N_R   0.764686 0.710641 0.101044 0.137350
O85   O     O_R   0.789488 0.608113 0.079185 -0.322920
O86   O     O_R   0.745968 0.721512 0.167833 -0.223726
N10   N     N_R   0.318787 0.789503 0.911513 0.141964
O87   O     O_R   0.277711 0.730189 0.868784 -0.242030
O88   O     O_R   0.385086 0.795486 0.896609 -0.170897
N11   N     N_R   0.299026 0.221962 0.120256 0.082226
O89   O     O_R   0.341722 0.132887 0.109911 -0.333241
O90   O     O_R   0.266095 0.229549 0.181256 -0.267534
N12   N     N_R   0.839557 0.280730 0.910066 0.134975
O91   O     O_R   0.821045 0.214107 0.856064 -0.266065
O92   O     O_R   0.902350 0.324607 0.910260 -0.196815
N13   N     N_R   0.841033 0.063003 0.023012 0.040611
O93   O     O_R   0.874238 0.088893 0.081277 -0.293981
O94   O     O_R   0.876115 0.061108 0.963407 -0.269745
N14   N     N_R   0.172098 0.153987 0.963077 0.048711
O95   O     O_R   0.143602 0.168354 0.900906 -0.259381
O96   O     O_R   0.150920 0.224972 0.014043 -0.281032
N15   N     N_R   0.322112 0.568530 0.013300 0.026660
O97   O     O_R   0.360208 0.588310 0.069128 -0.306988
O98   O     O_R   0.353443 0.573927 0.951658 -0.248086
N16   N     N_R   0.655434 0.590867 0.958948 0.051844
O99   O     O_R   0.627355 0.631242 0.900594 -0.254806
O100  O     O_R   0.643943 0.652259 0.017075 -0.245171
N17   N     N_R   0.526296 0.935044 0.440207 0.145287
O101  O     O_R   0.585007 0.876276 0.443053 -0.236411
O102  O     O_R   0.472273 0.886627 0.409502 -0.280049
N18   N     N_R   0.544929 0.953170 0.586782 0.122387
O103  O     O_R   0.512728 0.851960 0.576320 -0.234357
O104  O     O_R   0.587159 0.962568 0.641023 -0.261642
N19   N     N_R   0.022886 0.434721 0.439489 0.146290
O105  O     O_R   0.080842 0.373635 0.441585 -0.237237
O106  O     O_R   0.968073 0.389136 0.408688 -0.277950
N20   N     N_R   0.042773 0.451097 0.585878 0.121395
O107  O     O_R   0.008933 0.351471 0.575421 -0.229969
O108  O     O_R   0.085457 0.458167 0.639853 -0.260848
N21   N     N_R   0.527534 0.386718 0.574142 0.135419
O109  O     O_R   0.547919 0.388306 0.640571 -0.280656
O110  O     O_R   0.545581 0.477232 0.534396 -0.215270
N22   N     N_R   0.459399 0.364523 0.429263 0.112835
O111  O     O_R   0.438398 0.350522 0.363532 -0.314818
O112  O     O_R   0.430614 0.451030 0.465963 -0.258078
N23   N     N_R   0.029269 0.885863 0.574308 0.138268
O113  O     O_R   0.048256 0.887663 0.641174 -0.271219
O114  O     O_R   0.049203 0.975157 0.534498 -0.210358
N24   N     N_R   0.960390 0.865590 0.429922 0.115745
O115  O     O_R   0.938736 0.852148 0.364378 -0.321764
O116  O     O_R   0.932423 0.952412 0.467027 -0.259455

loop_
_geom_bond_atom_site_label_1
_geom_bond_atom_site_label_2
_geom_bond_distance
_ccdc_geom_bond_type
C18   O42   1.287205 A    
Cr11  O51   2.010876 S    
O60   H24   1.011897 S    
O4    C12   1.246737 A    
C63   N15   1.438677 S    
C29   C30   1.429129 A    
N20   O108  1.301014 A    
O39   C19   1.308068 A    
O20   Cr12  2.071368 S    
C108  O59   1.218067 D    
C48   C68   1.404442 A    
C87   C91   1.411133 A    
C31   C32   1.423012 A    
O8    Cr4   1.958816 S    
C64   C68   1.431815 A    
C95   C99   1.380145 A    
Cr6   O50   2.010001 S    
Cr7   O51   2.005171 S    
C87   N3    1.447171 S    
C40   C42   1.404963 A    
C33   C34   1.396678 A    
C18   C73   1.472944 S    
O1    C9    1.261581 A    
N15   O97   1.292214 A    
N1    O61   1.301326 A    
O45   C21   1.276790 A    
C61   C65   1.408956 A    
C96   H16   1.083245 S    
C82   C102  1.396514 A    
O5    C1    1.311165 A    
C112  O75   1.223469 D    
C42   N6    1.439951 S    
C94   C98   1.386878 A    
C77   C78   1.418376 A    
O24   C12   1.293322 A    
C45   C65   1.407850 A    
N22   O111  1.301169 A    
N19   O106  1.301206 A    
N7    O81   1.301362 A    
C59   C63   1.381079 A    
C82   H10   1.084226 S    
O25   C21   1.268825 A    
C60   C64   1.371590 A    
O38   C18   1.290132 A    
N4    O68   1.301836 A    
N11   O90   1.301317 A    
C48   C52   1.392341 A    
C99   C103  1.383397 A    
C58   H6    1.074359 S    
C97   C101  1.384654 A    
C47   N11   1.436763 S    
C71   C72   1.385696 A    
N6    O80   1.292752 A    
O21   C9    1.292729 A    
C28   C32   1.417050 A    
C1    C56   1.453196 S    
O23   Cr11  1.942001 S    
N6    O79   1.297878 A    
N13   O94   1.296905 A    
C64   N16   1.452555 S    
N24   O115  1.301133 A    
O30   C14   1.281664 A    
C20   C75   1.474531 S    
C107  O58   1.399384 S    
C1    O9    1.304326 A    
O44   Cr12  2.063197 S    
O7    C3    1.277099 A    
N12   O92   1.297779 A    
C100  C104  1.394905 A    
C11   C67   1.461686 S    
C9    C65   1.453184 S    
C86   C90   1.414825 A    
C3    O11   1.267291 A    
C45   N9    1.442049 S    
O11   Cr7   2.072641 S    
C4    C53   1.436071 S    
C4    O12   1.284799 A    
C31   C39   1.415827 A    
N2    O63   1.300045 A    
C106  O56   1.397968 S    
O47   C23   1.275727 A    
N8    O84   1.293110 A    
C79   C80   1.418363 A    
N23   O114  1.300774 A    
C38   C44   1.406908 A    
O6    Cr2   1.958816 S    
C69   N17   1.434396 S    
C27   C36   1.396088 A    
O3    Cr3   2.070317 S    
N5    O77   1.301739 A    
C46   C50   1.377449 A    
C26   C33   1.398827 A    
C99   H19   1.083251 S    
O2    Cr2   2.075897 S    
C45   C49   1.409114 A    
C56   C60   1.380658 A    
C86   N2    1.435281 S    
C19   C76   1.485008 S    
O2    C10   1.274289 A    
C61   N13   1.436464 S    
C62   C66   1.433636 A    
O42   Cr10  2.063197 S    
Cr5   O49   2.005171 S    
O58   H23   1.013287 S    
O18   Cr10  2.071368 S    
C62   N14   1.448843 S    
C74   C78   1.416987 A    
N17   O101  1.299603 A    
Cr8   O52   2.010001 S    
C71   N19   1.434505 S    
C108  O60   1.398127 S    
C70   C73   1.400925 A    
C85   N1    1.445759 S    
C107  O57   1.213030 D    
C69   C70   1.385422 A    
C72   C75   1.402762 A    
C60   H8    1.066781 S    
C93   C97   1.380898 A    
N10   O88   1.298790 A    
C95   H15   1.083620 S    
C26   C30   1.421090 A    
O35   Cr7   2.070813 S    
C5    C26   1.487472 S    
C84   C104  1.404150 A    
C89   C93   1.405286 A    
C71   C76   1.429524 A    
O24   Cr12  1.945932 S    
O9    Cr5   2.072641 S    
O30   Cr2   1.956708 S    
C70   N18   1.444655 S    
C51   C55   1.416092 A    
C14   C91   1.435650 S    
O22   C10   1.324470 A    
O26   C22   1.302335 A    
C83   H11   1.084515 S    
O54   H21   1.013253 S    
O48   Cr12  1.952102 S    
C8    O20   1.293322 A    
C48   N12   1.432782 S    
C84   H12   1.083738 S    
O32   C16   1.278983 A    
O72   H26   1.013968 S    
N14   O96   1.298923 A    
C2    C55   1.447657 S    
C2    O10   1.315923 A    
C29   C37   1.412582 A    
O70   H25   1.013367 S    
C15   C90   1.461398 S    
O16   Cr8   1.952349 S    
N4    O67   1.300086 A    
N18   O103  1.301851 A    
C15   O35   1.271115 A    
O56   H22   1.012853 S    
C83   C87   1.397711 A    
C109  O69   1.224249 D    
Cr10  O50   2.006040 S    
C43   N7    1.438227 S    
C10   C66   1.449995 S    
C25   C29   1.425968 A    
O13   C5    1.292680 A    
Cr4   O52   1.990868 S    
O28   Cr4   2.077538 S    
C34   C106  1.488486 S    
C81   C85   1.396330 A    
O48   C24   1.279129 A    
O12   Cr8   2.066869 S    
Cr12  O52   2.006040 S    
C54   C58   1.373854 A    
O15   C7    1.288202 A    
N3    O65   1.301245 A    
C53   C57   1.378740 A    
C110  O71   1.219794 D    
C98   C102  1.402520 A    
C37   C109  1.507466 S    
O10   Cr6   2.066869 S    
O46   Cr10  1.952102 S    
O39   Cr7   1.951074 S    
C36   C108  1.475892 S    
C92   C96   1.407904 A    
O45   Cr9   1.951866 S    
O74   H27   1.013415 S    
C50   H2    1.058169 S    
C13   O33   1.275211 A    
O8    C4    1.261913 A    
Cr1   O49   1.990979 S    
C35   C107  1.477807 S    
O13   Cr5   1.952426 S    
C111  O73   1.223944 D    
N11   O89   1.297652 A    
C49   C53   1.413525 A    
N20   O107  1.301920 A    
N7    O82   1.293952 A    
C78   N22   1.451877 S    
O29   C13   1.276841 A    
Cr2   O50   1.990868 S    
C47   C67   1.414195 A    
O15   Cr7   1.952426 S    
O32   Cr4   1.956708 S    
N5    O78   1.294036 A    
C58   C62   1.378030 A    
C98   H18   1.082886 S    
N16   O100  1.299100 A    
C69   C74   1.430689 A    
C49   H1    1.082847 S    
C88   C92   1.406692 A    
Cr3   O51   1.990979 S    
O14   Cr6   1.952349 S    
N3    O66   1.301860 A    
N19   O105  1.299917 A    
C110  O72   1.398731 S    
O21   Cr9   1.942001 S    
C90   C94   1.402533 A    
O28   C24   1.264410 A    
C7    O19   1.296930 A    
N22   O112  1.301536 A    
N17   O102  1.301048 A    
C57   H5    1.080178 S    
C24   C104  1.445235 S    
O37   Cr5   1.951074 S    
C39   C41   1.416619 A    
O23   C11   1.289265 A    
C19   O43   1.272628 A    
O38   Cr6   1.946095 S    
C3    C54   1.433114 S    
C109  O70   1.395407 S    
C43   C44   1.421593 A    
O3    C11   1.267499 A    
C8    C27   1.497316 S    
C21   C101  1.431858 S    
C55   C59   1.392782 A    
N13   O93   1.293492 A    
O76   H28   1.013754 S    
O47   Cr11  1.951866 S    
N10   O87   1.301985 A    
O31   Cr3   1.951960 S    
C72   N20   1.444723 S    
C94   H14   1.083077 S    
O25   Cr1   2.080870 S    
C57   C61   1.379429 A    
N15   O98   1.296594 A    
C32   C40   1.411957 A    
C5    O17   1.288742 A    
C23   C103  1.431090 S    
C16   C89   1.434676 S    
O37   C17   1.308161 A    
O22   Cr10  1.945932 S    
C52   C56   1.388798 A    
N8    O83   1.301470 A    
O14   C6    1.292845 A    
C41   N5    1.443605 S    
C82   C86   1.387448 A    
O5    Cr1   1.962619 S    
C80   N24   1.451372 S    
C76   C80   1.416768 A    
N9    O85   1.300784 A    
N14   O95   1.293553 A    
O17   Cr9   2.071161 S    
C79   N23   1.448734 S    
O6    C2    1.312496 A    
O7    Cr3   1.962619 S    
C28   C35   1.385921 A    
C17   O41   1.271888 A    
C46   N10   1.424298 S    
C39   C111  1.500999 S    
C44   N8    1.442400 S    
C41   C42   1.425566 A    
C14   O34   1.269042 A    
C51   H3    1.082714 S    
O40   Cr8   1.946095 S    
C35   C36   1.400892 A    
C91   C95   1.404300 A    
C25   C34   1.393072 A    
C20   O44   1.286576 A    
C63   C67   1.404132 A    
C88   N4    1.437889 S    
N21   O110  1.300524 A    
N12   O91   1.301325 A    
N9    O86   1.300756 A    
N21   O109  1.300843 A    
C22   C102  1.455364 S    
O1    Cr1   2.070317 S    
C112  O76   1.397960 S    
N2    O64   1.301602 A    
O41   Cr9   2.060108 S    
O33   Cr5   2.070813 S    
C84   C88   1.381074 A    
C47   C51   1.420916 A    
C93   H13   1.084482 S    
C96   C100  1.384242 A    
C40   C112  1.507367 S    
O46   C22   1.304341 A    
C81   C101  1.403037 A    
C97   H17   1.082533 S    
C75   C79   1.414997 A    
C73   C77   1.415054 A    
O34   Cr6   2.071108 S    
C33   C105  1.480352 S    
C111  O74   1.395564 S    
C6    C25   1.499430 S    
O26   Cr2   2.077538 S    
N24   O116  1.301644 A    
C12   C68   1.444649 S    
C17   C74   1.484236 S    
C81   H9    1.084562 S    
C105  O53   1.215581 D    
C13   C92   1.449862 S    
Cr9   O49   2.010876 S    
O4    Cr4   2.075897 S    
N16   O99   1.296781 A    
C46   C66   1.403469 A    
O29   Cr1   1.951960 S    
O19   Cr11  2.071161 S    
C50   C54   1.375123 A    
N23   O113  1.300845 A    
C52   H4    1.061942 S    
C16   O36   1.270713 A    
O40   C20   1.291690 A    
C30   C38   1.427786 A    
C27   C31   1.425696 A    
N18   O104  1.301253 A    
C106  O55   1.222896 D    
C6    O18   1.294092 A    
O43   Cr11  2.060108 S    
C37   C43   1.411676 A    
C77   N21   1.448876 S    
C7    C28   1.494265 S    
C83   C103  1.403499 A    
C105  O54   1.399581 S    
O36   Cr8   2.071108 S    
N1    O62   1.301215 A    
O31   C15   1.285821 A    
O16   C8    1.292740 A    
O27   Cr3   2.080870 S    
C85   C89   1.409883 A    
C100  H20   1.083468 S    
C38   C110  1.514771 S    
C59   H7    1.084209 S    
O27   C23   1.269130 A    
