data_mof_unit_1304.cif
_audit_creation_date              2012-12-10T18:38:36-0500
_audit_creation_method            fapswitch 2.2
_symmetry_space_group_name_H-M    P1
_symmetry_Int_Tables_number       1
_space_group_crystal_system       triclinic
_cell_length_a                    15.844249
_cell_length_b                    15.110162
_cell_length_c                    13.935864
_cell_angle_alpha                 88.894433
_cell_angle_beta                  88.14557
_cell_angle_gamma                 91.31879
_cell_volume                      3333.07247023

loop_
_atom_site_label
_atom_site_type_symbol
_atom_type_description
_atom_site_fract_x
_atom_site_fract_y
_atom_site_fract_z
_atom_type_partial_charge
C1    C     C_R   0.503064 0.329877 0.500258 0.789225
C2    C     C_R   0.501881 0.669850 0.499174 0.796721
C3    C     C_R   0.477759 0.184702 0.581343 -0.255599
C4    C     C_R   0.455530 0.810823 0.430503 -0.266109
C5    C     C_R   0.507522 0.232765 0.499853 -0.091627
C6    C     C_R   0.504395 0.766323 0.497327 -0.069878
C7    C     C_R   0.537554 0.186911 0.418195 -0.005974
C8    C     C_R   0.553065 0.814597 0.562378 -0.007161
C9    C     C_R   0.531621 0.094731 0.418742 -0.203683
C10   C     C_R   0.548871 0.906454 0.561518 -0.199293
C11   C     C_R   0.498494 0.047507 0.499163 0.044234
C12   C     C_R   0.498291 0.950765 0.496761 0.036104
C13   C     C_R   0.553094 0.557585 0.103810 -0.316715
C14   C     C_R   0.433785 0.468196 0.898649 -0.310546
C15   C     C_R   0.551191 0.558690 0.204765 0.188416
C16   C     C_R   0.432053 0.468511 0.797884 0.181672
C17   C     C_R   0.452637 0.438530 0.212605 0.094639
C18   C     C_R   0.569994 0.530622 0.786507 0.075204
C19   C     C_R   0.454631 0.434754 0.111475 -0.287702
C20   C     C_R   0.574224 0.529022 0.887740 -0.290599
C21   C     C_R   0.504960 0.495574 0.054808 0.122693
C22   C     C_R   0.505139 0.497040 0.946025 0.121124
C23   C     C_R   0.339816 0.500231 0.501180 0.834034
C24   C     C_R   0.660078 0.500127 0.498532 0.828987
C25   C     C_3   0.974464 0.419186 0.488256 0.067648
C26   C     C_3   0.025305 0.587962 0.501565 0.065207
C27   C     C_3   0.034228 0.469086 0.414957 -0.198523
C28   C     C_3   0.965550 0.538026 0.574955 -0.206460
C29   C     C_1   0.250102 0.502581 0.502999 -0.170929
C30   C     C_1   0.749644 0.500041 0.494706 -0.203561
C31   C     C_3   0.024114 0.457097 0.572158 -0.209173
C32   C     C_3   0.975219 0.549973 0.417699 -0.212281
C33   C     C_3   0.083047 0.507594 0.498965 0.137223
C34   C     C_3   0.916720 0.499336 0.491181 0.141311
C35   C     C_1   0.174591 0.505123 0.502022 -0.086901
C36   C     C_1   0.825174 0.499763 0.491913 -0.108361
C37   C     C_R   0.472741 0.092462 0.582623 0.018268
C38   C     C_R   0.452311 0.903100 0.428737 0.009397
Cu1   Cu    Cu3+1 0.500000 0.499990 0.596430 0.949756
Cu2   Cu    Cu3+1 0.500000 0.500010 0.403570 0.948277
N1    N     N_R   0.500000 0.500020 0.258690 -0.184459
N2    N     N_R   0.500000 0.499980 0.741310 -0.188601
O1    O     O_R   0.500010 0.371450 0.581430 -0.583192
O2    O     O_R   0.499990 0.628550 0.418570 -0.582130
O3    O     O_R   0.500010 0.371460 0.418560 -0.577885
O4    O     O_R   0.499990 0.628540 0.581440 -0.572952
O5    O     O_R   0.379080 0.499990 0.581420 -0.570181
O6    O     O_R   0.620920 0.500010 0.418580 -0.577862
O7    O     O_R   0.379080 0.500000 0.418550 -0.586328
O8    O     O_R   0.620920 0.500000 0.581450 -0.588292
H1    H     H_    0.063011 0.440718 0.349030 0.137760
H2    H     H_    0.936926 0.566319 0.641016 0.130296
H3    H     H_    0.413802 0.391048 0.254200 0.125517
H4    H     H_    0.623971 0.555763 0.744593 0.156101
H5    H     H_    0.417572 0.383353 0.078514 0.125774
H6    H     H_    0.631990 0.551892 0.919435 0.128414
C39   C     C_R   0.955017 0.321508 0.480076 0.106830
C40   C     C_R   0.020372 0.261185 0.491357 -0.164279
C41   C     C_R   0.004496 0.170215 0.483818 -0.138691
C42   C     C_R   0.923377 0.138682 0.464434 -0.104350
C43   C     C_R   0.858160 0.198138 0.452186 -0.135984
C44   C     C_R   0.873834 0.289189 0.459715 -0.150864
H7    H     H_    0.083662 0.284652 0.506166 0.125310
H8    H     H_    0.055120 0.124189 0.492894 0.116986
H9    H     H_    0.911143 0.068248 0.458554 0.115064
H10   H     H_    0.795446 0.173666 0.436524 0.128796
H11   H     H_    0.822699 0.333567 0.448519 0.125165
C45   C     C_R   0.045049 0.685746 0.508480 0.103205
C46   C     C_R   0.978258 0.745355 0.506805 -0.159544
C47   C     C_R   0.994259 0.836494 0.512095 -0.131765
C48   C     C_R   0.077040 0.868988 0.519157 -0.107929
C49   C     C_R   0.143882 0.810340 0.521144 -0.135743
C50   C     C_R   0.128124 0.719091 0.515932 -0.147697
H12   H     H_    0.913739 0.721195 0.501030 0.121187
H13   H     H_    0.942461 0.881930 0.510564 0.121016
H14   H     H_    0.089390 0.939564 0.523097 0.112962
H15   H     H_    0.208023 0.835605 0.526675 0.124800
H16   H     H_    0.181043 0.675634 0.517775 0.130287
H17   H     H_    0.954636 0.587805 0.353873 0.129587
H18   H     H_    0.041772 0.417989 0.636066 0.126140
C51   C     C_R   0.441760 0.045559 0.672416 0.100595
C52   C     C_R   0.376519 0.980816 0.671305 -0.135438
C53   C     C_R   0.349161 0.936603 0.756120 -0.135432
C54   C     C_R   0.386061 0.956903 0.842921 -0.120546
C55   C     C_R   0.450330 0.021586 0.845087 -0.145549
C56   C     C_R   0.478049 0.065830 0.760406 -0.170821
H19   H     H_    0.346725 0.964221 0.605194 0.112681
H20   H     H_    0.299219 0.886606 0.754517 0.126406
H21   H     H_    0.364787 0.922606 0.908519 0.118169
H22   H     H_    0.478860 0.037302 0.912396 0.123123
H23   H     H_    0.528525 0.115185 0.763283 0.126856
C57   C     C_R   0.402036 0.947587 0.354458 0.108205
C58   C     C_R   0.338808 0.007444 0.379943 -0.132783
C59   C     C_R   0.293615 0.050397 0.308983 -0.137158
C60   C     C_R   0.310840 0.033879 0.212110 -0.117887
C61   C     C_R   0.373119 0.974133 0.186027 -0.140129
C62   C     C_R   0.418418 0.930982 0.256768 -0.167699
H24   H     H_    0.324461 0.021270 0.454377 0.111223
H25   H     H_    0.245263 0.096608 0.329144 0.123313
H26   H     H_    0.275925 0.067353 0.157264 0.121974
H27   H     H_    0.386532 0.961485 0.110937 0.119619
H28   H     H_    0.467154 0.885730 0.235279 0.115458
H29   H     H_    0.456537 0.219082 0.643995 0.152201
H30   H     H_    0.418558 0.773347 0.380480 0.152900
C63   C     C_R   0.579444 0.232219 0.333469 0.127960
C64   C     C_R   0.548516 0.219934 0.241177 -0.170236
C65   C     C_R   0.587667 0.263618 0.161675 -0.136773
C66   C     C_R   0.657940 0.319489 0.173666 -0.105050
C67   C     C_R   0.689837 0.330962 0.265038 -0.124979
C68   C     C_R   0.651041 0.287247 0.344623 -0.098278
H31   H     H_    0.493574 0.177532 0.231065 0.135901
H32   H     H_    0.563105 0.254721 0.090841 0.127712
H33   H     H_    0.687699 0.353796 0.112150 0.121545
H34   H     H_    0.744549 0.373780 0.274300 0.115939
H35   H     H_    0.675986 0.296916 0.415146 0.089448
C69   C     C_R   0.612911 0.772513 0.627832 0.121801
C70   C     C_R   0.606332 0.786735 0.727131 -0.136117
C71   C     C_R   0.666199 0.752128 0.788202 -0.149641
C72   C     C_R   0.733471 0.704035 0.750543 -0.144453
C73   C     C_R   0.740449 0.689612 0.651884 -0.143650
C74   C     C_R   0.680314 0.723414 0.590651 -0.134541
H36   H     H_    0.555112 0.824925 0.757024 0.138179
H37   H     H_    0.660702 0.763001 0.864665 0.128750
H38   H     H_    0.779955 0.677599 0.797840 0.124033
H39   H     H_    0.792674 0.652574 0.622863 0.131634
H40   H     H_    0.687048 0.712617 0.514284 0.121846
H41   H     H_    0.555282 0.059069 0.357010 0.139613
H42   H     H_    0.586899 0.944247 0.610324 0.144944
H43   H     H_    0.591794 0.606629 0.064081 0.132257
H44   H     H_    0.378075 0.445127 0.939702 0.135874
C75   C     C_R   0.607029 0.624996 0.248332 0.153846
C76   C     C_R   0.690999 0.604636 0.267172 -0.122418
C77   C     C_R   0.745966 0.669469 0.301715 -0.165092
C78   C     C_R   0.718521 0.755891 0.313807 -0.141803
C79   C     C_R   0.636441 0.777812 0.290219 -0.142019
C80   C     C_R   0.581226 0.712920 0.256158 -0.142010
H45   H     H_    0.713619 0.538467 0.255772 0.122307
H46   H     H_    0.809986 0.652878 0.318431 0.129035
H47   H     H_    0.761102 0.806025 0.340543 0.127592
H48   H     H_    0.615707 0.845110 0.298112 0.134538
H49   H     H_    0.518162 0.730738 0.236643 0.114130
C81   C     C_R   0.355316 0.429325 0.758891 0.159427
C82   C     C_R   0.281411 0.478644 0.755743 -0.140517
C83   C     C_R   0.205250 0.437757 0.731608 -0.138571
C84   C     C_R   0.202346 0.347458 0.711045 -0.121277
C85   C     C_R   0.275162 0.297530 0.717546 -0.155092
C86   C     C_R   0.350881 0.338107 0.743776 -0.138988
H50   H     H_    0.282799 0.548287 0.772819 0.118771
H51   H     H_    0.148654 0.476268 0.729613 0.128473
H52   H     H_    0.143459 0.315598 0.692354 0.118553
H53   H     H_    0.272389 0.227046 0.705077 0.134626
H54   H     H_    0.405188 0.298454 0.757175 0.111955

loop_
_geom_bond_atom_site_label_1
_geom_bond_atom_site_label_2
_ccdc_geom_bond_type
C25   C31   S    
C63   C68   A    
C26   C32   S    
C58   C59   A    
C16   N2    A    
C65   H32   S    
C60   C61   A    
C20   H6    S    
C84   C85   A    
C79   C80   A    
C72   H38   S    
C27   C33   S    
C41   H8    S    
C9    H41   S    
C44   H11   S    
C1    C5    S    
C23   C29   S    
C19   C21   A    
C56   H23   S    
C18   N2    A    
C48   H14   S    
C23   O7    A    
C15   C75   S    
C64   C65   A    
C19   H5    S    
C82   C83   A    
C38   C57   S    
C69   C70   A    
Cu2   O6    S    
C11   C37   A    
C71   C72   A    
C17   C19   A    
C43   H10   S    
C1    O1    A    
C2    O2    A    
C45   C46   A    
C50   H16   S    
C7    C63   S    
C47   C48   A    
C66   C67   A    
C18   C20   A    
C84   H52   S    
C25   C34   S    
C53   H20   S    
C28   C34   S    
C41   C42   A    
C21   C22   S    
C37   C51   S    
C2    C6    S    
C25   C39   S    
C10   H42   S    
C27   H1    S    
C57   C62   A    
C51   C52   A    
Cu1   N2    S    
C17   N1    A    
C64   H31   S    
C24   O8    A    
C79   H48   S    
C55   H22   S    
C68   H35   S    
C23   O5    A    
C69   C74   A    
C24   O6    A    
C31   H18   S    
C61   H27   S    
C54   C55   A    
C15   N1    A    
C4    C6    A    
C75   C80   A    
C78   H47   S    
C5    C7    A    
C8    C69   S    
C73   H39   S    
C83   C84   A    
C6    C8    A    
C39   C44   A    
C40   C41   A    
C55   C56   A    
C2    O4    A    
C42   C43   A    
C32   C34   S    
C66   H33   S    
C16   C81   S    
C70   H36   S    
C49   H15   S    
C26   C33   S    
C53   C54   A    
Cu2   O2    S    
C65   C66   A    
C61   C62   A    
C31   C33   S    
C51   C56   A    
C13   C21   A    
C46   H12   S    
C9    C11   A    
Cu2   O7    S    
C10   C12   A    
C67   H34   S    
Cu1   O4    S    
C46   C47   A    
Cu2   N1    S    
C4    C38   A    
C42   H9    S    
C59   C60   A    
C13   C15   A    
C77   C78   A    
C14   C16   A    
C54   H21   S    
C75   C76   A    
C17   H3    S    
Cu1   Cu2   S    
C73   C74   A    
Cu1   O5    S    
C85   C86   A    
C14   H44   S    
C3    H29   S    
C40   H7    S    
C7    C9    A    
C83   H51   S    
C27   C32   S    
C60   H26   S    
C81   C86   A    
C28   C31   S    
C62   H28   S    
C20   C22   A    
C49   C50   A    
C3    C5    A    
Cu1   O1    S    
C72   C73   A    
C78   C79   A    
C25   C27   S    
C63   C64   A    
C29   C35   T    
C26   C28   S    
C30   C36   T    
C26   C45   S    
C14   C22   A    
C86   H54   S    
C45   C50   A    
C74   H40   S    
C70   C71   A    
C32   H17   S    
C28   H2    S    
C1    O3    A    
C39   C40   A    
C59   H25   S    
C4    H30   S    
C57   C58   A    
C33   C35   S    
C80   H49   S    
C76   C77   A    
C34   C36   S    
C71   H37   S    
C12   C38   A    
C43   C44   A    
C24   C30   S    
C82   H50   S    
C18   H4    S    
C85   H53   S    
C77   H46   S    
Cu1   O8    S    
C48   C49   A    
Cu2   O3    S    
C3    C37   A    
C8    C10   A    
C52   C53   A    
C47   H13   S    
C13   H43   S    
C81   C82   A    
C76   H45   S    
C67   C68   A    
C58   H24   S    
C52   H19   S    
C11   C12   S    
