data_mof_unit_1371.cif
_audit_creation_date              2013-03-05T16:41:45-0500
_audit_creation_method            fapswitch 2.2
_symmetry_space_group_name_H-M    P1
_symmetry_Int_Tables_number       1
_space_group_crystal_system       triclinic
_cell_length_a                    10.676674
_cell_length_b                    10.79799
_cell_length_c                    9.90351
_cell_angle_alpha                 91.229773
_cell_angle_beta                  85.294701
_cell_angle_gamma                 90.719803
_cell_volume                      1137.5653404

loop_
_atom_site_label
_atom_site_type_symbol
_atom_site_description
_atom_site_fract_x
_atom_site_fract_y
_atom_site_fract_z
_atom_type_partial_charge
O1    O     O_R   0.500020 0.316790 0.614690 -0.599314
O2    O     O_R   0.500000 0.316760 0.385350 -0.570114
C1    C     C_R   0.510187 0.260908 0.497780 0.938532
O3    O     O_R   0.316770 0.500020 0.614690 -0.597657
O4    O     O_R   0.316760 0.499980 0.385350 -0.597179
C2    C     C_R   0.258857 0.501906 0.506514 0.921186
Zn1   Zn    Zn3+2 0.500010 0.500020 0.653130 1.058421
Zn2   Zn    Zn3+2 0.499990 0.499980 0.346870 1.069321
O5    O     O_R   0.500000 0.683240 0.614650 -0.593102
O6    O     O_R   0.499980 0.683210 0.385310 -0.641036
O7    O     O_R   0.683240 0.500020 0.614650 -0.627680
O8    O     O_R   0.683230 0.499980 0.385310 -0.575301
C3    C     C_R   0.505187 0.739985 0.500620 0.954954
C4    C     C_R   0.740031 0.502346 0.493842 0.893326
C5    C     C_R   0.076077 0.352822 0.698028 0.308552
C6    C     C_R   0.014249 0.239529 0.726357 -0.136026
C7    C     C_R   0.917797 0.198106 0.648682 0.305856
C8    C     C_R   0.868438 0.282286 0.561645 -0.173165
C9    C     C_R   0.930133 0.396907 0.536168 -0.022407
C10   C     C_R   0.048488 0.416542 0.581550 -0.036836
C11   C     C_R   0.124022 0.512052 0.522464 -0.107861
C12   C     C_R   0.070566 0.606927 0.454703 -0.103147
C13   C     C_R   0.943021 0.603927 0.437670 0.316653
C14   C     C_R   0.873437 0.497127 0.478321 -0.139833
C15   C     C_R   0.513946 0.066970 0.615171 -0.062764
C16   C     C_R   0.534206 0.130336 0.495094 -0.177631
C17   C     C_R   0.577706 0.061887 0.376695 0.322016
C18   C     C_R   0.567763 0.931637 0.379412 -0.140567
C19   C     C_R   0.525789 0.871530 0.500309 -0.094574
C20   C     C_R   0.513023 0.942214 0.619081 0.017331
C21   C     C_3   0.446439 0.941259 0.759464 0.296926
C22   C     C_3   0.446287 0.084242 0.752848 0.386542
C23   C     C_R   0.391830 0.520271 0.081129 0.223129
N1    N     N_R   0.499160 0.499140 0.142800 -0.156703
C24   C     C_R   0.603842 0.465618 0.062066 0.008104
C25   C     C_R   0.603682 0.465146 0.918531 0.018577
N2    N     N_R   0.499160 0.499180 0.857150 -0.133102
C26   C     C_R   0.393539 0.523356 0.938429 0.212932
C27   C     C_3   0.329216 0.643486 0.943452 -0.398444
C28   C     C_3   0.317411 0.636921 0.096006 0.050476
H1    H     H_    0.128560 0.683404 0.415879 0.197267
N3    N     N_R   0.524897 0.894831 0.862009 0.200404
O9    O     O_R   0.627639 0.834433 0.826885 -0.301508
O10   O     O_R   0.489725 0.910311 0.990115 -0.316106
N4    N     N_R   0.320321 0.135799 0.751041 0.209361
O11   O     O_R   0.249023 0.141264 0.863740 -0.257133
O12   O     O_R   0.270222 0.150807 0.637104 -0.418382
N5    N     N_R   0.521937 0.149500 0.850317 0.235882
O13   O     O_R   0.637682 0.182602 0.816614 -0.375794
O14   O     O_R   0.472748 0.177061 0.971619 -0.268197
H2    H     H_    0.688437 0.441323 0.107957 0.202478
H3    H     H_    0.688356 0.439544 0.857616 0.185789
H4    H     H_    0.396090 0.714150 0.905223 0.216525
H5    H     H_    0.240264 0.642641 0.894951 0.296989
H6    H     H_    0.364397 0.713911 0.149436 0.162462
N6    N     N_R   0.186249 0.616990 0.146631 0.232552
O15   O     O_R   0.141956 0.506081 0.171145 -0.305336
O16   O     O_R   0.108825 0.709162 0.148423 -0.262001
N7    N     N_R   0.119543 0.423281 0.809108 0.208461
O17   O     O_R   0.066018 0.529191 0.838398 -0.347463
O18   O     O_R   0.173401 0.368183 0.903879 -0.300187
H7    H     H_    0.033590 0.188719 0.814860 0.257394
N8    N     N_R   0.863563 0.076538 0.666693 0.269952
O19   O     O_R   0.798546 0.026967 0.573781 -0.336591
O20   O     O_R   0.890282 0.009242 0.767740 -0.232129
H8    H     H_    0.782039 0.259646 0.516527 0.180504
N9    N     N_R   0.886529 0.709333 0.381190 0.220516
O21   O     O_R   0.808758 0.694432 0.287588 -0.330332
O22   O     O_R   0.928679 0.820315 0.406470 -0.264704
N10   N     N_R   0.636773 0.120547 0.258209 0.244029
O23   O     O_R   0.708205 0.217846 0.271342 -0.377839
O24   O     O_R   0.643592 0.061986 0.141794 -0.227474
H9    H     H_    0.593297 0.877704 0.288044 0.229163
N11   N     N_R   0.319593 0.885100 0.766888 0.190232
O25   O     O_R   0.247159 0.894129 0.878867 -0.253912
O26   O     O_R   0.273422 0.836577 0.659963 -0.383260

loop_
_geom_bond_atom_site_label_1
_geom_bond_atom_site_label_2
_geom_bond_distance
_ccdc_geom_bond_type
N8    O20   1.301583 A    
C21   N3    1.468442 S    
C22   N4    1.463629 S    
C9    C10   1.387835 A    
N4    O11   1.299071 A    
Zn1   O7    1.962134 S    
C16   C17   1.420911 A    
N2    C26   1.355433 A    
N11   O26   1.301617 A    
O4    C2    1.303863 A    
C3    C19   1.434644 S    
C25   N2    1.371542 A    
C8    C9    1.412460 A    
C20   C21   1.508859 S    
O7    C4    1.296764 A    
C12   H1    1.083923 S    
C4    C14   1.421711 S    
C5    C6    1.405373 A    
N6    O15   1.302391 A    
N1    C24   1.367695 A    
C13   N9    1.439457 S    
O5    C3    1.293219 A    
C24   C25   1.421543 A    
C6    C7    1.398539 A    
C28   N6    1.463083 S    
C13   C14   1.411830 A    
N10   O23   1.301025 A    
C25   H3    1.080411 S    
C15   C22   1.498860 S    
N5    O14   1.301007 A    
N7    O17   1.301376 A    
C11   C12   1.390195 A    
C22   N5    1.471420 S    
N3    O10   1.301109 A    
O3    Zn1   2.023510 S    
C18   H9    1.083120 S    
C23   N1    1.365870 A    
N4    O12   1.301785 A    
C5    C10   1.409155 A    
N7    O18   1.298702 A    
C23   C28   1.495842 S    
N11   O25   1.301527 A    
N9    O21   1.300451 A    
C26   C27   1.473347 S    
O3    C2    1.280775 A    
C27   C28   1.508844 S    
C21   N11   1.473838 S    
C15   C16   1.384961 A    
C2    C11   1.440579 S    
O1    C1    1.291308 A    
C19   C20   1.386538 A    
C21   C22   1.546749 S    
Zn2   O8    2.023509 S    
C28   H6    1.112184 S    
C7    C8    1.402551 A    
Zn1   N2    2.020004 S    
Zn2   N1    2.021581 S    
C17   N10   1.440940 S    
N5    O13   1.301020 A    
O8    C4    1.276361 A    
C24   H2    1.081452 S    
N3    O9    1.302019 A    
C15   C20   1.348388 A    
Zn1   O5    2.022794 S    
C18   C19   1.411967 A    
O1    Zn1   2.006768 S    
C5    N7    1.429457 S    
C1    C16   1.435507 S    
O2    Zn2   2.022794 S    
O6    C3    1.289392 A    
O4    Zn2   1.962136 S    
C8    H8    1.080558 S    
C23   C26   1.412960 A    
C9    C14   1.402029 A    
C7    N8    1.436757 S    
C27   H4    1.090729 S    
N6    O16   1.300650 A    
O2    C1    1.290606 A    
N8    O19   1.299754 A    
C27   H5    1.098725 S    
C10   C11   1.408538 A    
Zn2   O6    2.006768 S    
C17   C18   1.409774 A    
C12   C13   1.385717 A    
N10   O24   1.300178 A    
N9    O22   1.301293 A    
C6    H7    1.079386 S    
