data_mof_unit_1195.cif
_audit_creation_date              2013-03-05T16:44:35-0500
_audit_creation_method            fapswitch 2.2
_symmetry_space_group_name_H-M    P1
_symmetry_Int_Tables_number       1
_space_group_crystal_system       triclinic
_cell_length_a                    27.365171
_cell_length_b                    10.642318
_cell_length_c                    9.846602
_cell_angle_alpha                 89.758873
_cell_angle_beta                  90.756777
_cell_angle_gamma                 90.168869
_cell_volume                      2867.32707736

loop_
_atom_site_label
_atom_site_type_symbol
_atom_site_description
_atom_site_fract_x
_atom_site_fract_y
_atom_site_fract_z
_atom_type_partial_charge
O1    O     O_R   0.500010 0.316790 0.614690 -0.620156
O2    O     O_R   0.500000 0.316760 0.385350 -0.617940
C1    C     C_R   0.502287 0.259899 0.500350 0.884989
O3    O     O_R   0.428760 0.500040 0.614660 -0.607851
O4    O     O_R   0.428750 0.500000 0.385310 -0.630772
C2    C     C_R   0.406053 0.497175 0.499081 0.886463
Zn1   Zn    Zn3+2 0.500000 0.500020 0.653130 0.939289
Zn2   Zn    Zn3+2 0.500000 0.499980 0.346870 0.939596
O5    O     O_R   0.500000 0.683240 0.614650 -0.613312
O6    O     O_R   0.499990 0.683210 0.385310 -0.624175
O7    O     O_R   0.571250 0.500000 0.614690 -0.623572
O8    O     O_R   0.571240 0.499960 0.385340 -0.621792
C3    C     C_R   0.501727 0.740218 0.499772 0.889626
C4    C     C_R   0.594331 0.498478 0.501279 0.880686
C5    C     C_R   0.175195 0.343051 0.484817 0.506503
O9    O     O_2   0.197321 0.260605 0.402093 -0.568864
N1    N     N_R   0.201466 0.439165 0.542274 -0.348415
C6    C     C_R   0.179654 0.526755 0.622625 0.508787
C7    C     C_R   0.272551 0.558114 0.461777 -0.082576
C8    C     C_R   0.322878 0.572326 0.452304 -0.291839
C9    C     C_R   0.334301 0.361394 0.545334 0.157956
C10   C     C_R   0.283741 0.349679 0.558110 -0.096487
C11   C     C_R   0.252897 0.448449 0.518808 0.251044
C12   C     C_R   0.102039 0.419856 0.592760 -0.055482
C13   C     C_R   0.125136 0.330867 0.510110 -0.020219
C14   C     C_R   0.097300 0.236559 0.448005 -0.143696
C15   C     C_R   0.129401 0.520809 0.645852 -0.017387
C16   C     C_R   0.353735 0.476214 0.497838 -0.055616
H1    H     H_    0.268145 0.264440 0.599937 0.155878
H2    H     H_    0.113547 0.171628 0.377315 0.189977
C17   C     C_R   0.647640 0.488531 0.507792 -0.089453
C18   C     C_R   0.973047 0.302538 0.582682 0.048640
C19   C     C_R   0.975801 0.505709 0.700984 -0.007540
C20   C     C_R   0.949169 0.410731 0.632686 -0.004912
C21   C     C_R   0.944032 0.193695 0.554504 0.138670
C22   C     C_R   0.894028 0.209922 0.529452 -0.196134
C23   C     C_R   0.871706 0.326106 0.550862 -0.022305
C24   C     C_R   0.898341 0.423884 0.613435 -0.100206
C25   C     C_R   0.874567 0.535778 0.652745 -0.074272
C26   C     C_R   0.825033 0.550712 0.612396 0.512773
N2    N     N_R   0.800622 0.455487 0.547777 -0.358144
C27   C     C_R   0.822347 0.343766 0.519708 0.501750
C28   C     C_R   0.719868 0.443501 0.641932 -0.130153
C29   C     C_R   0.669780 0.454957 0.631769 -0.212141
C30   C     C_R   0.676518 0.510352 0.393197 -0.204656
C31   C     C_R   0.727866 0.500277 0.402557 0.215219
C32   C     C_R   0.748946 0.466087 0.529215 0.266397
O10   O     O_2   0.795980 0.250024 0.462468 -0.565438
C33   C     C_R   0.024015 0.309549 0.561488 0.038273
C34   C     C_R   0.051203 0.411084 0.617183 0.070219
C35   C     C_R   0.027482 0.508276 0.689244 0.059226
C36   C     C_R   0.047401 0.228742 0.470046 -0.214025
H3    H     H_    0.648380 0.436365 0.721470 0.167438
H4    H     H_    0.736480 0.417377 0.738441 0.141562
H5    H     H_    0.872091 0.129941 0.498036 0.187130
H6    H     H_    0.027032 0.166393 0.404860 0.146681
O11   O     O_2   0.206593 0.619144 0.680388 -0.566363
C37   C     C_R   0.105776 0.616797 0.714954 -0.144552
H7    H     H_    0.337819 0.659407 0.413062 0.152303
H8    H     H_    0.248809 0.633859 0.428804 0.160334
H9    H     H_    0.125644 0.698671 0.750793 0.190310
C38   C     C_R   0.949157 0.595413 0.776403 0.177228
C39   C     C_R   0.900279 0.622416 0.737964 0.177889
O12   O     O_2   0.800751 0.657909 0.637626 -0.569275
C40   C     C_R   0.055539 0.613313 0.730718 -0.226247
H10   H     H_    0.658644 0.536150 0.298623 0.164528
H11   H     H_    0.039240 0.697463 0.769576 0.166895
C41   C     C_R   0.517690 0.063512 0.622696 0.146130
C42   C     C_R   0.512114 0.129033 0.500586 -0.135349
C43   C     C_R   0.517464 0.065703 0.376902 -0.211648
H12   H     H_    0.518109 0.115063 0.280544 0.168320
C44   C     C_R   0.516804 0.935947 0.376320 -0.220160
H13   H     H_    0.516961 0.887688 0.279657 0.171430
C45   C     C_R   0.510892 0.871418 0.499456 -0.106486
C46   C     C_R   0.516383 0.935316 0.621770 0.086740
C47   C     C_3   0.488221 0.927236 0.750636 -0.475260
C48   C     C_3   0.490346 0.070240 0.753473 -0.035116
H14   H     H_    0.450588 0.890007 0.734315 0.185152
H15   H     H_    0.509387 0.879697 0.833165 0.212916
H16   H     H_    0.453940 0.115623 0.742857 0.167401
C49   C     C_R   0.467270 0.427250 0.070672 0.223381
N3    N     N_R   0.499670 0.499140 0.142800 -0.124685
C50   C     C_R   0.535094 0.562109 0.072998 -0.139058
H17   H     H_    0.562711 0.614791 0.128193 0.149456
C51   C     C_R   0.535168 0.561839 0.928931 -0.140198
H18   H     H_    0.562869 0.614167 0.875220 0.151616
N4    N     N_R   0.499670 0.499180 0.857150 -0.109189
C52   C     C_R   0.466885 0.428832 0.927791 0.166597
C53   C     C_3   0.412609 0.441104 0.920207 -0.498962
C54   C     C_3   0.412695 0.436834 0.074721 -0.097588
H19   H     H_    0.400890 0.533620 0.878405 0.204158
H20   H     H_    0.394705 0.359444 0.870811 0.208262
H21   H     H_    0.400309 0.526964 0.119457 0.160346
C55   C     C_3   0.366658 0.250449 0.577850 -0.940932
H22   H     H_    0.345198 0.167971 0.612810 0.243778
H23   H     H_    0.386815 0.222730 0.485600 0.236374
H24   H     H_    0.393450 0.274669 0.658673 0.243925
C56   C     C_3   0.967943 0.639585 0.913951 -0.931430
H25   H     H_    0.999912 0.583967 0.949668 0.253904
H26   H     H_    0.977908 0.740716 0.911113 0.231035
H27   H     H_    0.939261 0.625398 0.991381 0.254016
C57   C     C_3   0.876036 0.739355 0.793339 -0.780373
H28   H     H_    0.864465 0.801506 0.708112 0.265213
H29   H     H_    0.844291 0.712689 0.856476 0.257472
H30   H     H_    0.900593 0.798041 0.856976 0.220092
C58   C     C_3   0.761194 0.525916 0.283060 -0.395419
C59   C     C_3   0.735670 0.565974 0.150744 -0.882878
H31   H     H_    0.710668 0.490665 0.113986 0.259775
H32   H     H_    0.715048 0.654501 0.165575 0.263932
H33   H     H_    0.763504 0.583039 0.071620 0.261223
H34   H     H_    0.787462 0.601291 0.312222 0.218468
H35   H     H_    0.782577 0.439728 0.262145 0.231351
C60   C     C_3   0.521849 0.122234 0.870179 -0.855727
H36   H     H_    0.558051 0.075201 0.875497 0.247080
H37   H     H_    0.527869 0.224427 0.855654 0.258337
H38   H     H_    0.502961 0.107043 0.967892 0.233153
C61   C     C_3   0.386148 0.321489 0.135931 -0.317940
C62   C     C_3   0.408953 0.193737 0.104258 -0.865453
H39   H     H_    0.410312 0.177331 0.993213 0.254263
H40   H     H_    0.446370 0.187817 0.148405 0.253756
H41   H     H_    0.386568 0.118028 0.150455 0.252157
H42   H     H_    0.385224 0.331502 0.247823 0.225432
H43   H     H_    0.347587 0.321629 0.099119 0.217249
C63   C     C_3   0.961842 0.058893 0.575500 -0.406052
C64   C     C_3   0.985843 0.040131 0.715109 -0.833677
H44   H     H_    0.020496 0.094085 0.723360 0.267421
H45   H     H_    0.960715 0.070625 0.796240 0.260514
H46   H     H_    0.994301 0.939020 0.730667 0.240242
H47   H     H_    0.930418 0.992450 0.570299 0.205343
H48   H     H_    0.986409 0.025905 0.495395 0.197876

loop_
_geom_bond_atom_site_label_1
_geom_bond_atom_site_label_2
_geom_bond_distance
_ccdc_geom_bond_type
N4    C52   1.362857 A    
C10   H1    1.083464 S    
N2    C27   1.361893 A    
C21   C22   1.398312 A    
C12   C15   1.406358 A    
C4    C17   1.463509 S    
C61   H42   1.107974 S    
C49   N3    1.363746 A    
C58   H35   1.110876 S    
C51   H18   1.081717 S    
C41   C46   1.364726 A    
Zn1   O7    1.991070 S    
N1    C11   1.432320 S    
Zn2   N3    2.009354 S    
C21   C63   1.528825 S    
C1    C42   1.419207 S    
C23   C24   1.408104 A    
C47   H14   1.112250 S    
C39   C57   1.518662 S    
O4    C2    1.288267 A    
C57   H29   1.110401 S    
O7    C4    1.290389 A    
C5    C13   1.401096 A    
C58   C59   1.529739 S    
C5    O9    1.349862 S    
C56   H25   1.110204 S    
C57   H30   1.106350 S    
Zn1   O5    1.984791 S    
C35   C40   1.412915 A    
C23   C27   1.394260 A    
O5    C3    1.282548 A    
C62   H39   1.109116 S    
C6    O11   1.350207 S    
C38   C56   1.518284 S    
C29   H3    1.083381 S    
Zn1   N4    2.009025 S    
C7    C8    1.389373 A    
C8    H7    1.083623 S    
C41   C42   1.394253 A    
C40   H11   1.075689 S    
C64   H46   1.110889 S    
C59   H31   1.110921 S    
C47   H15   1.112510 S    
C43   H12   1.082904 S    
C53   H19   1.112038 S    
C60   H38   1.109209 S    
C37   H9    1.083550 S    
O1    Zn1   1.987953 S    
C9    C10   1.396119 A    
C59   H32   1.110790 S    
C42   C43   1.403950 A    
O3    Zn1   1.981038 S    
C48   C60   1.531764 S    
C37   C40   1.385883 A    
N1    C6    1.368638 A    
C58   H34   1.111626 S    
C51   N4    1.367427 A    
C12   C34   1.417639 A    
C2    C16   1.448230 S    
C17   C29   1.401075 A    
C54   C61   1.548540 S    
C12   C13   1.407940 A    
C44   C45   1.401924 A    
C45   C46   1.391777 A    
C25   C26   1.416679 A    
C19   C38   1.420855 A    
C8    C16   1.396950 A    
C55   H24   1.105675 S    
C13   C14   1.396380 A    
C30   C31   1.411335 A    
C15   C37   1.394925 A    
O1    C1    1.282901 A    
C62   H41   1.110267 S    
C18   C20   1.418756 A    
C7    C11   1.401957 A    
C46   C47   1.495296 S    
C18   C21   1.428500 A    
C38   C39   1.415236 A    
C14   C36   1.387670 A    
C28   H4    1.083555 S    
C50   H17   1.081709 S    
Zn2   O8    1.981038 S    
C33   C36   1.408828 A    
C34   C35   1.420214 A    
N2    C32   1.428213 S    
C63   H48   1.102317 S    
C55   H22   1.110671 S    
C27   O10   1.350293 S    
C47   C48   1.523199 S    
C53   H20   1.107531 S    
C55   H23   1.110333 S    
C49   C54   1.498284 S    
O3    C2    1.289856 A    
C26   N2    1.366868 A    
C50   C51   1.418610 A    
C9    C16   1.411602 A    
O8    C4    1.297553 A    
N3    C50   1.367870 A    
C56   H26   1.109828 S    
C28   C29   1.378730 A    
C64   H44   1.109374 S    
C59   H33   1.110767 S    
C54   H21   1.112839 S    
C60   H36   1.111778 S    
C48   H16   1.111944 S    
C41   C48   1.499922 S    
C5    N1    1.368574 A    
C31   C32   1.413842 A    
C22   C23   1.398734 A    
C20   C24   1.408586 A    
O2    Zn2   1.984792 S    
C6    C15   1.398265 A    
C44   H13   1.083492 S    
O6    C3    1.282491 A    
O4    Zn2   1.991073 S    
C14   H2    1.083371 S    
C7    H8    1.082869 S    
C19   C35   1.420670 A    
C56   H27   1.110992 S    
C25   C39   1.427037 A    
C26   O12   1.347573 S    
O2    C1    1.282541 A    
C61   H43   1.111207 S    
C22   H5    1.083917 S    
C61   C62   1.532611 S    
C24   C25   1.416412 A    
C31   C58   1.521484 S    
C19   C20   1.411924 A    
C63   H47   1.112490 S    
C57   H28   1.109751 S    
C62   H40   1.108924 S    
C18   C33   1.414695 A    
C49   C52   1.406830 A    
C9    C55   1.508671 S    
C52   C53   1.492248 S    
C3    C45   1.417886 S    
Zn2   O6    1.987952 S    
C33   C34   1.418245 A    
C17   C30   1.404230 A    
C30   H10   1.080934 S    
C64   H45   1.111009 S    
C10   C11   1.400085 A    
C43   C44   1.380998 A    
C53   C54   1.521897 S    
C28   C32   1.393833 A    
C36   H6    1.074679 S    
C63   C64   1.528267 S    
C60   H37   1.108454 S    
