data_mof_unit_3161.cif
_audit_creation_date              2012-12-11T14:29:39-0500
_audit_creation_method            fapswitch 2.2
_symmetry_space_group_name_H-M    P1
_symmetry_Int_Tables_number       1
_space_group_crystal_system       triclinic
_cell_length_a                    6.937112
_cell_length_b                    14.741817
_cell_length_c                    16.258677
_cell_angle_alpha                 90.474817
_cell_angle_beta                  89.7563
_cell_angle_gamma                 90.041399
_cell_volume                      1662.63141143

loop_
_atom_site_label
_atom_site_type_symbol
_atom_type_description
_atom_site_fract_x
_atom_site_fract_y
_atom_site_fract_z
_atom_type_partial_charge
O1    O     O_R   0.494400 0.416610 0.413880 -0.540699
O2    O     O_R   0.823920 0.406790 0.585520 -0.544800
O3    O     O_R   0.994250 0.583390 0.586120 -0.536923
C1    C     C_R   0.654239 0.385069 0.613409 0.759944
O4    O     O_R   0.824110 0.405730 0.414490 -0.541512
O5    O     O_R   0.994440 0.582310 0.413870 -0.536955
C2    C     C_R   0.655044 0.382640 0.387456 0.726826
O6    O     O_R   0.494210 0.417690 0.586130 -0.544017
O7    O     O_3   0.660810 0.557940 0.500000 -0.369495
V1    V     V_3+5 0.935650 0.489250 0.500000 1.411128
O8    O     O_R   0.324160 0.593210 0.414480 -0.546681
C3    C     C_R   0.155679 0.614969 0.386298 0.740162
O9    O     O_R   0.323970 0.594270 0.585510 -0.539115
C4    C     C_R   0.154868 0.616136 0.613931 0.695055
V2    V     V_3+5 0.435660 0.510750 0.500000 1.413546
O10   O     O_3   0.160630 0.442060 0.500000 -0.374989
H1    H     H_    0.377552 0.914402 0.519864 0.111409
C5    C     C_R   0.016200 0.566743 0.775917 -0.140993
C6    C     C_R   0.948328 0.540580 0.852905 -0.126003
C7    C     C_R   0.937434 0.603415 0.916893 -0.118105
C8    C     C_R   0.994103 0.692946 0.904388 -0.135447
C9    C     C_R   0.061334 0.721996 0.826587 0.068058
C10   C     C_R   0.072842 0.657463 0.760893 0.071093
C11   C     C_R   0.120634 0.813047 0.814168 -0.188582
C12   C     C_R   0.191501 0.839361 0.735834 0.072201
C13   C     C_R   0.203083 0.774826 0.670147 0.069673
C14   C     C_R   0.143934 0.683753 0.682578 -0.185077
C15   C     C_R   0.247759 0.930124 0.720782 -0.141987
C16   C     C_R   0.315319 0.956339 0.643763 -0.127913
C17   C     C_R   0.326394 0.893495 0.579788 -0.117139
C18   C     C_R   0.270123 0.803911 0.592329 -0.134062
H2    H     H_    0.025123 0.514680 0.728812 0.108517
H3    H     H_    0.905394 0.470928 0.863100 0.116909
H4    H     H_    0.886095 0.582545 0.976799 0.116304
H5    H     H_    0.985970 0.738620 0.956672 0.105415
H6    H     H_    0.238773 0.982166 0.767897 0.115762
H7    H     H_    0.357913 0.026030 0.633537 0.111081
H8    H     H_    0.278345 0.758229 0.540054 0.104452
C19   C     C_2   0.985824 0.709109 0.282801 -0.126830
C20   C     C_2   0.150796 0.682633 0.319380 -0.312728
H9    H     H_    0.849946 0.680606 0.303701 0.137513
H10   H     H_    0.288372 0.710441 0.300533 0.126913
C21   C     C_2   0.973005 0.776478 0.214810 -0.140643
C22   C     C_2   0.125959 0.814538 0.177099 -0.309250
H11   H     H_    0.828907 0.794706 0.195011 0.134043
H12   H     H_    0.271128 0.796873 0.195128 0.130769
C23   C     C_2   0.785788 0.207400 0.779103 0.231793
C24   C     C_2   0.619996 0.180702 0.816992 -0.298805
H13   H     H_    0.483223 0.210618 0.800538 0.087220
C25   C     C_2   0.792030 0.278401 0.713966 -0.205079
C26   C     C_2   0.637294 0.316644 0.678809 -0.339685
H14   H     H_    0.934611 0.298783 0.693214 0.141935
H15   H     H_    0.492482 0.297536 0.696662 0.127492
C27   C     C_2   0.770953 0.206240 0.216756 -0.122371
C28   C     C_2   0.613237 0.190411 0.169965 0.048347
H16   H     H_    0.898540 0.164706 0.207334 0.097347
C29   C     C_2   0.788212 0.280158 0.279374 -0.112818
C30   C     C_2   0.638953 0.309818 0.325311 -0.274661
H17   H     H_    0.931298 0.307530 0.290356 0.129457
H18   H     H_    0.498024 0.278885 0.318988 0.166235
O11   O     O_R   0.770210 0.079270 0.910680 -0.506496
O12   O     O_R   0.440150 0.091160 0.082270 -0.544835
O13   O     O_R   0.269970 0.914530 0.082860 -0.542601
C31   C     C_R   0.608582 0.114811 0.109169 0.673555
O14   O     O_R   0.440480 0.090100 0.911240 -0.551861
O15   O     O_R   0.270310 0.913460 0.910610 -0.537665
C32   C     C_R   0.610239 0.111780 0.882980 0.770282
O16   O     O_R   0.769870 0.080340 0.082930 -0.547221
O17   O     O_3   0.603660 0.938980 0.996790 -0.372305
V3    V     V_3+5 0.328750 0.007610 0.996740 1.414268
O18   O     O_R   0.940600 0.902510 0.911180 -0.537547
C33   C     C_R   0.109720 0.880667 0.882799 0.704568
O19   O     O_R   0.940270 0.903570 0.082200 -0.545005
C34   C     C_R   0.109321 0.881850 0.110349 0.728826
V4    V     V_3+5 0.828770 0.986010 0.996670 1.439772
O20   O     O_3   0.103730 0.054750 0.996710 -0.364538
N1    N     N_3   0.966651 0.167397 0.801546 -0.632192
H19   H     H_    0.058323 0.219256 0.821735 0.212333
H20   H     H_    0.027907 0.138251 0.748738 0.209935
N2    N     N_3   0.450125 0.250281 0.174332 -0.664829
H21   H     H_    0.427232 0.276776 0.115718 0.227804
H22   H     H_    0.328728 0.212159 0.190466 0.222522

loop_
_geom_bond_atom_site_label_1
_geom_bond_atom_site_label_2
_ccdc_geom_bond_type
O19   C34   A    
C6    C7    A    
C1    O6    A    
C19   H9    S    
N1    H19   S    
O11   V4    S    
O16   V4    S    
C13   C14   A    
C31   O16   A    
C15   C16   A    
O5    C3    A    
C17   C18   A    
C29   H17   S    
C30   H18   S    
O14   V3    S    
O12   V3    S    
C5    C6    A    
O12   C31   A    
O8    V2    S    
O15   C33   A    
O14   C32   A    
C25   H14   S    
O1    V2    S    
C10   C14   A    
C4    C14   S    
O7    V1    S    
C2    C30   S    
C7    H4    S    
C20   H10   S    
C13   C18   A    
O9    C4    A    
H1    C17   S    
O19   V4    S    
C22   H12   S    
C23   C25   S    
N1    H20   S    
C27   H16   S    
C1    C26   S    
C5    C10   A    
C11   C12   A    
N2    H22   S    
C6    H3    S    
C19   C20   D    
O4    C2    A    
C19   C21   S    
C12   C13   A    
C26   H15   S    
C3    C20   S    
O2    C1    A    
V4    O20   S    
C16   C17   A    
O11   C32   A    
C23   C24   D    
O13   V3    S    
C28   C31   S    
C25   C26   D    
C22   C34   S    
C21   H11   S    
O3    C4    A    
C24   H13   S    
O6    V2    S    
O9    V2    S    
C21   C22   D    
V3    O20   S    
C9    C11   A    
C5    H2    S    
C23   N1    S    
O2    V1    S    
C11   C33   S    
C27   C28   D    
O1    C2    A    
N2    H21   S    
O5    V1    S    
O8    C3    A    
C8    H5    S    
O13   C34   A    
C18   H8    S    
O7    V2    S    
O4    V1    S    
O3    V1    S    
V1    O10   S    
O18   V4    S    
C28   N2    S    
C29   C30   D    
O15   V3    S    
O17   V4    S    
C24   C32   S    
O17   V3    S    
C12   C15   A    
O18   C33   A    
C7    C8    A    
C15   H6    S    
C16   H7    S    
C9    C10   A    
C8    C9    A    
V2    O10   S    
C27   C29   S    
