data_mof_unit_1101.cif
_audit_creation_date              2012-12-10T20:49:46-0500
_audit_creation_method            fapswitch 2.2
_symmetry_space_group_name_H-M    P1
_symmetry_Int_Tables_number       1
_space_group_crystal_system       triclinic
_cell_length_a                    8.111819
_cell_length_b                    8.929713
_cell_length_c                    16.74401
_cell_angle_alpha                 89.964651
_cell_angle_beta                  82.247386
_cell_angle_gamma                 90.136774
_cell_volume                      1201.78278713

loop_
_atom_site_label
_atom_site_type_symbol
_atom_type_description
_atom_site_fract_x
_atom_site_fract_y
_atom_site_fract_z
_atom_type_partial_charge
C1    C     C_R   0.500136 0.782008 0.499962 1.005625
C2    C     C_R   0.499908 0.217995 0.499902 0.930926
C3    C     C_1   0.500209 0.934817 0.499915 -0.127767
C4    C     C_1   0.499863 0.065208 0.499892 -0.124759
C5    C     C_R   0.472552 0.494954 0.653604 0.942908
C6    C     C_R   0.527630 0.495512 0.346347 0.933397
C7    C     C_R   0.445590 0.464942 0.739546 -0.117162
C8    C     C_R   0.557280 0.468671 0.260107 -0.126043
C9    C     C_R   0.498703 0.569168 0.794374 -0.038014
C10   C     C_R   0.499111 0.570541 0.205475 -0.037530
C11   C     C_R   0.494125 0.526492 0.874588 -0.209632
C12   C     C_R   0.519590 0.533906 0.123894 -0.215849
C13   C     C_R   0.444469 0.381775 0.899865 0.158273
C14   C     C_R   0.598179 0.400779 0.096589 0.154862
C15   C     C_R   0.384572 0.282135 0.846927 -0.092530
C16   C     C_R   0.660898 0.303433 0.149491 -0.066808
C17   C     C_R   0.381092 0.322868 0.766970 -0.079689
C18   C     C_R   0.641080 0.335303 0.231425 -0.061991
C19   C     C_2   0.458890 0.335235 0.982627 -0.155571
C20   C     C_2   0.604360 0.360199 0.011953 -0.171930
H1    H     H_    0.342773 0.171725 0.867953 0.162490
H2    H     H_    0.720695 0.200412 0.126945 0.156465
H3    H     H_    0.473235 0.608618 0.080957 0.126707
H4    H     H_    0.534730 0.604622 0.917569 0.118622
N1    N     N_1   0.926360 0.500000 0.499990 0.005305
N2    N     N_1   0.073640 0.500000 0.500010 0.004720
O1    O     O_R   0.363150 0.714660 0.500000 -0.607850
O2    O     O_R   0.636850 0.285340 0.500000 -0.598790
O3    O     O_R   0.636850 0.714660 0.500000 -0.609634
O4    O     O_R   0.363150 0.285340 0.500000 -0.595192
O5    O     O_R   0.346950 0.500000 0.615800 -0.591939
O6    O     O_R   0.653050 0.500000 0.384200 -0.595239
O7    O     O_R   0.620700 0.500000 0.615800 -0.596784
O8    O     O_R   0.379300 0.500000 0.384200 -0.593056
Zn1   Zn    Zn3+2 0.317220 0.500000 0.500010 1.078664
Zn2   Zn    Zn3+2 0.682780 0.500000 0.499990 1.076210
C21   C     C_2   0.560606 0.722548 0.771685 0.446994
H5    H     H_    0.609605 0.792282 0.816143 0.088732
O9    O     O_2   0.556145 0.774310 0.704557 -0.559847
C22   C     C_2   0.418624 0.716276 0.229472 0.452074
H6    H     H_    0.357607 0.778760 0.186177 0.086688
O10   O     O_2   0.422822 0.770802 0.295995 -0.557636
C23   C     C_2   0.700938 0.221158 0.284877 0.866291
O11   O     O_2   0.805155 0.253652 0.328338 -0.590066
O12   O     O_R   0.644401 0.073551 0.281769 -0.766982
H7    H     H_    0.695615 0.004785 0.319839 0.354656
C24   C     C_2   0.315903 0.210474 0.713960 0.867254
O13   O     O_2   0.212836 0.246045 0.670568 -0.591277
O14   O     O_R   0.365326 0.061083 0.717508 -0.769452
H8    H     H_    0.310120 0.994148 0.679959 0.360232
C25   C     C_2   0.766491 0.377145 0.958996 0.952140
O15   O     O_2   0.876309 0.455020 0.980782 -0.574256
O16   O     O_R   0.794245 0.302776 0.884909 -0.777251
H9    H     H_    0.909147 0.323168 0.854805 0.360429
C26   C     C_2   0.305385 0.283110 0.034886 0.929696
O17   O     O_2   0.168911 0.302925 0.013440 -0.588538
O18   O     O_R   0.316782 0.207720 0.107189 -0.786528
H10   H     H_    0.203979 0.177991 0.136649 0.355234

loop_
_geom_bond_atom_site_label_1
_geom_bond_atom_site_label_2
_ccdc_geom_bond_type
C7    C17   A    
C2    C4    S    
C23   O11   D    
C15   C17   A    
C21   H5    S    
C14   C16   A    
C11   C13   A    
N2    Zn1   S    
C6    O6    A    
C19   C20   D    
C12   H3    S    
C13   C15   A    
C2    O4    A    
C6    O8    A    
O1    Zn1   S    
C26   O17   D    
C9    C21   S    
C18   C23   S    
C24   O14   S    
C16   C18   A    
O16   H9    S    
C23   O12   S    
O3    Zn2   S    
C9    C11   A    
O18   H10   S    
C10   C12   A    
O4    Zn1   S    
C6    C8    S    
O6    Zn2   S    
C1    O3    A    
C22   H6    S    
C12   C14   A    
O14   H8    S    
C20   C25   S    
C7    C9    A    
C26   O18   S    
C21   O9    D    
O5    Zn1   S    
C13   C19   S    
N1    Zn2   S    
C25   O15   D    
C24   O13   D    
C14   C20   S    
C11   H4    S    
C15   H1    S    
O7    Zn2   S    
C25   O16   S    
O2    Zn2   S    
C1    O1    A    
O8    Zn1   S    
C19   C26   S    
C5    C7    S    
C10   C22   S    
C2    O2    A    
C5    O5    A    
N1    N2    T    
O12   H7    S    
C8    C10   A    
C8    C18   A    
C3    C4    T    
C17   C24   S    
C16   H2    S    
C22   O10   D    
C1    C3    S    
C5    O7    A    
