data_mof_unit_4582.cif
_audit_creation_date              2012-10-26T20:32:02-0400
_audit_creation_method            fapswitch 2.2
_symmetry_space_group_name_H-M    P1
_symmetry_Int_Tables_number       1
_space_group_crystal_system       triclinic
_cell_length_a                    10.63078
_cell_length_b                    10.801328
_cell_length_c                    9.552985
_cell_angle_alpha                 89.801921
_cell_angle_beta                  90.473273
_cell_angle_gamma                 89.887339
_cell_volume                      1096.8900706

loop_
_atom_site_label
_atom_site_type_symbol
_atom_type_description
_atom_site_fract_x
_atom_site_fract_y
_atom_site_fract_z
_atom_type_partial_charge
C1    C     C_R   0.497649 0.262409 0.500302 0.544463
C2    C     C_R   0.512415 0.935743 0.621726 -0.013761
C3    C     C_3   0.627317 0.926212 0.712050 -0.269292
C4    C     C_R   0.259463 0.500266 0.499276 0.542565
C5    C     C_3   0.628567 0.066839 0.713896 -0.270583
C6    C     C_R   0.562044 0.411295 0.074622 0.161634
C7    C     C_R   0.429125 0.583842 0.073342 -0.013790
C8    C     C_R   0.429186 0.583970 0.924506 -0.011277
C9    C     C_R   0.562238 0.411427 0.927267 0.165508
C10   C     C_3   0.699886 0.385131 0.923609 -0.283847
C11   C     C_3   0.699385 0.383596 0.082249 -0.279533
C12   C     C_3   0.956658 0.603345 0.434888 -0.146813
C13   C     C_R   0.494596 0.737563 0.499830 0.554486
C14   C     C_R   0.740651 0.500169 0.500556 0.546059
C15   C     C_3   0.041728 0.400631 0.561920 0.158571
C16   C     C_3   0.957090 0.399276 0.431201 -0.119740
C17   C     C_3   0.877431 0.500280 0.501360 0.022444
C18   C     C_3   0.961003 0.498996 0.633793 -0.079161
C19   C     C_3   0.042649 0.601696 0.566715 -0.152656
C20   C     C_3   0.000223 0.208767 0.688140 -0.315112
C21   C     C_3   0.239089 0.831760 0.305387 -0.300524
C22   C     C_3   0.038972 0.502590 0.365449 -0.144990
C23   C     C_3   0.122831 0.501065 0.497475 0.049524
C24   C     C_R   0.513830 0.062738 0.622780 0.018559
C25   C     C_R   0.484095 0.129506 0.502053 -0.021574
C26   C     C_R   0.430829 0.066968 0.387371 -0.157225
C27   C     C_R   0.424362 0.937101 0.387613 0.110949
C28   C     C_R   0.478379 0.870777 0.501439 0.028486
Cu1   Cu    Cu3+1 0.499990 0.499980 0.640670 0.937070
Cu2   Cu    Cu3+1 0.500010 0.500020 0.359330 0.935867
H1    H     H_    0.919690 0.315921 0.377530 0.098424
H2    H     H_    0.755471 0.460177 0.128538 0.156726
H3    H     H_    0.929751 0.496806 0.744069 0.103517
H4    H     H_    0.080520 0.684590 0.620887 0.098601
H5    H     H_    0.918191 0.687308 0.382458 0.109809
H6    H     H_    0.073358 0.504988 0.256048 0.118680
H7    H     H_    0.395414 0.118389 0.297709 0.127435
H8    H     H_    0.606763 0.884470 0.815886 0.143237
H9    H     H_    0.158572 0.246213 0.569319 0.247632
H10   H     H_    0.048514 0.131854 0.744328 0.140960
H11   H     H_    0.940431 0.169213 0.603541 0.124035
H12   H     H_    0.708773 0.885151 0.656370 0.130187
H13   H     H_    0.940242 0.258773 0.764045 0.148673
H14   H     H_    0.367537 0.923034 0.180558 0.237692
H15   H     H_    0.240891 0.767704 0.396555 0.159455
H16   H     H_    0.176361 0.911454 0.328488 0.127787
H17   H     H_    0.200010 0.781110 0.213997 0.122328
H18   H     H_    0.607981 0.105676 0.818809 0.135864
H19   H     H_    0.711003 0.107922 0.660136 0.120842
H20   H     H_    0.373306 0.651303 0.128181 0.139114
H21   H     H_    0.373510 0.651866 0.867975 0.114508
H22   H     H_    0.721415 0.293573 0.877075 0.110254
H23   H     H_    0.754290 0.463822 0.880484 0.144721
H24   H     H_    0.718654 0.290508 0.127639 0.119667
N1    N     N_R   0.500800 0.500930 0.147930 -0.232140
N2    N     N_R   0.500800 0.500890 0.852020 -0.229484
N3    N     N_2   0.092916 0.291333 0.629588 -0.500436
N4    N     N_2   0.364598 0.875035 0.274045 -0.504956
O1    O     O_R   0.500000 0.319640 0.618810 -0.489508
O2    O     O_R   0.500010 0.319680 0.381230 -0.507623
O3    O     O_R   0.316850 0.499950 0.618770 -0.490673
O4    O     O_R   0.316860 0.499990 0.381190 -0.515932
O5    O     O_R   0.499990 0.680320 0.618770 -0.516685
O6    O     O_R   0.500000 0.680360 0.381190 -0.471119
O7    O     O_R   0.683140 0.500010 0.618810 -0.511414
O8    O     O_R   0.683150 0.500050 0.381230 -0.506489

loop_
_geom_bond_atom_site_label_1
_geom_bond_atom_site_label_2
_ccdc_geom_bond_type
C12   C17   S    
C15   C18   S    
C19   C23   S    
Cu1   O5    S    
C26   H7    S    
Cu1   Cu2   S    
Cu1   N2    S    
Cu2   O6    S    
C22   H6    S    
C9    C10   S    
C13   O5    A    
C7    N1    A    
C6    N1    A    
C4    O4    A    
C10   H22   S    
C8    N2    A    
C6    C9    A    
C15   C23   S    
C2    C3    S    
C14   O8    A    
C7    C8    A    
C13   C28   S    
C9    N2    A    
C25   C26   A    
C12   H5    S    
C1    C25   S    
C15   N3    S    
C14   C17   S    
C5    H19   S    
C26   C27   A    
Cu2   O8    S    
C11   H24   S    
C27   N4    S    
Cu1   O7    S    
C12   C19   S    
C5    H18   S    
C14   O7    A    
C11   H2    S    
C20   H11   S    
C21   H15   S    
C1    O1    A    
Cu2   O4    S    
C2    C24   A    
C20   H10   S    
C18   H3    S    
Cu1   O3    S    
C20   H13   S    
C13   O6    A    
C10   C11   S    
C16   C22   S    
C6    C11   S    
C15   C16   S    
H9    N3    S    
C12   C22   S    
C21   N4    S    
C3    H12   S    
C24   C25   A    
C3    H8    S    
C17   C18   S    
C18   C19   S    
Cu2   N1    S    
C1    O2    A    
C8    H21   S    
C27   C28   A    
C10   H23   S    
C4    C23   S    
C22   C23   S    
C5    C24   S    
C2    C28   A    
C3    C5    S    
C20   N3    S    
C16   H1    S    
C4    O3    A    
C19   H4    S    
Cu1   O1    S    
C7    H20   S    
H14   N4    S    
C16   C17   S    
C21   H17   S    
C21   H16   S    
Cu2   O2    S    
