data_mof_unit_3364.cif
_audit_creation_date              2012-12-11T15:35:02-0500
_audit_creation_method            fapswitch 2.2
_symmetry_space_group_name_H-M    P1
_symmetry_Int_Tables_number       1
_space_group_crystal_system       triclinic
_cell_length_a                    30.510924
_cell_length_b                    7.257615
_cell_length_c                    25.827463
_cell_angle_alpha                 90.322475
_cell_angle_beta                  112.263329
_cell_angle_gamma                 90.000691
_cell_volume                      5292.69748916

loop_
_atom_site_label
_atom_site_type_symbol
_atom_type_description
_atom_site_fract_x
_atom_site_fract_y
_atom_site_fract_z
_atom_type_partial_charge
O1    O     O_R   0.295360 0.592990 0.320420 -0.526983
O2    O     O_R   0.704640 0.407010 0.679580 -0.521290
O3    O     O_R   0.204640 0.092990 0.179580 -0.520408
O4    O     O_R   0.795360 0.907010 0.820420 -0.531665
O5    O     O_R   0.294060 0.265620 0.213230 -0.534238
O6    O     O_R   0.705940 0.734380 0.786770 -0.540782
O7    O     O_R   0.205940 0.765620 0.286770 -0.532582
O8    O     O_R   0.794060 0.234380 0.713230 -0.533989
C1    C     C_R   0.304293 0.431883 0.199870 0.745337
C2    C     C_R   0.695797 0.567901 0.800177 0.743137
C3    C     C_R   0.195575 0.932440 0.299974 0.740833
C4    C     C_R   0.804258 0.067619 0.699612 0.749783
O9    O     O_R   0.300850 0.263360 0.322080 -0.534146
O10   O     O_R   0.699150 0.736640 0.677920 -0.535187
O11   O     O_R   0.199150 0.763360 0.177920 -0.535622
O12   O     O_R   0.800850 0.236640 0.822080 -0.530433
O13   O     O_R   0.211480 0.091820 0.289210 -0.535891
O14   O     O_R   0.788520 0.908180 0.710790 -0.537443
O15   O     O_R   0.288520 0.591820 0.210790 -0.537428
O16   O     O_R   0.711480 0.408180 0.789210 -0.526889
C5    C     C_R   0.313324 0.432471 0.343434 0.728851
C6    C     C_R   0.687112 0.567305 0.656244 0.733078
C7    C     C_R   0.186795 0.931615 0.156438 0.730800
C8    C     C_R   0.813176 0.068921 0.843562 0.731728
O17   O     O_3   0.220670 0.426670 0.239090 -0.371706
O18   O     O_3   0.779330 0.573330 0.760910 -0.377003
O19   O     O_3   0.279330 0.926670 0.260910 -0.377623
O20   O     O_3   0.720670 0.073330 0.739090 -0.372573
V1    V     V_3+5 0.255440 0.152290 0.252020 1.481286
V2    V     V_3+5 0.744560 0.847710 0.747980 1.474463
V3    V     V_3+5 0.244560 0.652290 0.247980 1.480928
V4    V     V_3+5 0.755440 0.347710 0.752020 1.491769
C9    C     C_R   0.849706 0.065727 0.900986 -0.156504
C10   C     C_R   0.151129 0.943442 0.098600 -0.149140
C11   C     C_R   0.652218 0.549824 0.598045 -0.143408
C12   C     C_R   0.350417 0.442755 0.400477 -0.153359
C13   C     C_R   0.874116 0.124963 0.000539 0.215009
C14   C     C_R   0.131049 0.008731 0.999943 0.212000
C15   C     C_R   0.633390 0.438732 0.502864 0.209549
C16   C     C_R   0.374026 0.455816 0.501373 0.213026
C17   C     C_R   0.838219 0.116767 0.946699 0.108419
C18   C     C_R   0.165426 0.983899 0.054267 0.107069
C19   C     C_R   0.667161 0.486096 0.555992 0.106982
C20   C     C_R   0.338145 0.455080 0.447441 0.109431
C21   C     C_R   0.896414 0.016752 0.909744 -0.189466
C22   C     C_R   0.102754 0.945003 0.089298 -0.139443
C23   C     C_R   0.603679 0.555998 0.587530 -0.149484
C24   C     C_R   0.398228 0.452501 0.407470 -0.195670
C25   C     C_R   0.934443 0.049621 0.961894 0.059461
C26   C     C_R   0.067594 0.985454 0.035951 0.065544
C27   C     C_R   0.568934 0.496939 0.535617 0.064355
C28   C     C_R   0.435467 0.442048 0.461244 0.061315
C29   C     C_R   0.922454 0.110426 0.007228 -0.086769
C30   C     C_R   0.082151 0.986918 0.989934 -0.111426
C31   C     C_R   0.584310 0.464947 0.490914 -0.107861
C32   C     C_R   0.422047 0.430548 0.508070 -0.090847
C33   C     C_R   0.983795 0.025882 0.970630 -0.116234
C34   C     C_R   0.018860 0.025476 0.026774 -0.092124
C35   C     C_R   0.519737 0.468613 0.526695 -0.097647
C36   C     C_R   0.485322 0.445501 0.470591 -0.120912
C37   C     C_R   0.005260 0.091657 0.070661 0.421104
C38   C     C_R   0.999749 0.008406 0.925567 0.407036
C39   C     C_R   0.502330 0.426142 0.426487 0.405641
C40   C     C_R   0.504644 0.437572 0.571966 0.415159
C41   C     C_R   0.959138 0.158425 0.057875 0.104466
C42   C     C_R   0.047349 0.973817 0.935567 0.123803
C43   C     C_R   0.550139 0.453127 0.436110 0.129020
C44   C     C_R   0.457058 0.393804 0.560654 0.103310
H1    H     H_    0.093564 0.910523 0.124322 0.148491
H2    H     H_    0.901378 0.952265 0.874820 0.186669
H3    H     H_    0.404327 0.475413 0.369754 0.183546
H4    H     H_    0.594165 0.609603 0.620639 0.150047
C45   C     C_R   0.085044 0.893233 0.471573 0.658650
C46   C     C_R   0.913261 0.119777 0.525465 0.615799
C47   C     C_R   0.408426 0.434351 0.020202 0.661487
C48   C     C_R   0.592322 0.484009 0.978709 0.656462
N1    N     N_R   0.070621 0.971650 0.419804 -0.542277
N2    N     N_R   0.927339 0.038187 0.576768 -0.542282
N3    N     N_R   0.427707 0.456354 0.077240 -0.556973
N4    N     N_R   0.572482 0.513588 0.922108 -0.554457
C49   C     C_R   0.028525 0.064657 0.397853 0.639539
C50   C     C_R   0.969615 0.946769 0.598906 0.701422
C51   C     C_R   0.475195 0.492752 0.104169 0.646894
C52   C     C_R   0.524386 0.535503 0.895700 0.644568
C53   C     C_R   0.998475 0.081436 0.428339 -0.090109
C54   C     C_R   0.999577 0.929620 0.568352 -0.104377
C55   C     C_R   0.506130 0.485013 0.074806 -0.094418
C56   C     C_R   0.493870 0.504477 0.924734 -0.094278
C57   C     C_R   0.013241 0.999156 0.482042 -0.038378
C58   C     C_R   0.984778 0.011876 0.514638 -0.037767
C59   C     C_R   0.485714 0.477435 0.015643 -0.046963
C60   C     C_R   0.514533 0.489079 0.983700 -0.046067
C61   C     C_R   0.056623 0.904401 0.503434 -0.065524
C62   C     C_R   0.941541 0.107744 0.493425 -0.055255
C63   C     C_R   0.436436 0.458140 0.988239 -0.081187
C64   C     C_R   0.564060 0.485134 0.010898 -0.081595
C65   C     C_R   0.954558 0.177054 0.407909 0.210243
C66   C     C_R   0.043505 0.834141 0.588815 0.209162
C67   C     C_R   0.556298 0.485342 0.101621 0.213285
C68   C     C_R   0.443873 0.488762 0.897782 0.211862
C69   C     C_R   0.927097 0.189043 0.440517 -0.164343
C70   C     C_R   0.071090 0.823184 0.556357 -0.156029
C71   C     C_R   0.584352 0.480482 0.069519 -0.154941
C72   C     C_R   0.416164 0.461210 0.929604 -0.150981
O21   O     O_2   0.127033 0.805258 0.492335 -0.510387
O22   O     O_2   0.871877 0.212298 0.505470 -0.515192
O23   O     O_2   0.362188 0.390597 0.994332 -0.479231
O24   O     O_2   0.639320 0.454303 0.003934 -0.479573
O25   O     O_2   0.016442 0.140944 0.346978 -0.479216
O26   O     O_2   0.982265 0.874616 0.650370 -0.463307
O27   O     O_2   0.491827 0.540960 0.158634 -0.461960
O28   O     O_2   0.506644 0.591591 0.842123 -0.471926
H5    H     H_    0.893834 0.262800 0.423897 0.190153
H6    H     H_    0.104390 0.749688 0.573024 0.194389
H7    H     H_    0.622491 0.476511 0.090904 0.197338
H8    H     H_    0.378239 0.445462 0.908045 0.198517
C73   C     C_R   0.897641 0.199002 0.641912 0.193333
C74   C     C_R   0.092653 0.834811 0.344548 0.142350
C75   C     C_R   0.597398 0.408591 0.844969 0.148997
C76   C     C_R   0.404980 0.321159 0.152520 0.156702
C77   C     C_R   0.867329 0.206233 0.671264 -0.205355
C78   C     C_R   0.123654 0.823867 0.316066 -0.254985
C79   C     C_R   0.627962 0.422530 0.816182 -0.235926
C80   C     C_R   0.374473 0.315598 0.181655 -0.209874
H9    H     H_    0.868642 0.325699 0.697125 0.161184
H10   H     H_    0.116613 0.724972 0.282292 0.161558
H11   H     H_    0.623857 0.327518 0.782142 0.168800
H12   H     H_    0.380677 0.215222 0.214551 0.155418
C81   C     C_R   0.836434 0.059294 0.668443 -0.132904
C82   C     C_R   0.162963 0.941974 0.330208 -0.131785
C83   C     C_R   0.663207 0.558440 0.830268 -0.135306
C84   C     C_R   0.336622 0.439293 0.169282 -0.135570
C85   C     C_R   0.836315 0.904996 0.635239 -0.241667
C86   C     C_R   0.171216 0.069614 0.373813 -0.228656
C87   C     C_R   0.668090 0.680577 0.874301 -0.227032
C88   C     C_R   0.329174 0.568163 0.126691 -0.227794
H13   H     H_    0.813285 0.789146 0.632831 0.175921
H14   H     H_    0.201980 0.158188 0.386068 0.176291
H15   H     H_    0.695982 0.783332 0.886563 0.172037
H16   H     H_    0.299404 0.661292 0.115717 0.178201
C89   C     C_R   0.865232 0.899691 0.603873 0.468317
C90   C     C_R   0.140794 0.080714 0.403061 0.481377
C91   C     C_R   0.638456 0.666641 0.904533 0.496154
C92   C     C_R   0.358904 0.574950 0.096579 0.494241
C93   C     C_R   0.896637 0.046043 0.607767 0.237085
C94   C     C_R   0.101341 0.962189 0.388797 0.235280
C95   C     C_R   0.602742 0.529224 0.890362 0.217460
C96   C     C_R   0.397241 0.450306 0.108929 0.207827
I1    I     I_    0.952943 0.397538 0.104026 -0.253142
I2    I     I_    0.060130 0.845067 0.867724 -0.169026
I3    I     I_    0.563958 0.534018 0.363998 -0.143197
I4    I     I_    0.443601 0.194142 0.613903 -0.215042
O29   O     O_3   0.865339 0.745237 0.572428 -0.535547
C97   C     C_3   0.826403 0.755105 0.520998 -0.104725
H17   H     H_    0.829924 0.874069 0.495912 0.153219
H18   H     H_    0.792201 0.763176 0.526955 0.152654
H19   H     H_    0.825610 0.627885 0.496647 0.203126
O30   O     O_3   0.151851 0.197587 0.448626 -0.529291
C98   C     C_3   0.133791 0.373689 0.429419 -0.114540
H20   H     H_    0.094444 0.372134 0.411748 0.153306
H21   H     H_    0.147505 0.427823 0.398164 0.140579
H22   H     H_    0.145426 0.469879 0.465576 0.222135
O31   O     O_3   0.647586 0.776206 0.951423 -0.520711
C99   C     C_3   0.623616 0.944380 0.934888 -0.131069
H23   H     H_    0.584649 0.922161 0.915458 0.145178
H24   H     H_    0.636640 0.020437 0.906210 0.150823
H25   H     H_    0.630820 0.031763 0.972610 0.196765
O32   O     O_3   0.347635 0.693821 0.051814 -0.518827
C100  C     C_3   0.372054 0.860653 0.070690 -0.123352
H26   H     H_    0.410935 0.839809 0.084748 0.144303
H27   H     H_    0.362760 0.924219 0.104530 0.142387
H28   H     H_    0.361453 0.958841 0.035316 0.201087
I5    I     I_    0.239568 0.010512 0.070814 -0.311357
I6    I     I_    0.765738 0.171855 0.933612 -0.298033
I7    I     I_    0.265217 0.486785 0.435478 -0.314903
I8    I     I_    0.741585 0.459288 0.574254 -0.359307
I9    I     I_    0.853483 0.103616 0.071023 -0.141917
I10   I     I_    0.152855 0.147889 0.940469 -0.158079
I11   I     I_    0.656484 0.260596 0.451480 -0.223813
I12   I     I_    0.356615 0.548058 0.570393 -0.146133
O33   O     O_3   0.039031 0.131475 0.123110 -0.551793
C101  C     C_3   0.030350 0.021833 0.163423 -0.169943
H29   H     H_    0.027520 0.872765 0.152025 0.133846
H30   H     H_    0.997946 0.066135 0.169853 0.203833
H31   H     H_    0.060622 0.037934 0.204026 0.165500
O34   O     O_3   0.969908 0.034382 0.870529 -0.555098
C102  C     C_3   0.969998 0.223247 0.857819 -0.167831
H32   H     H_    0.005800 0.269676 0.861344 0.178305
H33   H     H_    0.957223 0.309725 0.884967 0.128108
H34   H     H_    0.945410 0.244378 0.813877 0.168824
O35   O     O_3   0.473288 0.372563 0.373106 -0.552597
C103  C     C_3   0.472433 0.178273 0.370403 -0.168711
H35   H     H_    0.458069 0.118156 0.400316 0.125351
H36   H     H_    0.508255 0.121544 0.378123 0.173579
H37   H     H_    0.448709 0.135272 0.327654 0.172935
O36   O     O_3   0.537377 0.410117 0.625781 -0.552092
C104  C     C_3   0.530633 0.544601 0.662046 -0.167866
H38   H     H_    0.498856 0.514860 0.671610 0.209047
H39   H     H_    0.528067 0.686464 0.644838 0.127390
H40   H     H_    0.561709 0.542254 0.702193 0.159906
I13   I     I_    0.923813 0.310696 0.328948 -0.143229
I14   I     I_    0.073882 0.697718 0.667383 -0.125006
I15   I     I_    0.595005 0.473006 0.189717 -0.115183
I16   I     I_    0.405386 0.483432 0.809539 -0.112150
I17   I     I_    0.945653 0.418926 0.651841 -0.191529
I18   I     I_    0.033380 0.655747 0.319324 -0.277274
I19   I     I_    0.545104 0.197723 0.817214 -0.314470
I20   I     I_    0.461099 0.126149 0.176691 -0.296131

loop_
_geom_bond_atom_site_label_1
_geom_bond_atom_site_label_2
_ccdc_geom_bond_type
O17   V3    S    
C67   C71   A    
C17   I6    S    
O1    C5    A    
C14   I10   S    
C55   C59   A    
O19   V1    S    
C9    C21   A    
C100  H26   S    
C46   C62   A    
O3    C7    A    
O31   C99   S    
C10   C18   A    
C20   I7    S    
C45   C61   A    
C85   H13   S    
C88   H16   S    
C11   C23   A    
C47   C63   A    
C33   C38   A    
C5    C12   S    
O33   C101  S    
C87   H15   S    
C6    C11   S    
C35   C40   A    
C52   O28   S    
C92   O32   S    
C36   C39   A    
C70   H6    S    
C50   O26   S    
O2    V4    S    
C99   H23   S    
C74   I18   S    
O10   V2    S    
C14   C18   A    
C83   C87   A    
O4    C8    A    
C25   C29   A    
C86   C90   A    
C75   C95   A    
O1    V3    S    
O13   V1    S    
C31   C43   A    
C80   C84   A    
C73   C93   A    
C74   C78   A    
O3    V1    S    
C90   C94   A    
C101  H29   S    
C102  H34   S    
C73   C77   A    
C28   C36   A    
N2    C93   S    
C16   I12   S    
C45   O21   S    
C1    O15   A    
C68   C72   A    
C15   C31   A    
C56   C60   A    
C62   C69   A    
C2    O16   A    
C16   C32   A    
O2    C6    A    
C98   H21   S    
C10   C22   A    
O7    C3    A    
O8    C4    A    
C11   C19   A    
C16   C20   A    
C97   H18   S    
C92   C96   A    
C80   H12   S    
C13   C29   A    
C34   C37   A    
O11   C7    A    
O5    V1    S    
O15   V3    S    
C35   C36   A    
O12   C8    A    
C72   H8    S    
C57   C61   A    
C100  H27   S    
C82   C86   A    
C90   O30   S    
C91   O31   S    
C58   C62   A    
C55   C67   A    
N4    C95   S    
C60   C64   A    
C39   C43   A    
O7    V3    S    
C4    C81   S    
C38   C42   A    
C43   I3    S    
O35   C103  S    
O8    V4    S    
C103  H37   S    
C48   N4    A    
C47   O23   S    
C74   C94   A    
C97   H19   S    
C54   C58   A    
C65   I13   S    
C59   C60   A    
C53   C57   A    
O18   V4    S    
C15   C19   A    
C32   C44   A    
C87   C91   A    
C76   C80   A    
C15   I11   S    
C101  H31   S    
C26   C34   A    
C78   H10   S    
C104  H40   S    
C91   C95   A    
C77   H9    S    
C71   H7    S    
C44   I4    S    
C46   O22   S    
C19   I8    S    
N2    C50   A    
C79   H11   S    
C98   H20   S    
C14   C30   A    
C21   C25   A    
C84   C88   A    
C7    C10   S    
C65   C69   A    
C98   H22   S    
O9    C5    A    
C26   C30   A    
C104  H39   S    
O11   V3    S    
C51   C55   A    
C97   H17   S    
C56   C68   A    
C81   C85   A    
O32   C100  S    
O6    V2    S    
C49   O25   S    
C76   C96   A    
O30   C98   S    
C100  H28   S    
C51   O27   S    
C12   C20   A    
C27   C35   A    
C24   H3    S    
C4    O14   A    
C3    C82   S    
C40   C44   A    
C29   C41   A    
C63   C72   A    
O16   V4    S    
C1    C84   S    
O9    V1    S    
C76   I20   S    
C3    O13   A    
C101  H30   S    
C79   C83   A    
C21   H2    S    
C37   O33   S    
C66   I14   S    
C99   H25   S    
C52   C56   A    
C77   C81   A    
O36   C104  S    
C18   I5    S    
C61   C70   A    
C86   H14   S    
C25   C33   A    
C23   C27   A    
C42   I2    S    
C2    C83   S    
N3    C96   S    
C30   C42   A    
C75   C79   A    
O12   V4    S    
C13   I9    S    
C22   C26   A    
C85   C89   A    
C8    C9    S    
C69   H5    S    
C38   O34   S    
C9    C17   A    
C103  H35   S    
O10   C6    A    
O20   V2    S    
C57   C58   A    
C102  H32   S    
C88   C92   A    
C66   C70   A    
C48   C64   A    
N4    C52   A    
C50   C54   A    
C68   I16   S    
C89   O29   S    
C33   C34   A    
C39   O35   S    
C40   O36   S    
C99   H24   S    
C89   C93   A    
C12   C24   A    
C27   C31   A    
C73   I17   S    
C13   C17   A    
C104  H38   S    
C54   C66   A    
O4    V2    S    
C23   H4    S    
C102  H33   S    
C53   C65   A    
O6    C2    A    
O14   V2    S    
C59   C63   A    
N3    C51   A    
C37   C41   A    
C24   C28   A    
C75   I19   S    
C48   O24   S    
N1    C49   A    
C46   N2    A    
C64   C71   A    
C67   I15   S    
C22   H1    S    
C41   I1    S    
C45   N1    A    
O5    C1    A    
O34   C102  S    
C47   N3    A    
N1    C94   S    
C78   C82   A    
C49   C53   A    
C28   C32   A    
C103  H36   S    
O29   C97   S    
