data_mof_unit_410.cif
_audit_creation_date              2012-12-10T20:03:13-0500
_audit_creation_method            fapswitch 2.2
_symmetry_space_group_name_H-M    P1
_symmetry_Int_Tables_number       1
_space_group_crystal_system       triclinic
_cell_length_a                    8.570541
_cell_length_b                    18.788648
_cell_length_c                    18.478396
_cell_angle_alpha                 88.82548
_cell_angle_beta                  97.811327
_cell_angle_gamma                 90.10758
_cell_volume                      2947.32456194

loop_
_atom_site_label
_atom_site_type_symbol
_atom_type_description
_atom_site_fract_x
_atom_site_fract_y
_atom_site_fract_z
_atom_type_partial_charge
C1    C     C_R   0.496198 0.364895 0.500507 0.977426
C2    C     C_R   0.375608 0.467318 0.270622 0.006335
C3    C     C_R   0.358948 0.532648 0.788274 -0.367238
C4    C     C_R   0.359663 0.466726 0.193978 -0.379768
C5    C     C_R   0.471747 0.499213 0.839892 0.070139
C6    C     C_R   0.471295 0.500808 0.156428 0.071690
C7    C     C_R   0.602092 0.466619 0.814948 0.447447
C8    C     C_R   0.600709 0.534027 0.197718 0.443795
C9    C     C_R   0.614912 0.468235 0.738760 -0.044868
C10   C     C_R   0.614311 0.532051 0.275582 -0.045013
C11   C     C_R   0.444165 0.435012 0.960431 0.585870
C12   C     C_R   0.498018 0.635061 0.499092 0.956997
C13   C     C_R   0.444945 0.565038 0.032364 0.583206
C14   C     C_R   0.448861 0.436246 0.037004 -0.360924
C15   C     C_R   0.450093 0.563772 0.956444 -0.350473
C16   C     C_R   0.201712 0.497703 0.481758 0.929858
C17   C     C_R   0.798225 0.502188 0.518337 0.986720
C18   C     C_R   0.454071 0.500854 0.074264 -0.008168
C19   C     C_R   0.454530 0.499166 0.919829 -0.007426
C20   C     C_2   0.040446 0.482953 0.476566 -0.270444
C21   C     C_2   0.959714 0.516238 0.524152 -0.302264
C22   C     C_R   0.312668 0.729745 0.455187 -0.183935
C23   C     C_R   0.305798 0.959626 0.557247 0.447209
C24   C     C_R   0.324378 0.269009 0.533516 -0.240662
C25   C     C_R   0.262318 0.799898 0.454730 -0.164740
C26   C     C_R   0.272173 0.199092 0.529356 -0.128353
C27   C     C_R   0.359165 0.850866 0.492137 0.143586
C28   C     C_R   0.353722 0.149175 0.493836 0.137606
C29   C     C_R   0.505428 0.831123 0.531040 -0.151042
C30   C     C_R   0.483669 0.170187 0.459809 -0.169313
C31   C     C_R   0.556213 0.760452 0.532210 0.484900
C32   C     C_R   0.531250 0.241398 0.460137 0.494239
C33   C     C_R   0.457893 0.709822 0.494646 -0.120932
C34   C     C_R   0.277576 0.039798 0.426100 0.450461
C35   C     C_R   0.454429 0.290122 0.499688 -0.133184
C36   C     C_2   0.986100 0.417451 0.435377 0.935412
C37   C     C_2   0.015117 0.580162 0.567669 0.885139
C38   C     C_3   0.736227 0.365019 0.859946 -0.200331
C39   C     C_3   0.732483 0.636468 0.170296 -0.180986
C40   C     C_2   0.755028 0.437191 0.713578 0.982764
C41   C     C_2   0.755263 0.562718 0.318168 0.953827
C42   C     C_3   0.275418 0.355609 0.902104 -0.333527
C43   C     C_3   0.277428 0.645362 0.069027 -0.323019
C44   C     C_3   0.821770 0.761956 0.535267 -0.305086
C45   C     C_R   0.316629 0.033919 0.560060 -0.173617
C46   C     C_3   0.624604 0.259394 0.351612 -0.245815
C47   C     C_3   0.168345 0.891136 0.628946 -0.190614
C48   C     C_3   0.107373 0.106960 0.348302 -0.220964
C49   C     C_2   0.349699 0.067461 0.632720 0.991633
C50   C     C_2   0.294716 0.932032 0.351852 0.985977
C51   C     C_R   0.290278 0.965575 0.423752 -0.172428
C52   C     C_R   0.309036 0.073804 0.493902 -0.187939
C53   C     C_R   0.311312 0.925805 0.490189 -0.195104
C54   C     C_R   0.374973 0.532211 0.713682 0.009315
H1    H     H_    0.449923 0.386326 0.067463 0.186108
H2    H     H_    0.287322 0.441339 0.298324 0.206531
H3    H     H_    0.257689 0.558428 0.805559 0.197642
H4    H     H_    0.259163 0.440425 0.164001 0.186330
H5    H     H_    0.000842 0.356292 0.348037 0.330346
H6    H     H_    0.004527 0.637025 0.658401 0.343513
H7    H     H_    0.842184 0.352673 0.834045 0.160838
H8    H     H_    0.631166 0.338911 0.829145 0.168394
H9    H     H_    0.754406 0.340732 0.915683 0.203776
H10   H     H_    0.749983 0.661447 0.117078 0.202888
H11   H     H_    0.627104 0.661987 0.188284 0.166063
H12   H     H_    0.452036 0.613677 0.926158 0.192648
H13   H     H_    0.838395 0.648769 0.209551 0.167113
H14   H     H_    0.991618 0.438144 0.718571 0.332985
H15   H     H_    0.846636 0.637444 0.388283 0.322439
H16   H     H_    0.222805 0.396215 0.861285 0.181934
H17   H     H_    0.205992 0.351780 0.948787 0.173122
H18   H     H_    0.267590 0.303394 0.874910 0.203103
H19   H     H_    0.270503 0.697631 0.095255 0.204019
H20   H     H_    0.223656 0.605038 0.103050 0.179078
H21   H     H_    0.208633 0.649540 0.013465 0.174842
H22   H     H_    0.813242 0.736823 0.480837 0.175383
H23   H     H_    0.236335 0.690432 0.426467 0.181111
H24   H     H_    0.934349 0.744533 0.567416 0.215430
H25   H     H_    0.826758 0.820928 0.529267 0.145676
H26   H     H_    0.722910 0.283733 0.326497 0.190390
H27   H     H_    0.516084 0.290329 0.331309 0.160262
H28   H     H_    0.612453 0.203443 0.333246 0.152321
H29   H     H_    0.131364 0.851683 0.585986 0.130936
H30   H     H_    0.077490 0.933604 0.627774 0.174912
H31   H     H_    0.175523 0.862846 0.682569 0.198543
H32   H     H_    0.017956 0.063670 0.345777 0.181429
H33   H     H_    0.085730 0.146130 0.390132 0.152227
H34   H     H_    0.260933 0.307189 0.561691 0.172624
H35   H     H_    0.091942 0.135255 0.294533 0.188194
H36   H     H_    0.295017 0.074126 0.735155 0.345256
H37   H     H_    0.198824 0.925255 0.246304 0.342699
H38   H     H_    0.148598 0.814588 0.425231 0.139738
H39   H     H_    0.170540 0.183500 0.554948 0.156466
H40   H     H_    0.579892 0.870651 0.560431 0.162433
H41   H     H_    0.548864 0.131053 0.433742 0.157714
H42   H     H_    0.286278 0.557926 0.674876 0.184514
N1    N     N_R   0.500020 0.499980 0.689440 -0.147870
N2    N     N_R   0.499980 0.500020 0.310560 -0.148837
O1    O     O_R   0.500010 0.398180 0.560840 -0.595157
O2    O     O_R   0.043470 0.402584 0.370014 -0.784022
O3    O     O_2   0.103799 0.623366 0.544270 -0.678391
O4    O     O_R   0.959770 0.592092 0.634181 -0.748073
O5    O     O_3   0.722023 0.439599 0.866224 -0.595702
O6    O     O_3   0.719460 0.561943 0.161399 -0.597066
O7    O     O_2   0.741305 0.386544 0.672802 -0.612467
O8    O     O_R   0.904187 0.464028 0.739101 -0.766931
O9    O     O_2   0.885409 0.539272 0.311540 -0.598355
O10   O     O_R   0.741101 0.620867 0.362637 -0.801593
O11   O     O_3   0.435215 0.370248 0.926211 -0.617895
O12   O     O_R   0.499990 0.601820 0.439160 -0.590108
O13   O     O_3   0.436991 0.629878 0.065414 -0.617110
O14   O     O_3   0.696959 0.740063 0.573003 -0.595661
O15   O     O_3   0.661390 0.262405 0.428244 -0.571966
O16   O     O_3   0.317738 0.919929 0.621780 -0.581210
O17   O     O_3   0.261945 0.079496 0.361506 -0.593385
O18   O     O_2   0.456740 0.110550 0.644774 -0.615187
O19   O     O_R   0.260740 0.048207 0.688069 -0.776828
O20   O     O_2   0.397743 0.888985 0.344140 -0.630009
O21   O     O_R   0.183009 0.951173 0.292343 -0.780316
O22   O     O_R   0.499930 0.398180 0.439210 -0.606879
O23   O     O_R   0.500070 0.601820 0.560790 -0.578284
O24   O     O_R   0.271780 0.500000 0.546590 -0.642644
O25   O     O_R   0.728220 0.500000 0.453410 -0.611309
O26   O     O_R   0.271710 0.499990 0.424960 -0.590974
O27   O     O_R   0.728290 0.500010 0.575040 -0.568219
O28   O     O_2   0.897540 0.375156 0.460237 -0.589172
Zn1   Zn    Zn3+2 0.500050 0.500000 0.581210 1.024661
Zn2   Zn    Zn3+2 0.499950 0.500000 0.418790 1.011618

loop_
_geom_bond_atom_site_label_1
_geom_bond_atom_site_label_2
_ccdc_geom_bond_type
C43   H19   S    
C47   O16   S    
C30   C32   A    
C23   C45   A    
C41   O10   S    
C11   O11   S    
C14   C18   A    
N1    Zn1   S    
C1    O1    A    
C12   O12   A    
C39   O6    S    
C15   C19   A    
C39   H10   S    
C11   C19   A    
C34   C51   A    
C30   H41   S    
H14   O8    S    
C13   C18   A    
C47   H31   S    
C42   O11   S    
C24   C26   A    
O23   Zn1   S    
C29   H40   S    
C3    C54   A    
C27   C29   A    
C42   H16   S    
C44   H22   S    
O24   Zn1   S    
C10   N2    A    
C16   O24   A    
C34   C52   A    
C46   H28   S    
C17   O25   A    
C49   O19   S    
C12   O23   A    
C22   C25   A    
C31   O14   S    
C31   C33   A    
C54   N1    A    
C47   H29   S    
C32   O15   S    
C54   H42   S    
O26   Zn2   S    
C38   H7    S    
C26   H39   S    
N2    Zn2   S    
C14   H1    S    
C7    O5    S    
C27   C53   S    
C10   C41   S    
H5    O2    S    
C39   H11   S    
C43   O13   S    
H6    O4    S    
H15   O10   S    
C23   C53   A    
C43   H21   S    
C6    C18   S    
C24   C35   A    
C50   O21   S    
C32   C35   A    
C4    C6    A    
C5    C7    A    
O1    Zn1   S    
C45   C52   A    
C34   O17   S    
C15   H12   S    
C9    C40   S    
C17   C21   S    
C51   C53   A    
C1    O22   A    
C2    C4    A    
H36   O19   S    
C38   O5    S    
C46   H27   S    
C24   H34   S    
C45   C49   S    
C16   C20   S    
C42   H18   S    
C50   C51   S    
C48   H33   S    
C36   O2    S    
C47   H30   S    
C8    O6    S    
C48   O17   S    
C44   O14   S    
C8    C10   A    
C48   H35   S    
C13   C15   A    
C48   H32   S    
C3    H3    S    
C1    C35   S    
C40   O8    S    
C38   H9    S    
C7    C9    A    
C22   C33   A    
C25   H38   S    
C9    N1    A    
C41   O9    D    
C46   O15   S    
C50   O20   D    
C39   H13   S    
C44   H25   S    
C36   O28   D    
C22   H23   S    
C3    C5    A    
C6    C8    A    
O22   Zn2   S    
C5    C19   S    
C25   C27   A    
C26   C28   A    
C44   H24   S    
C16   O26   A    
C29   C31   A    
C2    H2    S    
C23   O16   S    
C37   O3    D    
C28   C52   S    
C17   O27   A    
O25   Zn2   S    
C37   O4    S    
C43   H20   S    
C28   C30   A    
C42   H17   S    
C11   C14   A    
H37   O21   S    
C20   C36   S    
C49   O18   D    
C21   C37   S    
C20   C21   D    
C2    N2    A    
C13   O13   S    
C4    H4    S    
O27   Zn1   S    
C46   H26   S    
C12   C33   S    
O12   Zn2   S    
C40   O7    D    
C38   H8    S    
