data_mof_unit_3229.cif
_audit_creation_date              2012-10-26T19:57:53-0400
_audit_creation_method            fapswitch 2.2
_symmetry_space_group_name_H-M    P1
_symmetry_Int_Tables_number       1
_space_group_crystal_system       triclinic
_cell_length_a                    7.47101
_cell_length_b                    8.684869
_cell_length_c                    12.947655
_cell_angle_alpha                 88.039641
_cell_angle_beta                  79.352797
_cell_angle_gamma                 102.792969
_cell_volume                      802.669225622

loop_
_atom_site_label
_atom_site_type_symbol
_atom_type_description
_atom_site_fract_x
_atom_site_fract_y
_atom_site_fract_z
_atom_type_partial_charge
C1    C     C_R   0.452833 0.199759 0.503203 0.554280
C2    C     C_R   0.717598 0.605957 0.121892 -0.084624
C3    C     C_R   0.595503 0.559094 0.858774 -0.131374
C4    C     C_R   0.404497 0.440907 0.141226 -0.131375
C5    C     C_R   0.584961 0.543689 0.967343 0.006003
C6    C     C_R   0.415038 0.456313 0.032657 0.006002
C7    C     C_2   0.426319 0.031878 0.504764 -0.133942
C8    C     C_2   0.573681 0.968122 0.495236 -0.133942
C9    C     C_2   0.076822 0.298541 0.050701 0.571326
C10   C     C_2   0.923176 0.701462 0.949299 0.571327
C11   C     C_R   0.547167 0.800241 0.496797 0.554279
C12   C     C_R   0.466463 0.493659 0.701183 0.556697
C13   C     C_R   0.533537 0.506341 0.298817 0.556696
C14   C     C_R   0.552604 0.517596 0.185398 0.004891
C15   C     C_R   0.447396 0.482405 0.814601 0.004891
C16   C     C_R   0.261606 0.383836 0.987363 0.014285
C17   C     C_R   0.738393 0.616166 0.012637 0.014285
C18   C     C_R   0.282401 0.394045 0.878108 -0.084624
Cu1   Cu    Cu3+1 0.686350 0.517570 0.488220 0.995523
Cu2   Cu    Cu3+1 0.313650 0.482430 0.511780 0.995523
H1    H     H_    0.282283 0.367745 0.192639 0.160321
H2    H     H_    0.953089 0.519103 0.860038 0.294957
H3    H     H_    0.717717 0.632254 0.807361 0.160320
H4    H     H_    0.832003 0.665026 0.157632 0.148861
H5    H     H_    0.167996 0.334976 0.842368 0.148863
H6    H     H_    0.934245 0.376606 0.583242 0.240248
H7    H     H_    0.065755 0.623394 0.416758 0.240248
H8    H     H_    0.284246 0.960373 0.513765 0.141622
H9    H     H_    0.715754 0.039627 0.486235 0.141622
H10   H     H_    0.046914 0.480900 0.139964 0.294956
N1    N     N_2   0.033570 0.455950 0.529530 -0.251469
N2    N     N_2   0.966430 0.544050 0.470470 -0.251469
O1    O     O_R   0.621060 0.286250 0.492350 -0.501319
O2    O     O_R   0.982188 0.367140 0.133496 -0.670063
O3    O     O_2   0.997706 0.832165 0.972122 -0.416108
O4    O     O_R   0.017815 0.632862 0.866506 -0.670064
O5    O     O_R   0.378940 0.713750 0.507650 -0.501319
O6    O     O_R   0.306310 0.256580 0.512240 -0.499019
O7    O     O_R   0.693690 0.743420 0.487760 -0.499019
O8    O     O_R   0.631800 0.512400 0.642670 -0.513840
O9    O     O_R   0.368200 0.487600 0.357330 -0.513840
O10   O     O_R   0.317060 0.482730 0.662570 -0.487253
O11   O     O_R   0.682940 0.517270 0.337430 -0.487253
O12   O     O_2   0.002286 0.167841 0.027874 -0.416109

loop_
_geom_bond_atom_site_label_1
_geom_bond_atom_site_label_2
_ccdc_geom_bond_type
C12   O8    A    
C15   C18   A    
Cu2   O10   S    
C10   O3    D    
C4    H1    S    
Cu2   O6    S    
C3    H3    S    
N1    N2    D    
C12   C15   S    
C13   O9    A    
Cu2   O9    S    
C1    O1    A    
C7    C8    D    
C4    C14   A    
C13   C14   S    
C12   O10   A    
C2    C17   A    
C11   O7    A    
Cu2   O5    S    
C5    C6    A    
C18   H5    S    
Cu1   O7    S    
C1    O6    A    
C8    C11   S    
C8    H9    S    
C4    C6    A    
C9    C16   S    
Cu1   O11   S    
C2    H4    S    
C9    O2    S    
C2    C14   A    
C5    C17   A    
Cu1   O8    S    
Cu1   N2    S    
C10   C17   S    
C6    C16   A    
C13   O11   A    
C3    C15   A    
C16   C18   A    
Cu1   O1    S    
C11   O5    A    
H10   O2    S    
C9    O12   D    
C10   O4    S    
H7    N2    S    
C1    C7    S    
H6    N1    S    
H2    O4    S    
C7    H8    S    
Cu1   Cu2   S    
C3    C5    A    
Cu2   N1    S    
