data_mof_unit_1513.cif
_audit_creation_date              2012-12-11T14:54:42-0500
_audit_creation_method            fapswitch 2.2
_symmetry_space_group_name_H-M    P1
_symmetry_Int_Tables_number       1
_space_group_crystal_system       triclinic
_cell_length_a                    18.96536
_cell_length_b                    10.914146
_cell_length_c                    18.8508
_cell_angle_alpha                 89.98848
_cell_angle_beta                  89.900289
_cell_angle_gamma                 90.214971
_cell_volume                      3901.90698126

loop_
_atom_site_label
_atom_site_type_symbol
_atom_type_description
_atom_site_fract_x
_atom_site_fract_y
_atom_site_fract_z
_atom_type_partial_charge
C1    C     C_R   0.729582 0.375969 0.645352 0.530401
C2    C     C_R   0.269656 0.376583 0.354103 0.541953
C3    C     C_R   0.229587 0.875981 0.645357 0.530132
C4    C     C_R   0.769657 0.876584 0.354102 0.542395
C5    C     C_3   0.466545 0.376810 0.469363 -0.124757
C6    C     C_3   0.488631 0.372055 0.547902 -0.127413
C7    C     C_3   0.966575 0.876812 0.469327 -0.124596
C8    C     C_3   0.988630 0.872040 0.547874 -0.127481
C9    C     C_R   0.705980 0.851198 0.540195 -0.155551
C10   C     C_R   0.303885 0.869558 0.461903 -0.141926
C11   C     C_R   0.205993 0.351176 0.540200 -0.155495
C12   C     C_R   0.803874 0.369524 0.461894 -0.141883
C13   C     C_R   0.707649 0.836044 0.467014 -0.142612
C14   C     C_R   0.301407 0.859067 0.535440 -0.147012
C15   C     C_R   0.207659 0.336024 0.467018 -0.142558
C16   C     C_R   0.801393 0.359025 0.535430 -0.147007
C17   C     C_R   0.749952 0.913754 0.425033 0.024060
C18   C     C_R   0.245052 0.911125 0.572870 0.020525
C19   C     C_R   0.249951 0.413749 0.425035 0.023866
C20   C     C_R   0.745038 0.411082 0.572859 0.020523
C21   C     C_R   0.786548 0.010886 0.455879 -0.143814
C22   C     C_R   0.193263 0.977491 0.536742 -0.140393
C23   C     C_R   0.286535 0.510896 0.455878 -0.144023
C24   C     C_R   0.693248 0.477448 0.536732 -0.140411
C25   C     C_R   0.785940 0.024277 0.528348 -0.128910
C26   C     C_R   0.194282 0.983652 0.464400 -0.136028
C27   C     C_R   0.285927 0.524290 0.528348 -0.128775
C28   C     C_R   0.694272 0.483622 0.464392 -0.136134
C29   C     C_R   0.746489 0.943996 0.571091 0.040769
C30   C     C_R   0.250022 0.931891 0.426158 0.032024
C31   C     C_R   0.246492 0.443988 0.571094 0.041039
C32   C     C_R   0.750014 0.431866 0.426151 0.031962
C33   C     C_R   0.479352 0.059048 0.956802 -0.133709
C34   C     C_R   0.472194 0.055742 0.029277 -0.123786
C35   C     C_R   0.026699 0.555615 0.970516 -0.124023
C36   C     C_R   0.019749 0.559154 0.042984 -0.132044
C37   C     C_R   0.483704 0.161693 0.070097 0.028716
C38   C     C_R   0.501508 0.166872 0.923621 0.017024
C39   C     C_R   0.998077 0.667046 0.076119 0.022073
C40   C     C_R   0.015630 0.661467 0.929620 0.025143
C41   C     C_R   0.501068 0.272261 0.036725 -0.120733
C42   C     C_R   0.510142 0.274782 0.963447 -0.123061
C43   C     C_R   0.989628 0.774751 0.036178 -0.119512
C44   C     C_R   0.998615 0.772075 0.962888 -0.123858
C45   C     C_R   0.565261 0.150903 0.639202 0.567109
C46   C     C_R   0.468950 0.155414 0.353467 0.533517
C47   C     C_R   0.065260 0.650903 0.639200 0.567765
C48   C     C_R   0.968958 0.655414 0.353461 0.531652
C49   C     C_R   0.805146 0.991149 0.966351 -0.113765
C50   C     C_R   0.191188 0.978593 0.036524 -0.103244
C51   C     C_R   0.309718 0.475639 0.962852 -0.106816
C52   C     C_R   0.696102 0.494606 0.032982 -0.110435
C53   C     C_R   0.806959 0.990736 0.039033 0.078045
C54   C     C_R   0.189122 0.978811 0.963925 0.085936
C55   C     C_R   0.311849 0.476742 0.035478 0.087516
C56   C     C_R   0.694238 0.492964 0.960321 0.076350
C57   C     C_R   0.754842 0.923570 0.076854 0.033369
C58   C     C_R   0.242387 0.915807 0.925552 0.031631
C59   C     C_R   0.257976 0.415208 0.074195 0.033880
C60   C     C_R   0.745591 0.424101 0.922895 0.030667
C61   C     C_R   0.696559 0.874991 0.040586 -0.149475
C62   C     C_R   0.299907 0.865166 0.961930 -0.155209
C63   C     C_R   0.199794 0.365558 0.038124 -0.154887
C64   C     C_R   0.803181 0.374433 0.959492 -0.149268
C65   C     C_R   0.692085 0.887455 0.967403 -0.122360
C66   C     C_R   0.303979 0.875384 0.035255 -0.132859
C67   C     C_R   0.195522 0.375761 0.964807 -0.131009
C68   C     C_R   0.807494 0.386994 0.032674 -0.123906
C69   C     C_R   0.747892 0.941005 0.929742 0.005640
C70   C     C_R   0.249258 0.931645 0.072757 0.008162
C71   C     C_R   0.250828 0.430343 0.926958 0.004448
C72   C     C_R   0.752363 0.442593 0.069949 0.008293
C73   C     C_R   0.740287 0.973878 0.645597 0.546526
C74   C     C_R   0.258731 0.970429 0.353136 0.545859
C75   C     C_R   0.240291 0.473866 0.645601 0.546302
C76   C     C_R   0.758729 0.470423 0.353133 0.546805
C77   C     C_R   0.729660 0.380468 0.851930 0.560034
C78   C     C_R   0.271184 0.378498 0.147023 0.560002
C79   C     C_R   0.228892 0.878542 0.852874 0.559043
C80   C     C_R   0.770407 0.880482 0.147993 0.561021
C81   C     C_R   0.531437 0.157369 0.852944 0.552980
C82   C     C_R   0.465051 0.156504 0.144810 0.545564
C83   C     C_R   0.034703 0.656349 0.855041 0.553800
C84   C     C_R   0.968433 0.657555 0.146947 0.543087
C85   C     C_R   0.740472 0.973968 0.855637 0.546055
C86   C     C_R   0.258740 0.971426 0.145437 0.552556
C87   C     C_R   0.241289 0.470902 0.854439 0.542451
C88   C     C_R   0.759625 0.474686 0.144199 0.556436
C89   C     C_R   0.511982 0.164410 0.418137 -0.004705
C90   C     C_R   0.553598 0.158601 0.562292 0.013016
C91   C     C_R   0.012005 0.664411 0.418122 -0.004643
C92   C     C_R   0.053604 0.658601 0.562284 0.012728
C93   C     C_R   0.516954 0.272591 0.457868 -0.017955
C94   C     C_R   0.537178 0.269316 0.528403 0.015576
C95   C     C_R   0.016988 0.772597 0.457846 -0.017816
C96   C     C_R   0.037195 0.769319 0.528389 0.015445
C97   C     C_R   0.561368 0.054313 0.519357 -0.155186
C98   C     C_R   0.541752 0.057688 0.447663 -0.148322
C99   C     C_R   0.061375 0.554311 0.519351 -0.155147
C100  C     C_R   0.041766 0.557685 0.447654 -0.148466
Cr1   Cr    Cr6+3 0.771950 0.169480 0.750100 1.003740
Cr2   Cr    Cr6+3 0.228050 0.169480 0.249900 1.000264
Cr3   Cr    Cr6+3 0.271950 0.669480 0.750100 1.003035
Cr4   Cr    Cr6+3 0.728050 0.669480 0.249900 1.001241
Cr5   Cr    Cr6+3 0.614930 0.323340 0.749170 1.027682
Cr6   Cr    Cr6+3 0.385070 0.323340 0.250830 1.047174
Cr7   Cr    Cr6+3 0.114930 0.823340 0.749170 1.030292
Cr8   Cr    Cr6+3 0.885070 0.823340 0.250830 1.044569
Cr9   Cr    Cr6+3 0.616590 0.010620 0.750610 1.028540
Cr10  Cr    Cr6+3 0.383410 0.010620 0.249390 1.029119
Cr11  Cr    Cr6+3 0.116590 0.510620 0.750610 1.024408
Cr12  Cr    Cr6+3 0.883410 0.510620 0.249390 1.033429
H1    H     H_    0.577759 0.968146 0.542207 0.136576
H2    H     H_    0.544088 0.973859 0.417391 0.129961
H3    H     H_    0.077763 0.468143 0.542203 0.136559
H4    H     H_    0.044099 0.473852 0.417384 0.129778
H5    H     H_    0.847364 0.038453 0.938756 0.164174
H6    H     H_    0.148761 0.024258 0.064407 0.167176
H7    H     H_    0.352620 0.519971 0.934664 0.164400
H8    H     H_    0.654535 0.543566 0.060267 0.166241
H9    H     H_    0.655410 0.825366 0.068458 0.148162
H10   H     H_    0.341051 0.816281 0.933940 0.146694
H11   H     H_    0.158141 0.317902 0.066387 0.144485
H12   H     H_    0.843733 0.323383 0.931934 0.150420
H13   H     H_    0.644911 0.857160 0.940488 0.176036
H14   H     H_    0.350250 0.842068 0.062385 0.163464
H15   H     H_    0.148586 0.344045 0.937972 0.163552
H16   H     H_    0.853942 0.354868 0.059921 0.175768
H17   H     H_    0.910756 0.851358 0.459017 0.147086
H18   H     H_    0.019915 0.952869 0.565633 0.115427
H19   H     H_    0.410721 0.351354 0.459081 0.147007
H20   H     H_    0.519937 0.452879 0.565635 0.115573
H21   H     H_    0.673763 0.790739 0.572433 0.116522
H22   H     H_    0.348050 0.831405 0.433211 0.128718
H23   H     H_    0.173786 0.290704 0.572439 0.116259
H24   H     H_    0.848041 0.331375 0.433203 0.128850
H25   H     H_    0.678950 0.760082 0.443871 0.137311
H26   H     H_    0.342292 0.808665 0.562661 0.117911
H27   H     H_    0.178967 0.260054 0.443876 0.137311
H28   H     H_    0.842279 0.308628 0.562652 0.118006
H29   H     H_    0.818981 0.072157 0.424351 0.139915
H30   H     H_    0.149405 0.020367 0.563871 0.130535
H31   H     H_    0.318958 0.572180 0.424348 0.139565
H32   H     H_    0.649392 0.520328 0.563861 0.130750
H33   H     H_    0.815990 0.098908 0.550871 0.130571
H34   H     H_    0.152681 0.034969 0.439057 0.144594
H35   H     H_    0.315963 0.598939 0.550869 0.130604
H36   H     H_    0.652675 0.534950 0.439050 0.144642
H37   H     H_    0.471673 0.974803 0.927322 0.142968
H38   H     H_    0.456630 0.969461 0.053017 0.147890
H39   H     H_    0.041925 0.469293 0.946865 0.147757
H40   H     H_    0.027257 0.474994 0.072517 0.142165
H41   H     H_    0.508556 0.355336 0.067193 0.162193
H42   H     H_    0.527258 0.359002 0.938575 0.175321
H43   H     H_    0.972882 0.858946 0.061016 0.175770
H44   H     H_    0.991489 0.855113 0.932350 0.158966
O1    O     O_R   0.787510 0.042610 0.670410 -0.529082
O2    O     O_R   0.212490 0.042610 0.329590 -0.538222
O3    O     O_R   0.287510 0.542610 0.670410 -0.529149
O4    O     O_R   0.712490 0.542610 0.329590 -0.537962
O5    O     O_R   0.556450 0.252890 0.823790 -0.495145
O6    O     O_R   0.443550 0.252890 0.176210 -0.491835
O7    O     O_R   0.056450 0.752890 0.823790 -0.488397
O8    O     O_R   0.943550 0.752890 0.176210 -0.498137
O9    O     O_R   0.545750 0.051070 0.830560 -0.513084
O10   O     O_R   0.454250 0.051070 0.169440 -0.525454
O11   O     O_R   0.045750 0.551070 0.830560 -0.518164
O12   O     O_R   0.954250 0.551070 0.169440 -0.520553
O13   O     O_R   0.681210 0.959150 0.825320 -0.489195
O14   O     O_R   0.318790 0.959150 0.174680 -0.496214
O15   O     O_R   0.181210 0.459150 0.825320 -0.495130
O16   O     O_R   0.818790 0.459150 0.174680 -0.489955
O17   O     O_3   0.667820 0.167810 0.749960 -0.270229
O18   O     O_3   0.332180 0.167810 0.250040 -0.249410
O19   O     O_3   0.167820 0.667810 0.749960 -0.270658
O20   O     O_3   0.832180 0.667810 0.250040 -0.249112
O21   O     O_R   0.765670 0.292090 0.675090 -0.508786
O22   O     O_R   0.234330 0.292090 0.324910 -0.512067
O23   O     O_R   0.265670 0.792090 0.675090 -0.508665
O24   O     O_R   0.734330 0.792090 0.324910 -0.512258
O25   O     O_R   0.670220 0.409020 0.668560 -0.535040
O26   O     O_R   0.329780 0.409020 0.331440 -0.515660
O27   O     O_R   0.170220 0.909020 0.668560 -0.535830
O28   O     O_R   0.829780 0.909020 0.331440 -0.514878
O29   O     O_R   0.556580 0.251590 0.674980 -0.499204
O30   O     O_R   0.443420 0.251590 0.325020 -0.508894
O31   O     O_R   0.056580 0.751590 0.674980 -0.498565
O32   O     O_R   0.943420 0.751590 0.325020 -0.509345
O33   O     O_R   0.545890 0.049670 0.670030 -0.515045
O34   O     O_R   0.454110 0.049670 0.329970 -0.524577
O35   O     O_R   0.045890 0.549670 0.670030 -0.513237
O36   O     O_R   0.954110 0.549670 0.329970 -0.526035
O37   O     O_R   0.681340 0.957860 0.676500 -0.522193
O38   O     O_R   0.318660 0.957860 0.323500 -0.498472
O39   O     O_R   0.181340 0.457860 0.676500 -0.522937
O40   O     O_R   0.818660 0.457860 0.323500 -0.497698
O41   O     O_R   0.787380 0.044010 0.830940 -0.536564
O42   O     O_R   0.212620 0.044010 0.169060 -0.530687
O43   O     O_R   0.287380 0.544010 0.830940 -0.534414
O44   O     O_R   0.712620 0.544010 0.169060 -0.532093
O45   O     O_R   0.765540 0.293390 0.823910 -0.505295
O46   O     O_R   0.234460 0.293390 0.176090 -0.512312
O47   O     O_R   0.265540 0.793390 0.823910 -0.505430
O48   O     O_R   0.734460 0.793390 0.176090 -0.512390
O49   O     O_R   0.670090 0.410410 0.829090 -0.477787
O50   O     O_R   0.329910 0.410410 0.170910 -0.473628
O51   O     O_R   0.170090 0.910410 0.829090 -0.475708
O52   O     O_R   0.829910 0.910410 0.170910 -0.475738
I1    I     I_    0.892640 0.096120 0.082048 -0.432475
I2    I     I_    0.101200 0.080020 0.922825 -0.435592
I3    I     I_    0.400278 0.578124 0.076198 -0.428475
I4    I     I_    0.609067 0.597958 0.916848 -0.440750
C101  C     C_R   0.488212 0.494900 0.432506 0.037006
C102  C     C_R   0.468557 0.608038 0.462069 -0.121303
C103  C     C_R   0.486929 0.717794 0.428586 -0.133387
C104  C     C_R   0.523679 0.716093 0.364332 -0.107198
C105  C     C_R   0.542636 0.604528 0.333792 -0.102165
C106  C     C_R   0.525272 0.494456 0.367583 -0.065001
H45   H     H_    0.439485 0.611378 0.511472 0.096250
H46   H     H_    0.472341 0.804063 0.452534 0.109251
H47   H     H_    0.537428 0.800999 0.338025 0.120523
H48   H     H_    0.571133 0.603287 0.283995 0.130870
H49   H     H_    0.541510 0.409651 0.343027 0.128991
C107  C     C_R   0.431453 0.334405 0.600285 0.037261
C108  C     C_R   0.428667 0.392958 0.666705 -0.034376
C109  C     C_R   0.384842 0.347888 0.720484 -0.060077
C110  C     C_R   0.340876 0.247549 0.707576 -0.099062
C111  C     C_R   0.341258 0.191307 0.641073 -0.108301
C112  C     C_R   0.386622 0.233354 0.587769 -0.080614
H50   H     H_    0.462983 0.469981 0.678101 0.092805
H51   H     H_    0.384892 0.391063 0.772135 0.123940
H52   H     H_    0.306396 0.213614 0.749029 0.116783
H53   H     H_    0.307140 0.113867 0.631251 0.115698
H54   H     H_    0.388077 0.184812 0.537724 0.113614
C113  C     C_R   0.988250 0.994904 0.432477 0.037059
C114  C     C_R   0.968590 0.108040 0.462038 -0.121345
C115  C     C_R   0.986945 0.217798 0.428547 -0.133159
C116  C     C_R   0.023683 0.216100 0.364286 -0.106613
C117  C     C_R   0.042645 0.104535 0.333747 -0.101648
C118  C     C_R   0.025296 0.994461 0.367546 -0.064824
H55   H     H_    0.939521 0.111378 0.511443 0.096190
H56   H     H_    0.972349 0.304066 0.452493 0.109224
H57   H     H_    0.037418 0.301009 0.337973 0.119786
H58   H     H_    0.071130 0.103296 0.283943 0.130476
H59   H     H_    0.041530 0.909656 0.342987 0.128519
C119  C     C_R   0.931426 0.834339 0.600215 0.037137
C120  C     C_R   0.928596 0.892837 0.666648 -0.034365
C121  C     C_R   0.884708 0.847757 0.720371 -0.059131
C122  C     C_R   0.840729 0.747461 0.707394 -0.097519
C123  C     C_R   0.841168 0.691264 0.640882 -0.108141
C124  C     C_R   0.886593 0.733315 0.587635 -0.080703
H60   H     H_    0.962911 0.969838 0.678092 0.092555
H61   H     H_    0.884708 0.890908 0.772029 0.124060
H62   H     H_    0.806190 0.713528 0.748799 0.119194
H63   H     H_    0.807038 0.613865 0.631006 0.115862
H64   H     H_    0.888082 0.684808 0.537580 0.113672

loop_
_geom_bond_atom_site_label_1
_geom_bond_atom_site_label_2
_ccdc_geom_bond_type
C58   C62   A    
C74   O38   A    
Cr11  O35   S    
C93   C94   A    
C88   O16   A    
C73   O37   A    
C63   H11   S    
C34   C37   A    
C41   C42   A    
C14   C18   A    
Cr1   O17   S    
C95   C96   A    
C8    C96   S    
Cr6   O6    S    
C87   O43   A    
Cr8   O52   S    
Cr3   O3    S    
C107  C108  A    
Cr2   O2    S    
C3    O27   A    
C97   C98   A    
C34   H38   S    
C7    C8    S    
Cr4   O20   S    
C46   C89   S    
Cr12  O16   S    
C120  H60   S    
C121  C122  A    
C15   C19   A    
Cr8   O8    S    
C10   H22   S    
C122  C123  A    
C50   C54   A    
C57   C61   A    
C35   H39   S    
C115  H56   S    
Cr11  O19   S    
C64   C68   A    
C42   H42   S    
Cr4   O4    S    
C39   C84   S    
C48   O32   A    
C5    H19   S    
C67   H15   S    
C102  H45   S    
Cr2   O42   S    
C2    O26   A    
C5    C6    S    
C30   C74   S    
Cr9   O17   S    
C79   O51   A    
C98   H2    S    
Cr3   O23   S    
C29   C73   S    
C9    H21   S    
C109  H51   S    
Cr12  O12   S    
Cr7   O31   S    
C92   C96   A    
C114  C115  A    
C46   O34   A    
C3    C18   S    
C61   H9    S    
C47   C92   S    
Cr1   O41   S    
Cr5   O29   S    
C112  H54   S    
C26   H34   S    
C9    C13   A    
C104  H47   S    
Cr6   O26   S    
C3    O23   A    
C76   O40   A    
C119  C120  A    
C52   C56   A    
C11   C15   A    
Cr12  O40   S    
C117  C118  A    
Cr9   O33   S    
C6    C94   S    
C48   C91   S    
C100  H4    S    
Cr10  O38   S    
C51   H7    S    
C113  C114  A    
Cr9   O37   S    
C117  H58   S    
C23   C27   A    
C91   C100  A    
C68   H16   S    
C90   C97   A    
Cr7   O51   S    
C84   O8    A    
C9    C29   A    
Cr10  O18   S    
C110  H52   S    
C11   C31   A    
C122  H62   S    
C14   H26   S    
C15   H27   S    
C49   C69   A    
C115  C116  A    
C12   C32   A    
C89   C93   A    
Cr4   O44   S    
C40   C83   S    
C23   H31   S    
C16   H28   S    
C51   C71   A    
C4    O24   A    
C41   H41   S    
C43   H43   S    
C59   C78   S    
C111  C112  A    
C72   C88   S    
Cr9   O13   S    
C90   C94   A    
C6    C107  S    
C119  C124  A    
Cr1   O1    S    
C25   C29   A    
C63   C67   A    
C60   C77   S    
C28   H36   S    
C82   O10   A    
Cr8   O28   S    
C27   C31   A    
C44   H44   S    
C12   C16   A    
C107  C112  A    
C106  H49   S    
C104  C105  A    
Cr6   O30   S    
C6    H20   S    
C10   C14   A    
C62   C66   A    
C121  H61   S    
C36   H40   S    
C39   C43   A    
C82   O6    A    
C51   C55   A    
C78   O46   A    
C123  C124  A    
C101  C102  A    
C83   O11   A    
C116  H57   S    
Cr10  O34   S    
C85   O13   A    
C66   H14   S    
C48   O36   A    
Cr7   O27   S    
C68   C72   A    
Cr5   O17   S    
C35   C36   A    
C65   H13   S    
C114  H55   S    
Cr4   O24   S    
C19   C23   A    
C103  C104  A    
C78   O50   A    
Cr6   O50   S    
C52   C72   A    
C77   O49   A    
Cr12  O36   S    
C10   C30   A    
C31   C75   S    
C110  C111  A    
C28   C32   A    
C16   C20   A    
C87   O15   A    
C22   H30   S    
Cr3   O19   S    
C33   C34   A    
Cr6   O18   S    
C75   O39   A    
Cr3   O43   S    
C4    O28   A    
C74   O2    A    
Cr5   O49   S    
C45   C90   S    
C111  H53   S    
Cr9   O9    S    
C58   C79   S    
C86   O42   A    
C7    C113  S    
C71   C87   S    
C4    C17   S    
C52   H8    S    
Cr4   O48   S    
C45   O33   A    
C80   O52   A    
C57   C80   S    
C26   C30   A    
C83   O7    A    
C79   O47   A    
C43   C44   A    
C8    H18   S    
C118  H59   S    
Cr2   O22   S    
Cr5   O5    S    
C37   C82   S    
Cr11  O11   S    
C97   H1    S    
C70   C86   S    
Cr10  O14   S    
C62   H10   S    
C47   O31   A    
C69   C85   S    
C55   C59   A    
C12   H24   S    
C54   C58   A    
C75   O3    A    
C105  H48   S    
C65   C69   A    
C21   C25   A    
C116  C117  A    
C76   O4    A    
C1    C20   S    
C1    O25   A    
Cr12  O20   S    
C2    C19   S    
C50   H6    S    
C81   O5    A    
Cr8   O32   S    
C36   C39   A    
Cr8   O20   S    
C11   H23   S    
C24   C28   A    
Cr7   O7    S    
C53   C57   A    
C32   C76   S    
C5    C93   S    
C120  C121  A    
C47   O35   A    
C56   I4    S    
C73   O1    A    
Cr2   O18   S    
C7    C95   S    
C64   H12   S    
C59   C63   A    
C108  H50   S    
C99   C100  A    
C13   C17   A    
C89   C98   A    
C60   C64   A    
C101  C106  A    
C88   O44   A    
C18   C22   A    
C35   C40   A    
Cr2   O46   S    
C21   H29   S    
C38   C81   S    
C27   H35   S    
Cr1   O45   S    
C103  H46   S    
C99   H3    S    
C77   O45   A    
Cr10  O10   S    
C45   O29   A    
C124  H64   S    
C66   C70   A    
Cr7   O19   S    
C86   O14   A    
C24   H32   S    
C49   C53   A    
C5    C101  S    
C102  C103  A    
C105  C106  A    
C33   H37   S    
C67   C71   A    
C8    C119  S    
C37   C41   A    
Cr3   O47   S    
C50   C70   A    
C7    H17   S    
Cr1   O21   S    
C55   I3    S    
C38   C42   A    
C61   C65   A    
C54   I2    S    
C56   C60   A    
C84   O12   A    
C46   O30   A    
C91   C95   A    
C53   I1    S    
C109  C110  A    
C22   C26   A    
C49   H5    S    
Cr11  O39   S    
C40   C44   A    
C81   O9    A    
C85   O41   A    
C33   C38   A    
C25   H33   S    
C2    O22   A    
Cr5   O25   S    
C80   O48   A    
C1    O21   A    
C20   C24   A    
C113  C118  A    
C123  H63   S    
C92   C99   A    
C13   H25   S    
C108  C109  A    
Cr11  O15   S    
C17   C21   A    
