data_mof_unit_4459.cif
_audit_creation_date              2012-12-10T17:19:21-0500
_audit_creation_method            fapswitch 2.2
_symmetry_space_group_name_H-M    P1
_symmetry_Int_Tables_number       1
_space_group_crystal_system       triclinic
_cell_length_a                    14.989145
_cell_length_b                    10.942662
_cell_length_c                    9.610555
_cell_angle_alpha                 90.229634
_cell_angle_beta                  90.624985
_cell_angle_gamma                 93.796761
_cell_volume                      1572.76329243

loop_
_atom_site_label
_atom_site_type_symbol
_atom_type_description
_atom_site_fract_x
_atom_site_fract_y
_atom_site_fract_z
_atom_type_partial_charge
C1    C     C_R   0.489465 0.262967 0.500272 0.800565
C2    C     C_R   0.913038 0.619781 0.520300 0.108445
C3    C     C_R   0.941439 0.287061 0.457371 -0.193472
C4    C     C_R   0.034253 0.285533 0.455346 -0.214545
C5    C     C_R   0.087597 0.394091 0.476076 0.123533
C6    C     C_R   0.047375 0.505672 0.498915 0.071012
C7    C     C_R   0.101025 0.615060 0.520896 0.115725
C8    C     C_R   0.061055 0.725315 0.542025 -0.220391
C9    C     C_R   0.968272 0.727990 0.541215 -0.207038
C10   C     C_R   0.180619 0.393145 0.474762 -0.263662
C11   C     C_R   0.233028 0.501685 0.498010 -0.042832
C12   C     C_R   0.329166 0.499687 0.499366 0.799872
C13   C     C_R   0.193940 0.612149 0.521351 -0.237939
C14   C     C_R   0.452810 0.114730 0.758377 -0.125983
C15   C     C_R   0.479795 0.061834 0.882062 -0.153649
C16   C     C_R   0.528406 0.958318 0.876497 -0.137066
C17   C     C_R   0.539557 0.900643 0.748900 -0.130824
C18   C     C_R   0.502366 0.943815 0.625296 0.049648
C19   C     C_R   0.474224 0.063473 0.628430 0.097002
C20   C     C_R   0.474067 0.129019 0.502564 -0.173634
C21   C     C_R   0.469882 0.064738 0.376905 -0.210725
C22   C     C_R   0.472811 0.937548 0.374062 0.161188
C23   C     C_R   0.500290 0.738890 0.499815 0.765652
C24   C     C_R   0.495203 0.874883 0.498753 -0.139005
C25   C     C_R   0.626912 0.653333 0.148076 -0.151581
C26   C     C_R   0.693961 0.720869 0.078746 -0.210455
C27   C     C_R   0.697605 0.715206 0.935819 -0.211593
C28   C     C_R   0.633077 0.643959 0.861823 -0.157386
C29   C     C_R   0.565011 0.571165 0.927687 0.213284
C30   C     C_R   0.563495 0.573581 0.076816 0.213669
C31   C     C_R   0.438549 0.431229 0.072496 -0.065345
C32   C     C_R   0.437802 0.432665 0.924732 -0.058062
C33   C     C_R   0.670854 0.501541 0.500526 0.815369
C34   C     C_R   0.818599 0.620403 0.518798 0.127170
C35   C     C_R   0.767579 0.507825 0.501313 -0.043497
C36   C     C_R   0.808346 0.398382 0.481049 -0.280898
C37   C     C_R   0.900903 0.397281 0.479265 0.109115
C38   C     C_R   0.953645 0.507684 0.499726 0.012908
Cu1   Cu    Cu3+1 0.499990 0.499990 0.640660 0.937500
Cu2   Cu    Cu3+1 0.500010 0.500010 0.359340 0.930798
H1    H     H_    0.414789 0.194712 0.765193 0.136862
H2    H     H_    0.466734 0.104429 0.980970 0.126282
H3    H     H_    0.557119 0.922307 0.970259 0.146688
H4    H     H_    0.583077 0.828910 0.744843 0.140780
H5    H     H_    0.388213 0.374675 0.126432 0.131388
H6    H     H_    0.626234 0.670261 0.256920 0.200216
H7    H     H_    0.741938 0.780369 0.136263 0.154825
H8    H     H_    0.748230 0.770917 0.881362 0.151956
H9    H     H_    0.635700 0.656560 0.753123 0.192119
H10   H     H_    0.767365 0.313651 0.466272 0.142502
H11   H     H_    0.385996 0.378804 0.868883 0.123482
H12   H     H_    0.901271 0.201998 0.441526 0.141558
H13   H     H_    0.064316 0.199464 0.437986 0.141059
H14   H     H_    0.212438 0.308281 0.457250 0.121915
H15   H     H_    0.236022 0.695452 0.538934 0.131911
H16   H     H_    0.101655 0.809878 0.558854 0.144349
H17   H     H_    0.940748 0.815681 0.557788 0.157535
H18   H     H_    0.463249 0.114021 0.280091 0.161077
N1    N     N_R   0.500860 0.501210 0.147910 -0.199893
N2    N     N_R   0.500890 0.501290 0.852040 -0.196793
O1    O     O_R   0.499990 0.319640 0.618810 -0.580509
O2    O     O_R   0.500000 0.319660 0.381240 -0.580562
O3    O     O_R   0.370250 0.499960 0.618800 -0.579831
O4    O     O_R   0.370260 0.499980 0.381230 -0.580468
O5    O     O_R   0.500000 0.680340 0.618760 -0.596364
O6    O     O_R   0.500010 0.680360 0.381190 -0.594846
O7    O     O_R   0.629740 0.500020 0.618770 -0.590317
O8    O     O_R   0.629750 0.500040 0.381200 -0.588676
C39   C     C_3   0.773501 0.740064 0.532041 -0.934991
H19   H     H_    0.699650 0.729341 0.524412 0.210021
H20   H     H_    0.790964 0.783538 0.634067 0.228873
H21   H     H_    0.796155 0.802849 0.447131 0.233414
C40   C     C_3   0.451953 0.874664 0.236217 -0.810937
H22   H     H_    0.396685 0.802886 0.248053 0.249923
H23   H     H_    0.429133 0.939077 0.156471 0.205019
H24   H     H_    0.512586 0.835076 0.195590 0.237561

loop_
_geom_bond_atom_site_label_1
_geom_bond_atom_site_label_2
_ccdc_geom_bond_type
C27   H8    S    
C4    H13   S    
Cu1   O5    S    
C40   H22   S    
C35   C36   A    
C1    O2    A    
C8    H16   S    
C7    C8    A    
C26   C27   A    
C29   C30   A    
C18   C24   A    
C23   O6    A    
C36   C37   A    
C18   C19   A    
C5    C6    A    
C12   O4    A    
C15   C16   A    
Cu2   O2    S    
C34   C35   A    
C31   N1    A    
C39   H20   S    
C19   C20   A    
C8    C9    A    
C23   C24   S    
C6    C38   A    
C2    C34   A    
Cu2   N1    S    
Cu2   O6    S    
C21   C22   A    
C40   H23   S    
C5    C10   A    
Cu1   O1    S    
Cu1   Cu2   S    
C12   O3    A    
C16   C17   A    
C25   C26   A    
C39   H21   S    
C32   H11   S    
C37   C38   A    
C28   H9    S    
C2    C38   A    
C31   C32   A    
C16   H3    S    
C29   N2    A    
C3    H12   S    
C30   N1    A    
C17   C18   A    
C34   C39   S    
C26   H7    S    
C14   H1    S    
C31   H5    S    
C40   H24   S    
C22   C24   A    
C32   N2    A    
C3    C4    A    
C36   H10   S    
C33   O7    A    
C25   C30   A    
C28   C29   A    
C1    C20   S    
Cu1   O7    S    
C14   C19   A    
C15   H2    S    
C4    C5    A    
C1    O1    A    
C11   C12   S    
C6    C7    A    
Cu1   O3    S    
Cu2   O4    S    
C23   O5    A    
C17   H4    S    
C21   H18   S    
C11   C13   A    
Cu1   N2    S    
C33   C35   S    
C9    H17   S    
C39   H19   S    
C10   H14   S    
C10   C11   A    
C7    C13   A    
C20   C21   A    
C3    C37   A    
Cu2   O8    S    
C27   C28   A    
C14   C15   A    
C22   C40   S    
C2    C9    A    
C25   H6    S    
C33   O8    A    
C13   H15   S    
