data_mof_unit_2150.cif
_audit_creation_date              2012-12-11T15:36:52-0500
_audit_creation_method            fapswitch 2.2
_symmetry_space_group_name_H-M    P1
_symmetry_Int_Tables_number       1
_space_group_crystal_system       triclinic
_cell_length_a                    15.043815
_cell_length_b                    15.056442
_cell_length_c                    34.752079
_cell_angle_alpha                 91.230135
_cell_angle_beta                  91.76505
_cell_angle_gamma                 60.17761
_cell_volume                      6825.73174793

loop_
_atom_site_label
_atom_site_type_symbol
_atom_type_description
_atom_site_fract_x
_atom_site_fract_y
_atom_site_fract_z
_atom_type_partial_charge
C1    C     C_R   0.610626 0.302691 0.443966 0.544226
C2    C     C_R   0.732316 0.683668 0.181731 0.037413
C3    C     C_R   0.596708 0.159505 0.831893 0.030163
C4    C     C_R   0.668595 0.179681 0.850538 -0.118501
C5    C     C_R   0.703488 0.146876 0.888240 0.012614
C6    C     C_R   0.556095 0.270832 0.774350 -0.148759
C7    C     C_R   0.562758 0.280591 0.734916 -0.172647
C8    C     C_R   0.593823 0.195755 0.710181 0.042473
C9    C     C_R   0.613172 0.101147 0.724927 0.292240
C10   C     C_R   0.610167 0.091274 0.765069 -0.102772
C11   C     C_R   0.581693 0.175703 0.789819 -0.014332
C12   C     C_R   0.553402 0.186330 0.640417 -0.068061
C13   C     C_R   0.824093 0.627637 0.162044 -0.145890
C14   C     C_R   0.559579 0.206429 0.601408 0.266164
C15   C     C_R   0.678989 0.265214 0.620381 -0.178503
C16   C     C_R   0.673340 0.243566 0.658699 -0.143076
C17   C     C_R   0.608304 0.206908 0.669092 0.022325
C18   C     C_R   0.618918 0.251485 0.591684 0.033678
C19   C     C_R   0.046491 0.738586 0.048302 0.542545
C20   C     C_R   0.747128 0.746305 0.063957 0.542781
C21   C     C_R   0.750871 0.041228 0.050817 0.536160
C22   C     C_R   0.017903 0.722198 0.939980 0.545603
C23   C     C_R   0.717209 0.730221 0.954776 0.541134
C24   C     C_R   0.827664 0.642851 0.122909 -0.142240
C25   C     C_R   0.720590 0.026451 0.942292 0.537906
C26   C     C_R   0.752081 0.582011 0.239784 -0.125926
C27   C     C_R   0.745911 0.575345 0.279400 -0.118355
C28   C     C_R   0.723474 0.660072 0.303374 0.026853
C29   C     C_R   0.712175 0.749908 0.287285 -0.114212
C30   C     C_R   0.718743 0.756316 0.247619 -0.117136
C31   C     C_R   0.734978 0.673655 0.223685 0.027408
C32   C     C_R   0.613471 0.737351 0.360492 -0.118838
C33   C     C_R   0.593806 0.610374 0.449585 0.537898
C34   C     C_R   0.581360 0.725441 0.396302 -0.133311
C35   C     C_R   0.730508 0.556027 0.401330 -0.126039
C36   C     C_R   0.762643 0.568067 0.365690 -0.121454
C37   C     C_R   0.702092 0.656897 0.344248 0.033439
C38   C     C_R   0.637088 0.632674 0.416132 0.020283
C39   C     C_R   0.106534 0.726469 0.084091 -0.025694
C40   C     C_R   0.153498 0.631996 0.103083 -0.148084
C41   C     C_R   0.179707 0.626626 0.142015 -0.176398
C42   C     C_R   0.159758 0.715380 0.162673 0.033818
C43   C     C_R   0.123264 0.808434 0.142902 0.280318
C44   C     C_R   0.303136 0.591919 0.442437 0.560907
C45   C     C_R   0.098564 0.812923 0.103449 -0.108521
C46   C     C_R   0.217651 0.749081 0.227008 -0.084160
C47   C     C_R   0.221355 0.742728 0.267110 -0.132363
C48   C     C_R   0.170146 0.699654 0.285762 0.022746
C49   C     C_R   0.112202 0.666601 0.263765 -0.121909
C50   C     C_R   0.108681 0.672839 0.223793 -0.139067
C51   C     C_R   0.162944 0.712260 0.205091 0.039929
C52   C     C_R   0.208456 0.584614 0.341739 -0.138985
C53   C     C_R   0.238726 0.559704 0.380045 -0.176588
C54   C     C_R   0.219243 0.728421 0.391569 0.275888
C55   C     C_R   0.605381 0.300719 0.553921 0.569296
C56   C     C_R   0.186145 0.753504 0.352979 -0.105596
C57   C     C_R   0.185484 0.680321 0.327573 -0.010537
C58   C     C_R   0.248318 0.629320 0.405004 0.034557
C59   C     C_R   0.719510 0.103989 0.086843 -0.015006
C60   C     C_R   0.778532 0.143083 0.106088 0.012247
C61   C     C_R   0.757423 0.175224 0.145070 0.273742
C62   C     C_R   0.680312 0.167428 0.164068 0.021748
C63   C     C_R   0.614831 0.142679 0.143486 -0.182479
C64   C     C_R   0.633541 0.112289 0.105320 -0.161615
C65   C     C_R   0.591264 0.254978 0.223972 -0.149669
C66   C     C_R   0.587210 0.606236 0.559518 0.532639
C67   C     C_R   0.584913 0.257986 0.263848 -0.174867
C68   C     C_R   0.661537 0.179275 0.286464 0.040912
C69   C     C_R   0.745813 0.095734 0.268889 0.282454
C70   C     C_R   0.750386 0.093414 0.228295 -0.075477
C71   C     C_R   0.674675 0.173587 0.206171 0.018907
C72   C     C_R   0.737720 0.186010 0.350313 -0.079080
C73   C     C_R   0.725844 0.214852 0.389007 -0.130994
C74   C     C_R   0.551844 0.244775 0.385707 -0.132272
C75   C     C_R   0.563802 0.215997 0.346981 -0.130001
C76   C     C_R   0.655568 0.189914 0.328716 0.067733
C77   C     C_R   0.298080 0.589062 0.551755 0.542019
C78   C     C_R   0.631350 0.248637 0.406620 0.019409
C79   C     C_R   0.691556 0.689876 0.919579 0.005070
C80   C     C_R   0.759941 0.591318 0.905918 -0.138954
C81   C     C_R   0.749093 0.562185 0.868496 -0.143434
C82   C     C_R   0.670084 0.630906 0.843864 0.040449
C83   C     C_R   0.596754 0.728914 0.858045 0.030383
C84   C     C_R   0.607770 0.756134 0.896083 -0.117100
C85   C     C_R   0.592638 0.601588 0.783440 -0.120396
C86   C     C_R   0.588227 0.599103 0.743276 -0.122152
C87   C     C_R   0.667341 0.596153 0.721908 0.021111
C88   C     C_R   0.739308 0.714763 0.102886 0.003764
C89   C     C_R   0.753683 0.589616 0.741025 -0.124215
C90   C     C_R   0.757178 0.594091 0.781176 -0.125602
C91   C     C_R   0.674606 0.604554 0.802524 0.029254
C92   C     C_R   0.723216 0.527579 0.655892 -0.133041
C93   C     C_R   0.704633 0.533512 0.616257 -0.144795
C94   C     C_R   0.556601 0.704539 0.623688 0.018370
C95   C     C_R   0.575704 0.695731 0.663685 -0.109842
C96   C     C_R   0.656073 0.606587 0.679830 0.013621
C97   C     C_R   0.618491 0.618808 0.599539 0.029953
C98   C     C_R   0.072264 0.696718 0.903590 0.023378
C99   C     C_R   0.645862 0.766083 0.121990 -0.117330
C100  C     C_R   0.100117 0.764505 0.888084 -0.128506
C101  C     C_R   0.134690 0.750707 0.850631 -0.125378
C102  C     C_R   0.141446 0.669251 0.828153 0.031422
C103  C     C_R   0.121297 0.596959 0.844626 -0.123001
C104  C     C_R   0.087111 0.610477 0.882198 -0.129072
C105  C     C_R   0.220842 0.572938 0.767965 -0.122323
C106  C     C_R   0.228696 0.569651 0.728134 -0.119883
C107  C     C_R   0.173677 0.659513 0.706504 0.028444
C108  C     C_R   0.112300 0.752980 0.725158 -0.114459
C109  C     C_R   0.104130 0.756249 0.764966 -0.114072
C110  C     C_R   0.640859 0.750970 0.161329 0.024707
C111  C     C_R   0.157861 0.666167 0.786615 0.028668
C112  C     C_R   0.207171 0.723264 0.646417 -0.121345
C113  C     C_R   0.235686 0.707331 0.608070 -0.125823
C114  C     C_R   0.208224 0.561555 0.604939 -0.120998
C115  C     C_R   0.180022 0.577391 0.643249 -0.120877
C116  C     C_R   0.183899 0.655379 0.664625 0.031388
C117  C     C_R   0.241419 0.623145 0.587670 0.023249
C118  C     C_R   0.669187 0.086361 0.906949 0.015408
C119  C     C_R   0.588786 0.076193 0.889621 -0.137936
C120  C     C_R   0.550025 0.114772 0.852693 0.019054
Cr1   Cr    Cr6+3 0.426010 0.422500 0.497000 1.049839
Cr2   Cr    Cr6+3 0.651300 0.426310 0.501970 1.007432
Cr3   Cr    Cr6+3 0.422670 0.651170 0.501050 1.028147
Cr4   Cr    Cr6+3 0.905130 0.911420 0.992650 0.994417
Cr5   Cr    Cr6+3 0.911860 0.682710 0.002320 1.007075
Cr6   Cr    Cr6+3 0.682710 0.906840 0.004710 1.004241
H1    H     H_    0.577032 0.820166 0.106404 0.123571
H2    H     H_    0.510308 0.786592 0.407428 0.109346
H3    H     H_    0.894105 0.575192 0.177417 0.108693
H4    H     H_    0.776250 0.484228 0.416243 0.128086
H5    H     H_    0.162323 0.563630 0.088691 0.136879
H6    H     H_    0.064310 0.886183 0.089111 0.127164
H7    H     H_    0.163294 0.829254 0.342494 0.100022
H8    H     H_    0.267593 0.767662 0.283434 0.097967
H9    H     H_    0.259455 0.780169 0.213065 0.137996
H10   H     H_    0.209188 0.554217 0.156685 0.114058
H11   H     H_    0.070883 0.634545 0.277483 0.114787
H12   H     H_    0.900810 0.602405 0.108878 0.133798
H13   H     H_    0.063844 0.646367 0.207353 0.107552
H14   H     H_    0.208751 0.526618 0.322672 0.115108
H15   H     H_    0.261007 0.483100 0.389398 0.134974
H16   H     H_    0.584338 0.087388 0.091265 0.144189
H17   H     H_    0.499801 0.218761 0.330778 0.102878
H18   H     H_    0.520850 0.323087 0.277217 0.116793
H19   H     H_    0.531655 0.316362 0.206977 0.113032
H20   H     H_    0.832299 0.505867 0.354016 0.104019
H21   H     H_    0.810714 0.028588 0.213502 0.088393
H22   H     H_    0.808853 0.167062 0.336660 0.131550
H23   H     H_    0.788570 0.216794 0.404395 0.129837
H24   H     H_    0.553496 0.139478 0.157801 0.120830
H25   H     H_    0.478181 0.270196 0.398489 0.126450
H26   H     H_    0.825274 0.538639 0.923409 0.121872
H27   H     H_    0.555169 0.832727 0.906309 0.120110
H28   H     H_    0.526961 0.758223 0.682687 0.094020
H29   H     H_    0.753742 0.505601 0.291057 0.105791
H30   H     H_    0.521883 0.602316 0.728792 0.110598
H31   H     H_    0.529885 0.606312 0.799521 0.101778
H32   H     H_    0.805863 0.487485 0.857977 0.106012
H33   H     H_    0.815512 0.586732 0.724866 0.113333
H34   H     H_    0.821328 0.595766 0.795496 0.112550
H35   H     H_    0.786925 0.458941 0.668050 0.108769
H36   H     H_    0.754935 0.467689 0.598958 0.129173
H37   H     H_    0.090907 0.830748 0.904263 0.118761
H38   H     H_    0.765760 0.517402 0.221522 0.096159
H39   H     H_    0.066437 0.556947 0.893574 0.125724
H40   H     H_    0.160023 0.525688 0.656744 0.107141
H41   H     H_    0.278442 0.497095 0.714215 0.107214
H42   H     H_    0.263599 0.502813 0.784178 0.099826
H43   H     H_    0.151967 0.806097 0.838654 0.099190
H44   H     H_    0.069301 0.822917 0.708865 0.111913
H45   H     H_    0.053448 0.828736 0.778712 0.108255
H46   H     H_    0.210275 0.784107 0.662518 0.100728
H47   H     H_    0.260232 0.756406 0.595370 0.118557
H48   H     H_    0.125576 0.533734 0.827713 0.101503
H49   H     H_    0.210610 0.496889 0.589724 0.139507
H50   H     H_    0.557696 0.035520 0.904492 0.122845
H51   H     H_    0.716904 0.259109 0.680526 0.121357
H52   H     H_    0.545847 0.354110 0.723697 0.118522
H53   H     H_    0.535353 0.336419 0.793059 0.116959
H54   H     H_    0.635561 0.016679 0.777299 0.104051
H55   H     H_    0.501768 0.159878 0.648714 0.119342
H56   H     H_    0.696113 0.815610 0.305280 0.123220
H57   H     H_    0.700638 0.218266 0.834844 0.107277
H58   H     H_    0.725090 0.299515 0.613668 0.134520
H59   H     H_    0.708091 0.826674 0.235414 0.113632
H60   H     H_    0.565400 0.806676 0.344443 0.101539
O1    O     O_R   0.324990 0.503440 0.453910 -0.534435
O2    O     O_R   0.639980 0.519500 0.542640 -0.505718
O3    O     O_R   0.500750 0.673190 0.545480 -0.523638
O4    O     O_R   0.336260 0.640450 0.538210 -0.504610
O5    O     O_3   0.499990 0.499990 0.500010 -0.250007
O6    O     O_R   0.834210 0.019400 0.034570 -0.526620
O7    O     O_R   0.002210 0.824620 0.031030 -0.504574
O8    O     O_R   0.024400 0.669340 0.039790 -0.517291
O9    O     O_R   0.830490 0.694950 0.045870 -0.501682
O10   O     O_R   0.675430 0.831160 0.051290 -0.519245
O11   O     O_R   0.698870 0.998880 0.039560 -0.500282
O12   O     O_R   0.522030 0.339050 0.458320 -0.502491
O13   O     O_R   0.811290 0.006780 0.950620 -0.520015
O14   O     O_R   0.980960 0.812920 0.953200 -0.501391
O15   O     O_R   0.001480 0.656720 0.955830 -0.520043
O16   O     O_R   0.809240 0.683250 0.968050 -0.498962
O17   O     O_R   0.652500 0.818540 0.967340 -0.521427
O18   O     O_R   0.677620 0.987170 0.961730 -0.503618
O19   O     O_3   0.833240 0.833660 0.999890 -0.229530
O20   O     O_R   0.676180 0.324490 0.458320 -0.518173
O21   O     O_R   0.643570 0.521510 0.464260 -0.502280
O22   O     O_R   0.504630 0.675350 0.460920 -0.522376
O23   O     O_R   0.339850 0.642450 0.459830 -0.447896
O24   O     O_R   0.321120 0.501280 0.538470 -0.507775
O25   O     O_R   0.518440 0.337050 0.536710 -0.440885
O26   O     O_R   0.672300 0.322330 0.542880 -0.532318
O27   O     O_3   0.107038 0.896102 0.162344 -0.584898
C121  C     C_3   0.003041 0.952412 0.172210 -0.116135
H61   H     H_    0.981074 0.906529 0.190229 0.101297
H62   H     H_    0.952426 0.979831 0.146104 0.130894
H63   H     H_    0.990746 0.020427 0.189344 0.177906
O28   O     O_3   0.220065 0.800731 0.416769 -0.550526
C122  C     C_3   0.285671 0.834703 0.403344 -0.102103
H64   H     H_    0.245854 0.894752 0.381166 0.096386
H65   H     H_    0.358331 0.770720 0.391951 0.114921
H66   H     H_    0.306607 0.869674 0.427843 0.144165
C123  C     C_3   0.864088 0.150065 0.086584 -0.248721
C124  C     C_3   0.822054 0.228996 0.054310 -0.435565
H67   H     H_    0.779365 0.210152 0.032137 0.165943
H68   H     H_    0.769752 0.306262 0.066233 0.138198
H69   H     H_    0.886410 0.230915 0.040297 0.130524
H70   H     H_    0.906767 0.173410 0.107116 0.184662
H71   H     H_    0.923155 0.074192 0.075875 0.161517
O29   O     O_3   0.818916 0.204383 0.165786 -0.599080
C125  C     C_3   0.768755 0.312251 0.167140 -0.131893
H72   H     H_    0.696186 0.344824 0.183186 0.123909
H73   H     H_    0.753464 0.345389 0.137748 0.113656
H74   H     H_    0.819513 0.335605 0.182637 0.135280
O30   O     O_3   0.815297 0.015419 0.292274 -0.574035
C126  C     C_3   0.915515 0.964644 0.277833 -0.129222
H75   H     H_    0.938068 0.018848 0.266257 0.107184
H76   H     H_    0.923370 0.906663 0.255873 0.126078
H77   H     H_    0.969957 0.922809 0.301836 0.153795
C127  C     C_3   0.510844 0.809137 0.833066 -0.268463
C128  C     C_3   0.550321 0.855673 0.804150 -0.444612
H78   H     H_    0.595237 0.886756 0.819270 0.152152
H79   H     H_    0.598918 0.798720 0.782398 0.168377
H80   H     H_    0.484246 0.918597 0.788558 0.116523
H81   H     H_    0.467238 0.776911 0.817956 0.140195
H82   H     H_    0.454212 0.872684 0.851239 0.122358
C129  C     C_3   0.469711 0.805582 0.608832 -0.259213
C130  C     C_3   0.509396 0.860079 0.583863 -0.429019
H83   H     H_    0.562441 0.877390 0.601102 0.137276
H84   H     H_    0.550488 0.812684 0.558603 0.172284
H85   H     H_    0.443836 0.933069 0.573296 0.122968
H86   H     H_    0.410334 0.794961 0.593221 0.171516
H87   H     H_    0.428857 0.858194 0.633123 0.113087
C131  C     C_3   0.537790 0.807786 0.180486 -0.272219
C132  C     C_3   0.496839 0.736051 0.189391 -0.428062
H88   H     H_    0.489450 0.698602 0.162543 0.153270
H89   H     H_    0.548124 0.676412 0.210203 0.159981
H90   H     H_    0.420122 0.780811 0.202249 0.135034
H91   H     H_    0.542862 0.846676 0.207219 0.144617
H92   H     H_    0.480465 0.869221 0.161411 0.135623
C133  C     C_3   0.776397 0.178616 0.906809 -0.258964
C134  C     C_3   0.729340 0.247924 0.941834 -0.425765
H93   H     H_    0.657455 0.318127 0.933166 0.149109
H94   H     H_    0.711971 0.208208 0.964405 0.159959
H95   H     H_    0.783975 0.270772 0.954254 0.127175
H96   H     H_    0.851327 0.111204 0.914448 0.171981
H97   H     H_    0.794782 0.222383 0.886212 0.119536
C135  C     C_3   0.457606 0.110260 0.836695 -0.276144
C136  C     C_3   0.362627 0.216620 0.836126 -0.433987
H98   H     H_    0.346666 0.249782 0.865660 0.153030
H99   H     H_    0.373435 0.268431 0.816968 0.156586
H100  H     H_    0.295441 0.211000 0.825204 0.127726
H101  H     H_    0.471348 0.078018 0.807154 0.136830
H102  H     H_    0.441381 0.059689 0.854489 0.131892
O31   O     O_3   0.647738 0.017174 0.700261 -0.567069
C137  C     C_3   0.593376 0.964405 0.705517 -0.144458
H103  H     H_    0.509697 0.017337 0.709085 0.093629
H104  H     H_    0.626226 0.911392 0.730276 0.120613
H105  H     H_    0.602066 0.917075 0.679470 0.142916
O32   O     O_3   0.499793 0.193475 0.573096 -0.555652
C138  C     C_3   0.517935 0.092061 0.573100 -0.131044
H106  H     H_    0.474227 0.081832 0.596089 0.109766
H107  H     H_    0.601074 0.034549 0.575937 0.120394
H108  H     H_    0.489827 0.077118 0.545187 0.140212

loop_
_geom_bond_atom_site_label_1
_geom_bond_atom_site_label_2
_ccdc_geom_bond_type
C92   H35   S    
C8    C9    A    
C15   C18   A    
C5    C133  S    
C79   C80   A    
C132  H89   S    
C33   O22   A    
C101  C102  A    
C120  C135  S    
C66   O2    A    
C6    H53   S    
C61   O29   S    
C41   C42   A    
C14   C18   A    
C95   C96   A    
C112  C116  A    
C72   C76   A    
C25   O18   A    
C124  H67   S    
C134  H95   S    
C114  C115  A    
C85   C91   A    
C20   O10   A    
C48   C57   S    
C112  H46   S    
C85   C86   A    
C130  H83   S    
C138  H108  S    
Cr4   O13   S    
Cr5   O15   S    
C59   C64   A    
C29   C30   A    
C22   C98   S    
C77   O4    A    
C131  H91   S    
C66   C97   S    
C22   O14   A    
C36   C37   A    
Cr2   O5    S    
C21   C59   S    
C77   C117  S    
C69   C70   A    
C109  C111  A    
C54   C58   A    
C79   C84   A    
Cr4   O19   S    
C121  H62   S    
C122  H65   S    
C106  C107  A    
Cr5   O9    S    
Cr6   O19   S    
C15   C16   A    
C66   O3    A    
C20   C88   S    
C92   C96   A    
C108  C109  A    
C3    C4    A    
C44   O23   A    
Cr5   O19   S    
C2    C13   A    
Cr2   O20   S    
C118  C119  A    
C127  C128  S    
C86   H30   S    
C103  C104  A    
C46   H9    S    
C83   C127  S    
C33   O21   A    
C123  C124  S    
C44   C58   S    
C68   C69   A    
C65   C67   A    
C122  H64   S    
Cr4   O7    S    
C62   C71   S    
C47   C48   A    
O30   C126  S    
C101  H43   S    
C70   C71   A    
C131  H92   S    
C115  C116  A    
Cr3   O3    S    
Cr1   O24   S    
C94   C129  S    
C20   O9    A    
C56   C57   A    
C90   C91   A    
C130  H85   S    
C42   C51   S    
C39   C45   A    
C1    O12   A    
C108  H44   S    
C105  C111  A    
C132  H90   S    
C59   C60   A    
C12   H55   S    
C34   C38   A    
C136  H98   S    
C25   C118  S    
C125  H74   S    
C127  H82   S    
C1    C78   S    
C102  C111  S    
C61   C62   A    
C85   H31   S    
C43   O27   S    
C56   H7    S    
C67   H18   S    
C112  C113  A    
C130  H84   S    
C54   O28   S    
C90   H34   S    
C27   H29   S    
C114  C117  A    
Cr1   O12   S    
C54   C56   A    
Cr5   O16   S    
C74   C75   A    
C23   O16   A    
C67   C68   A    
C80   C81   A    
C30   H59   S    
C7    C8    A    
C35   C38   A    
O32   C138  S    
C89   H33   S    
C126  H75   S    
C29   H56   S    
C6    C11   A    
C86   C87   A    
C16   C17   A    
C21   O6    A    
C99   H1    S    
C60   C123  S    
C94   C97   A    
C24   H12   S    
C138  H106  S    
C72   H22   S    
C99   C110  A    
C46   C51   A    
C82   C83   A    
C103  H48   S    
C81   C82   A    
C82   C91   S    
C104  H39   S    
C7    H52   S    
C23   O17   A    
C2    C31   S    
C128  H79   S    
C35   C36   A    
C32   C34   A    
C9    O31   S    
C135  H101  S    
C75   C76   A    
C63   H24   S    
C62   C63   A    
C25   O13   A    
C119  H50   S    
Cr1   O1    S    
O29   C125  S    
C24   C88   A    
C84   H27   S    
Cr2   O2    S    
C83   C84   A    
C137  H105  S    
O27   C121  S    
C73   C78   A    
C115  H40   S    
C87   C96   S    
C50   C51   A    
C26   C27   A    
C94   C95   A    
C125  H73   S    
Cr3   O4    S    
C32   C37   A    
C137  H103  S    
C119  C120  A    
C1    O20   A    
C43   C45   A    
C35   H4    S    
C16   H51   S    
C6    C7    A    
C19   C39   S    
C77   O24   A    
C19   O8    A    
C113  C117  A    
C129  H87   S    
Cr6   O11   S    
C36   H20   S    
C40   C41   A    
O31   C137  S    
C137  H104  S    
C19   O7    A    
C98   C100  A    
C10   C11   A    
C136  H99   S    
C47   H8    S    
C74   C78   A    
C127  H81   S    
Cr2   O26   S    
C74   H25   S    
C138  H107  S    
C42   C43   A    
C107  C108  A    
C65   H19   S    
C132  H88   S    
C28   C29   A    
C124  H69   S    
C93   C97   A    
Cr4   O6    S    
C52   C53   A    
C50   H13   S    
C123  H71   S    
C113  H47   S    
C49   H11   S    
C9    C10   A    
C14   O32   S    
C3    C120  A    
C80   H26   S    
C46   C47   A    
C114  H49   S    
C81   H32   S    
C22   O15   A    
C73   H23   S    
C121  H61   S    
C26   C31   A    
Cr2   O21   S    
C40   H5    S    
C129  H86   S    
C33   C38   S    
C21   O11   A    
C72   C73   A    
C121  H63   S    
C124  H68   S    
Cr1   O5    S    
C134  H94   S    
C53   C58   A    
C105  H42   S    
C75   H17   S    
C133  H97   S    
C134  H93   S    
Cr6   O17   S    
C68   C76   S    
C105  C106  A    
Cr4   O14   S    
C8    C17   S    
C126  H77   S    
C32   H60   S    
C5    C118  A    
C128  H80   S    
Cr6   O18   S    
C106  H41   S    
C95   H28   S    
C131  C132  S    
C87   C89   A    
C12   C14   A    
C28   C37   S    
C10   H54   S    
C133  H96   S    
C15   H58   S    
C122  H66   S    
C123  H70   S    
O28   C122  S    
C30   C31   A    
C64   H16   S    
Cr5   O8    S    
C110  C131  S    
C128  H78   S    
C18   C55   S    
C4    C5    A    
Cr3   O23   S    
C26   H38   S    
C92   C93   A    
C52   H14   S    
C126  H76   S    
Cr3   O22   S    
C100  H37   S    
C53   H15   S    
Cr1   O25   S    
C4    H57   S    
C69   O30   S    
C102  C103  A    
C93   H36   S    
C107  C116  S    
C55   O26   A    
C88   C99   A    
C3    C11   S    
C52   C57   A    
C44   O1    A    
C55   O25   A    
C63   C64   A    
C39   C40   A    
Cr6   O10   S    
C12   C17   A    
C65   C71   A    
C135  C136  S    
C13   C24   A    
C45   H6    S    
C34   H2    S    
C49   C50   A    
C48   C49   A    
C136  H100  S    
C135  H102  S    
C125  H72   S    
C133  C134  S    
C13   H3    S    
C60   C61   A    
C100  C101  A    
C70   H21   S    
C23   C79   S    
C89   C90   A    
Cr3   O5    S    
C98   C104  A    
C41   H10   S    
C109  H45   S    
C129  C130  S    
C27   C28   A    
C2    C110  A    
