data_mof_unit_1560.cif
_audit_creation_date              2012-12-11T14:49:24-0500
_audit_creation_method            fapswitch 2.2
_symmetry_space_group_name_H-M    P1
_symmetry_Int_Tables_number       1
_space_group_crystal_system       triclinic
_cell_length_a                    16.838915
_cell_length_b                    16.725807
_cell_length_c                    19.688229
_cell_angle_alpha                 116.416806
_cell_angle_beta                  63.664727
_cell_angle_gamma                 100.010902
_cell_volume                      4448.74597622

loop_
_atom_site_label
_atom_site_type_symbol
_atom_type_description
_atom_site_fract_x
_atom_site_fract_y
_atom_site_fract_z
_atom_type_partial_charge
C1    C     C_R   0.038762 0.758886 0.008245 0.458066
C2    C     C_R   0.761975 0.457704 0.244081 -0.043750
C3    C     C_R   0.726588 0.556083 0.025664 0.035956
C4    C     C_R   0.044326 0.737904 0.244006 0.000925
C5    C     C_R   0.254428 0.560373 0.003886 -0.182750
C6    C     C_R   0.919397 0.263800 0.838802 0.177698
C7    C     C_R   0.171001 0.462998 0.753160 -0.070871
C8    C     C_R   0.056306 0.308491 0.048698 -0.116111
C9    C     C_R   0.980862 0.239890 0.970949 -0.141940
C10   C     C_R   0.250840 0.531214 0.829477 -0.014917
C11   C     C_R   0.187452 0.485238 0.082652 -0.126480
C12   C     C_R   0.761168 0.426749 0.167072 0.418494
C13   C     C_R   0.992895 0.337250 0.758915 -0.203015
C14   C     C_R   0.264591 0.529423 0.054231 0.072495
C15   C     C_R   0.946547 0.261168 0.761072 0.053365
C16   C     C_R   0.255268 0.479720 0.750242 0.085887
C17   C     C_R   0.038589 0.224457 0.997533 0.104791
C18   C     C_R   0.966439 0.101942 0.683324 -0.212195
C19   C     C_R   0.944353 0.183030 0.691190 0.104576
C20   C     C_R   0.928691 0.189389 0.630487 -0.217809
C21   C     C_R   0.939957 0.113669 0.558008 0.100554
C22   C     C_R   0.965872 0.031402 0.548032 0.014733
C23   C     C_R   0.806213 0.564777 0.964326 -0.103252
C24   C     C_R   0.975095 0.024230 0.613052 0.037640
C25   C     C_R   0.929410 0.120219 0.494292 -0.283843
C26   C     C_R   0.947958 0.046800 0.418569 0.470191
C27   C     C_R   0.978197 0.966085 0.406548 0.012965
C28   C     C_R   0.986175 0.957935 0.471983 -0.052567
C29   C     C_R   0.016688 0.876962 0.460341 -0.010833
C30   C     C_R   0.020711 0.867978 0.526643 0.397473
C31   C     C_R   0.997367 0.941315 0.604681 0.040466
C32   C     C_R   0.000664 0.892975 0.330661 -0.163001
C33   C     C_R   0.033267 0.814910 0.318943 0.069463
C34   C     C_R   0.999631 0.661618 0.243080 -0.160817
C35   C     C_R   0.041416 0.806113 0.382240 -0.149203
C36   C     C_R   0.378264 0.390961 0.620562 0.106070
C37   C     C_R   0.331315 0.473023 0.676413 -0.132489
C38   C     C_R   0.354194 0.550731 0.662486 0.432068
C39   C     C_R   0.428101 0.548467 0.591881 -0.099271
C40   C     C_R   0.476284 0.466920 0.533902 -0.044305
C41   C     C_R   0.451977 0.387827 0.547660 0.100697
C42   C     C_R   0.454394 0.626184 0.577870 -0.159485
C43   C     C_R   0.526837 0.624266 0.506794 0.428819
C44   C     C_R   0.573763 0.543338 0.447862 -0.023721
C45   C     C_R   0.739930 0.486436 0.039643 -0.150180
C46   C     C_R   0.548608 0.464413 0.461281 0.048380
C47   C     C_R   0.595675 0.382762 0.401352 0.141207
C48   C     C_R   0.572413 0.305509 0.415048 -0.189788
C49   C     C_R   0.501895 0.307986 0.487718 -0.173550
C50   C     C_R   0.645355 0.538960 0.375371 -0.193112
C51   C     C_R   0.689681 0.457959 0.317046 0.123522
C52   C     C_R   0.665701 0.379887 0.328410 -0.170968
C53   C     C_R   0.642293 0.605340 0.062651 0.053676
C54   C     C_R   0.335186 0.555648 0.084283 0.110492
C55   C     C_R   0.411049 0.542962 0.159151 -0.193926
C56   C     C_R   0.079001 0.736560 0.165383 0.233245
C57   C     C_R   0.337998 0.525673 0.139433 -0.152820
C58   C     C_R   0.403176 0.608774 0.054391 -0.249845
C59   C     C_R   0.478144 0.621912 0.069696 0.149321
C60   C     C_R   0.483970 0.587504 0.121249 0.131903
C61   C     C_R   0.565669 0.591296 0.126313 0.125096
C62   C     C_R   0.633229 0.651184 0.021538 -0.183848
C63   C     C_R   0.550592 0.662260 0.027565 -0.208320
C64   C     C_R   0.814513 0.158814 0.109970 0.222251
C65   C     C_R   0.965014 0.857327 0.981090 0.019511
C66   C     C_R   0.923409 0.946293 0.931193 -0.328399
C67   C     C_R   0.838655 0.501546 0.243271 -0.198309
C68   C     C_R   0.962016 0.868458 0.915153 0.491071
C69   C     C_R   0.933525 0.927176 0.061435 -0.247417
C70   C     C_R   0.895985 0.005421 0.077351 0.150183
C71   C     C_R   0.888714 0.014160 0.012148 0.109732
C72   C     C_R   0.846439 0.090567 0.029418 -0.236446
C73   C     C_R   0.823761 0.151021 0.173862 -0.216151
C74   C     C_R   0.863658 0.074379 0.157978 -0.144445
C75   C     C_R   0.964085 0.688150 0.930665 -0.165081
C76   C     C_R   0.991247 0.771308 0.971104 0.037951
H1    H     H_    0.152114 0.430137 0.701485 0.108644
H2    H     H_    0.098106 0.321906 0.081033 0.112481
H3    H     H_    0.955111 0.188897 0.929082 0.094587
H4    H     H_    0.305125 0.560873 0.846794 0.105463
H5    H     H_    0.167082 0.463788 0.132135 0.095970
H6    H     H_    0.016191 0.359953 0.709876 0.126539
H7    H     H_    0.983236 0.101905 0.730228 0.125183
H8    H     H_    0.911489 0.253536 0.638459 0.131861
H9    H     H_    0.908626 0.183063 0.502717 0.178892
H10   H     H_    0.991252 0.894991 0.280486 0.187760
H11   H     H_    0.065130 0.742700 0.369658 0.181460
H12   H     H_    0.419491 0.689615 0.621854 0.230126
H13   H     H_    0.666977 0.597690 0.362592 0.187408
H14   H     H_    0.817295 0.608364 0.934615 0.093227
H15   H     H_    0.701875 0.317928 0.280908 0.136863
H16   H     H_    0.609056 0.243035 0.369550 0.138173
H17   H     H_    0.487613 0.246301 0.495331 0.147397
H18   H     H_    0.689899 0.671062 0.978317 0.136476
H19   H     H_    0.412620 0.514910 0.198549 0.152920
H20   H     H_    0.545733 0.691879 0.990441 0.143908
H21   H     H_    0.285734 0.486037 0.165027 0.128366
H22   H     H_    0.402526 0.634626 0.013268 0.122048
H23   H     H_    0.838029 0.097608 0.980912 0.126737
H24   H     H_    0.970820 0.638471 0.292098 0.129688
H25   H     H_    0.799515 0.204073 0.235979 0.132360
H26   H     H_    0.920336 0.953595 0.880379 0.164129
H27   H     H_    0.869080 0.068943 0.208599 0.187872
H28   H     H_    0.934855 0.919118 0.112620 0.183764
H29   H     H_    0.691252 0.457221 0.078999 0.169749
H30   H     H_    0.862559 0.526648 0.291579 0.141433
H31   H     H_    0.935157 0.671691 0.887133 0.168885
H32   H     H_    0.294196 0.607848 0.980385 0.099357
N1    N     N_R   0.036080 0.671900 0.995420 -0.094500
N2    N     N_R   0.954660 0.334720 0.880230 -0.065939
N3    N     N_R   0.116260 0.502360 0.832930 -0.039074
N4    N     N_R   0.012950 0.371090 0.051890 -0.046572
N5    N     N_R   0.963920 0.328100 0.004580 -0.045376
N6    N     N_R   0.165290 0.545350 0.880240 -0.043826
N7    N     N_R   0.132570 0.490700 0.051900 -0.041581
N8    N     N_R   0.996640 0.382750 0.832930 -0.055645
N9    N     N_R   0.834710 0.454650 0.119760 -0.082798
N10   N     N_R   0.867430 0.509300 0.948100 -0.041941
N11   N     N_R   0.003360 0.617250 0.167070 -0.054750
N12   N     N_R   0.825450 0.461270 0.995400 -0.035282
N13   N     N_R   0.045340 0.665280 0.119770 -0.078052
N14   N     N_R   0.883740 0.497640 0.167070 -0.058811
N15   N     N_R   0.987050 0.628910 0.948110 -0.070656
N16   N     N_R   0.174550 0.538730 0.004600 -0.047959
Ni1   Ni    Ni4+2 0.104370 0.604370 0.000010 0.244765
Ni2   Ni    Ni4+2 0.895630 0.395630 0.999990 0.238909
Ni3   Ni    Ni4+2 0.991920 0.505780 0.891500 0.240586
Ni4   Ni    Ni4+2 0.008080 0.494220 0.108500 0.206964
Cl1   Cl    Cl    0.111825 0.838452 0.039593 -0.667022
C77   C     C_3   0.840886 0.217119 0.880660 -0.423351
C78   C     C_3   0.757493 0.232252 0.875122 -0.758140
H33   H     H_    0.743225 0.304850 0.901065 0.255792
H34   H     H_    0.765472 0.200095 0.809426 0.245772
H35   H     H_    0.700172 0.202455 0.911641 0.262790
H36   H     H_    0.855477 0.144434 0.852741 0.176446
H37   H     H_    0.826462 0.244073 0.947767 0.235719
Cl2   Cl    Cl    0.696544 0.338797 0.129172 -0.739268
Cl3   Cl    Cl    0.935303 0.060447 0.339954 -0.683505
Cl4   Cl    Cl    0.056108 0.765159 0.512000 -0.647280
C79   C     C_3   0.994652 0.929744 0.678287 -0.304480
C80   C     C_3   0.084708 0.946532 0.682685 -0.732514
H38   H     H_    0.135187 0.897120 0.626037 0.295496
H39   H     H_    0.106846 0.014737 0.688016 0.221470
H40   H     H_    0.079667 0.939857 0.738099 0.267055
H41   H     H_    0.942960 0.974152 0.738033 0.155598
H42   H     H_    0.973714 0.861713 0.674377 0.260668
C81   C     C_3   0.349580 0.308730 0.639804 -0.359818
C82   C     C_3   0.405891 0.294779 0.676910 -0.842965
H43   H     H_    0.477115 0.285808 0.633391 0.258924
H44   H     H_    0.397449 0.353296 0.736549 0.256185
H45   H     H_    0.384375 0.234301 0.689543 0.256115
H46   H     H_    0.279195 0.314096 0.684513 0.193521
H47   H     H_    0.352169 0.248200 0.583498 0.185502
Cl5   Cl    Cl    0.286775 0.650220 0.732906 -0.589944
Cl6   Cl    Cl    0.555434 0.725230 0.494537 -0.647650
C83   C     C_3   0.571317 0.582930 0.198025 -0.455782
C84   C     C_3   0.516849 0.656712 0.282256 -0.741524
H48   H     H_    0.539887 0.723306 0.282784 0.260790
H49   H     H_    0.445216 0.652348 0.296187 0.251840
H50   H     H_    0.525507 0.650165 0.332298 0.277232
H51   H     H_    0.549326 0.516366 0.197995 0.219010
H52   H     H_    0.640407 0.590666 0.192605 0.210982
Cl7   Cl    Cl    0.008769 0.788506 0.811126 -0.614341
C85   C     C_3   0.174051 0.762829 0.128483 -0.357872
C86   C     C_3   0.190428 0.861862 0.171936 -0.726857
H53   H     H_    0.139818 0.905236 0.182056 0.297802
H54   H     H_    0.190129 0.876753 0.232900 0.230433
H55   H     H_    0.256690 0.878284 0.132827 0.254640
H56   H     H_    0.216638 0.724344 0.134038 0.176102
H57   H     H_    0.197119 0.742662 0.060862 0.232538

loop_
_geom_bond_atom_site_label_1
_geom_bond_atom_site_label_2
_ccdc_geom_bond_type
C66   C68   A    
C67   N14   A    
C75   H31   S    
C86   H53   S    
C73   C74   A    
C66   H26   S    
C85   H57   S    
C19   C20   A    
C58   H22   S    
C82   H45   S    
C6    C77   S    
C78   H35   S    
C2    C12   A    
C23   N10   A    
C85   H56   S    
C11   H5    S    
C40   C46   A    
C5    N16   A    
C26   C27   A    
C84   H48   S    
C65   C76   S    
C75   N15   A    
C32   H10   S    
C85   C86   S    
C37   C38   A    
C82   H44   S    
C1    Cl1   S    
C80   H39   S    
C62   H18   S    
C38   C39   A    
C11   C14   A    
N12   Ni2   S    
C69   H28   S    
C44   C50   A    
C72   H23   S    
C18   C19   A    
C9    H3    S    
C50   H13   S    
C1    N1    A    
C6    C15   A    
C4    C33   S    
C35   H11   S    
C81   C82   S    
N9    N14   A    
C44   C46   A    
N8    Ni3   S    
C70   C74   A    
C36   C37   A    
C34   H24   S    
C64   C73   A    
C70   C71   A    
C30   Cl4   S    
C11   N7    A    
N9    Ni2   S    
C10   N6    A    
C16   C37   S    
C7    H1    S    
N11   Ni4   S    
C73   H25   S    
C83   H52   S    
C59   C60   A    
C84   H49   S    
C22   C28   A    
C21   C22   A    
C4    C56   A    
C8    H2    S    
C6    N2    A    
C36   C41   A    
C53   C61   A    
C43   Cl6   S    
C41   C49   A    
N4    N5    A    
C25   C26   A    
C45   H29   S    
C50   C51   A    
C39   C42   A    
N11   N13   A    
C4    C34   A    
C51   C52   A    
C77   H37   S    
C48   H16   S    
C79   C80   S    
C55   H19   S    
C2    C67   A    
C80   H40   S    
C79   H42   S    
C39   C40   A    
N6    Ni1   S    
C10   H4    S    
N1    N15   A    
N5    Ni2   S    
C26   Cl3   S    
C3    C23   A    
C63   H20   S    
C3    C45   A    
N7    Ni4   S    
C32   C33   A    
C60   C61   A    
C83   C84   S    
C15   C19   S    
C75   C76   A    
C66   C71   A    
N13   Ni1   S    
C29   C30   A    
C53   C62   A    
C36   C81   S    
N15   Ni3   S    
C47   C48   A    
C13   C15   A    
C65   C68   A    
C57   H21   S    
C62   C63   A    
C25   H9    S    
C18   H7    S    
C23   H14   S    
C82   H43   S    
C5    C14   A    
N2    Ni2   S    
C45   N12   A    
C9    C17   A    
C40   C41   A    
C14   C54   S    
C77   H36   S    
C83   H51   S    
C86   H55   S    
C20   H8    S    
C43   C44   A    
N3    Ni3   S    
C18   C24   A    
C42   H12   S    
N10   Ni3   S    
C38   Cl5   S    
C78   H33   S    
C61   C83   S    
N2    N8    A    
C54   C58   A    
C68   Cl7   S    
N1    Ni1   S    
C34   N11   A    
C65   C69   A    
C21   C25   A    
C46   C47   A    
C28   C29   A    
N7    N16   A    
C27   C32   A    
C1    C76   A    
C7    C16   A    
C78   H34   S    
C79   H41   S    
C67   H30   S    
C47   C52   A    
C84   H50   S    
C29   C35   A    
C59   C63   A    
C8    C17   A    
C9    N5    A    
C56   N13   A    
C55   C57   A    
C77   C78   S    
C58   C59   A    
C24   C31   A    
C71   C72   A    
C10   C16   A    
C80   H38   S    
C56   C85   S    
C3    C53   S    
C30   C31   A    
C48   C49   A    
C13   H6    S    
C33   C35   A    
C8    N4    A    
C7    N3    A    
C81   H46   S    
N3    N6    A    
C22   C24   A    
C64   C72   A    
N14   Ni4   S    
C69   C70   A    
C81   H47   S    
N10   N12   A    
N4    Ni4   S    
C13   N8    A    
C2    C51   S    
C12   N9    A    
C20   C21   A    
C86   H54   S    
C42   C43   A    
C27   C28   A    
C12   Cl2   S    
N16   Ni1   S    
C52   H15   S    
C49   H17   S    
C31   C79   S    
C55   C60   A    
C5    H32   S    
C74   H27   S    
C54   C57   A    
