data_mof_unit_1082.cif
_audit_creation_date              2012-10-26T20:12:01-0400
_audit_creation_method            fapswitch 2.2
_symmetry_space_group_name_H-M    P1
_symmetry_Int_Tables_number       1
_space_group_crystal_system       triclinic
_cell_length_a                    12.98286
_cell_length_b                    15.110866
_cell_length_c                    13.936871
_cell_angle_alpha                 91.286658
_cell_angle_beta                  97.777167
_cell_angle_gamma                 91.248618
_cell_volume                      2707.48352012

loop_
_atom_site_label
_atom_site_type_symbol
_atom_type_description
_atom_site_fract_x
_atom_site_fract_y
_atom_site_fract_z
_atom_type_partial_charge
C1    C     C_R   0.500086 0.329855 0.499213 0.540524
C2    C     C_R   0.499102 0.950878 0.499327 0.032204
C3    C     C_R   0.598946 0.523879 0.124172 -0.156564
C4    C     C_R   0.472440 0.415530 0.883158 -0.160037
C5    C     C_R   0.587089 0.531806 0.223666 0.036301
C6    C     C_R   0.463458 0.425496 0.781451 0.029508
C7    C     C_R   0.421765 0.459940 0.191767 0.147761
C8    C     C_R   0.545776 0.567273 0.804881 0.147369
C9    C     C_R   0.435034 0.447822 0.093349 -0.128454
C10   C     C_R   0.559757 0.555981 0.906214 -0.129189
C11   C     C_R   0.521823 0.480962 0.056801 0.009219
C12   C     C_R   0.500097 0.669888 0.500791 0.540226
C13   C     C_R   0.521972 0.481553 0.947737 0.009065
C14   C     C_R   0.300295 0.500925 0.481143 0.542350
C15   C     C_R   0.699662 0.500577 0.519130 0.540884
C16   C     C_R   0.812949 0.500203 0.531069 -0.018187
C17   C     C_R   0.186964 0.504063 0.470431 -0.023903
C18   C     C_R   0.021702 0.537236 0.375505 -0.002840
C19   C     C_R   0.978015 0.469006 0.626413 -0.002071
C20   C     C_R   0.130426 0.534737 0.386104 -0.126577
C21   C     C_R   0.869899 0.475334 0.617949 -0.133543
C22   C     C_R   0.136254 0.480112 0.548398 -0.142874
C23   C     C_R   0.500231 0.233069 0.498300 0.013135
C24   C     C_R   0.863477 0.522043 0.452378 -0.139822
C25   C     C_R   0.029032 0.488340 0.544741 0.042371
C26   C     C_R   0.971086 0.516116 0.456908 0.033534
C27   C     C_R   0.514005 0.096646 0.586356 -0.124641
C28   C     C_R   0.551182 0.903602 0.433601 -0.123442
C29   C     C_R   0.514210 0.188480 0.586221 -0.132418
C30   C     C_R   0.551497 0.811722 0.434483 -0.132080
C31   C     C_3   0.312143 0.438022 0.211539 -0.209079
C32   C     C_3   0.299745 0.346665 0.255258 -0.278857
C33   C     C_3   0.185388 0.318106 0.248789 -0.472270
C34   C     C_R   0.500654 0.766181 0.501683 0.015627
C35   C     C_3   0.573016 0.660626 0.776164 -0.205125
C36   C     C_3   0.680416 0.669570 0.742153 -0.277350
C37   C     C_3   0.714787 0.766552 0.737971 -0.471975
C38   C     C_3   0.959160 0.561702 0.279024 -0.259724
C39   C     C_3   0.021072 0.572936 0.193174 -0.305168
C40   C     C_3   0.948838 0.588459 0.099453 -0.458755
C41   C     C_3   0.035121 0.440898 0.722979 -0.259512
C42   C     C_3   0.091126 0.520070 0.780244 -0.293782
C43   C     C_3   0.154064 0.490717 0.874222 -0.458410
C44   C     C_R   0.486026 0.184444 0.410435 -0.137088
C45   C     C_R   0.448572 0.813075 0.567428 -0.143321
C46   C     C_R   0.485099 0.092365 0.410630 -0.121334
C47   C     C_R   0.447652 0.905022 0.566188 -0.125625
C48   C     C_R   0.499139 0.047931 0.498653 0.034104
Cu1   Cu    Cu3+1 0.500000 0.499990 0.596430 0.915153
Cu2   Cu    Cu3+1 0.500000 0.500010 0.403570 0.921044
H1    H     H_    0.817299 0.543934 0.387311 0.108884
H2    H     H_    0.592408 0.776241 0.383397 0.114937
H3    H     H_    0.474899 0.217364 0.341734 0.117774
H4    H     H_    0.406602 0.778700 0.617999 0.107678
H5    H     H_    0.472305 0.055899 0.342100 0.102649
H6    H     H_    0.405441 0.940213 0.616411 0.103108
H7    H     H_    0.668668 0.551382 0.100489 0.085595
H8    H     H_    0.440803 0.355897 0.910773 0.086770
H9    H     H_    0.648646 0.564634 0.272332 0.116650
H10   H     H_    0.426115 0.372640 0.735021 0.122470
H11   H     H_    0.142256 0.366971 0.287515 0.164184
H12   H     H_    0.182123 0.456144 0.612577 0.129977
H13   H     H_    0.149300 0.311927 0.171912 0.145689
H14   H     H_    0.179169 0.252781 0.282771 0.144313
H15   H     H_    0.340762 0.296522 0.215936 0.142595
H16   H     H_    0.332573 0.347500 0.332308 0.209578
H17   H     H_    0.281186 0.492883 0.250098 0.157302
H18   H     H_    0.258064 0.437802 0.142303 0.091166
H19   H     H_    0.657359 0.802870 0.688191 0.166694
H20   H     H_    0.722902 0.798492 0.811256 0.145696
H21   H     H_    0.791263 0.770683 0.710800 0.141660
H22   H     H_    0.739047 0.634949 0.792603 0.144246
H23   H     H_    0.372669 0.417610 0.042878 0.087583
H24   H     H_    0.679293 0.640334 0.669092 0.212209
H25   H     H_    0.508969 0.689579 0.728364 0.161685
H26   H     H_    0.575374 0.706350 0.840224 0.092810
H27   H     H_    0.894273 0.530974 0.081525 0.148936
H28   H     H_    0.903568 0.649205 0.106798 0.147132
H29   H     H_    0.995619 0.596837 0.039038 0.140814
H30   H     H_    0.075838 0.630767 0.207418 0.157507
H31   H     H_    0.065742 0.512283 0.182850 0.155369
H32   H     H_    0.899812 0.508098 0.257866 0.142876
H33   H     H_    0.918358 0.624313 0.289986 0.134333
H34   H     H_    0.594743 0.609163 0.953974 0.087575
H35   H     H_    0.214757 0.443952 0.858228 0.151361
H36   H     H_    0.192875 0.549312 0.914385 0.142853
H37   H     H_    0.102339 0.458085 0.920840 0.145217
H38   H     H_    0.144496 0.554417 0.736561 0.169444
H39   H     H_    0.032628 0.568301 0.798045 0.158098
H40   H     H_    0.979418 0.411257 0.767972 0.134333
H41   H     H_    0.090070 0.387575 0.711610 0.132850
H42   H     H_    0.829694 0.459497 0.678896 0.123755
H43   H     H_    0.172125 0.558313 0.329863 0.111380
H44   H     H_    0.526733 0.063730 0.655040 0.100199
H45   H     H_    0.592645 0.937704 0.382399 0.103209
H46   H     H_    0.526072 0.224441 0.655093 0.120769
N1    N     N_R   0.500000 0.500020 0.258690 -0.210802
N2    N     N_R   0.500000 0.499980 0.741310 -0.210948
O1    O     O_R   0.500010 0.371450 0.581430 -0.514144
O2    O     O_R   0.499990 0.628550 0.418570 -0.499924
O3    O     O_R   0.500010 0.371460 0.418560 -0.507603
O4    O     O_R   0.499990 0.628540 0.581440 -0.520193
O5    O     O_R   0.349000 0.499980 0.568210 -0.502663
O6    O     O_R   0.651000 0.500020 0.431790 -0.511234
O7    O     O_R   0.349000 0.499990 0.405340 -0.518748
O8    O     O_R   0.651000 0.500010 0.594660 -0.512016

loop_
_geom_bond_atom_site_label_1
_geom_bond_atom_site_label_2
_ccdc_geom_bond_type
C27   C48   A    
C20   H43   S    
Cu2   O6    S    
C16   C21   A    
C37   H19   S    
C38   H33   S    
C27   C29   A    
C41   C42   S    
C35   C36   S    
C18   C26   A    
C1    O1    A    
C31   H17   S    
C35   H25   S    
C28   H45   S    
C23   C29   A    
C15   O8    A    
C36   C37   S    
C19   C21   A    
C24   C26   A    
C38   C39   S    
C22   H12   S    
C15   C16   S    
C17   C20   A    
C4    C13   A    
C8    N2    A    
Cu1   N2    S    
C44   H3    S    
C14   O7    A    
C22   C25   A    
C46   H5    S    
Cu2   O7    S    
C15   O6    A    
C24   H1    S    
C41   H40   S    
C16   C24   A    
C37   H20   S    
C38   H32   S    
C14   C17   S    
C9    H23   S    
C44   C46   A    
C45   C47   A    
C31   H18   S    
C46   C48   A    
C35   H26   S    
C7    C31   S    
C5    H9    S    
C43   H35   S    
C6    H10   S    
C39   H31   S    
C4    C6    A    
C39   C40   S    
C30   C34   A    
C2    C48   S    
C25   C26   A    
C23   C44   A    
C8    C35   S    
C12   O4    A    
Cu1   O1    S    
C31   C32   S    
C33   H13   S    
C40   H29   S    
C34   C45   A    
C9    C11   A    
C36   H24   S    
C3    H7    S    
C33   H11   S    
C41   H41   S    
C5    N1    A    
C45   H4    S    
C1    C23   S    
C1    O3    A    
C37   H21   S    
C40   H28   S    
C42   H38   S    
C42   C43   S    
C12   C34   S    
C6    N2    A    
Cu1   O4    S    
C32   H16   S    
C7    C9    A    
C30   H2    S    
Cu2   N1    S    
C7    N1    A    
C43   H36   S    
C3    C5    A    
C10   C13   A    
Cu1   O5    S    
C29   H46   S    
Cu1   O8    S    
C2    C47   A    
Cu2   O2    S    
C17   C22   A    
C42   H39   S    
C43   H37   S    
C32   C33   S    
C28   C30   A    
C18   C38   S    
C39   H30   S    
C11   C13   S    
C14   O5    A    
C33   H14   S    
C10   H34   S    
C18   C20   A    
C19   C25   A    
C12   O2    A    
C3    C11   A    
C36   H22   S    
Cu2   O3    S    
C8    C10   A    
Cu1   Cu2   S    
C4    H8    S    
C40   H27   S    
C32   H15   S    
C27   H44   S    
C2    C28   A    
C19   C41   S    
C47   H6    S    
C21   H42   S    
