data_mof_unit_3610.cif
_audit_creation_date              2012-12-10T16:37:31-0500
_audit_creation_method            fapswitch 2.2
_symmetry_space_group_name_H-M    P1
_symmetry_Int_Tables_number       1
_space_group_crystal_system       triclinic
_cell_length_a                    10.919669
_cell_length_b                    10.825537
_cell_length_c                    15.449706
_cell_angle_alpha                 96.27245
_cell_angle_beta                  74.984146
_cell_angle_gamma                 98.505588
_cell_volume                      1739.74993079

loop_
_atom_site_label
_atom_site_type_symbol
_atom_type_description
_atom_site_fract_x
_atom_site_fract_y
_atom_site_fract_z
_atom_type_partial_charge
C1    C     C_R   0.159185 0.478405 0.520037 0.541169
C2    C     C_R   0.538419 0.496771 0.112584 -0.094115
C3    C     C_R   0.601149 0.296405 0.125280 -0.112846
C4    C     C_R   0.842405 0.521214 0.480132 0.503272
C5    C     C_R   0.423584 0.579608 0.841545 0.025291
C6    C     C_2   0.979434 0.535891 0.475943 0.053241
C7    C     C_2   0.024404 0.468280 0.527443 0.112589
C8    C     C_2   0.532026 0.964454 0.464319 0.115443
C9    C     C_2   0.461050 0.035768 0.528390 -0.051759
C10   C     C_R   0.468071 0.167804 0.521198 0.515369
C11   C     C_R   0.527912 0.832964 0.478525 0.504043
C12   C     C_R   0.358176 0.719584 0.976047 0.046810
C13   C     C_R   0.555630 0.443876 0.258634 0.517290
C14   C     C_R   0.445269 0.553530 0.742412 0.511870
C15   C     C_R   0.590105 0.255981 0.038242 0.055530
C16   C     C_R   0.574937 0.415827 0.162201 0.009549
C17   C     C_R   0.385913 0.696583 0.881931 0.089977
C18   C     C_3   0.936386 0.250672 0.536964 -0.269091
C19   C     C_3   0.731329 0.074349 0.384152 -0.291079
C20   C     C_2   0.638030 0.135409 0.998517 0.579657
C21   C     C_3   0.490742 0.874625 0.798204 -0.270109
C22   C     C_2   0.326589 0.643908 0.127859 0.582874
C23   C     C_R   0.384754 0.633866 0.029332 0.008584
C24   C     C_2   0.298180 0.832598 0.018200 0.609570
C25   C     C_2   0.065149 0.629885 0.416413 0.549867
C26   C     C_R   0.446511 0.527786 0.986783 -0.012329
C27   C     C_R   0.445615 0.491898 0.895966 -0.019191
C28   C     C_R   0.505201 0.452976 0.031491 0.033527
C29   C     C_R   0.535379 0.332005 0.992461 0.029042
C30   C     C_R   0.504278 0.288379 0.911169 -0.100696
C31   C     C_R   0.462333 0.367285 0.863232 -0.100132
H1    H     H_    0.631685 0.235414 0.164704 0.160252
H2    H     H_    0.607913 0.948540 0.326951 0.283261
H3    H     H_    0.779862 0.111559 0.318016 0.159828
H4    H     H_    0.789513 0.007003 0.398926 0.160441
H5    H     H_    0.724606 0.154077 0.435932 0.155982
H6    H     H_    0.668455 0.963026 0.019844 0.355826
H7    H     H_    0.295095 0.836861 0.851172 0.277988
H8    H     H_    0.476110 0.939240 0.751704 0.139460
H9    H     H_    0.570372 0.820907 0.761883 0.157937
H10   H     H_    0.516657 0.930812 0.856904 0.185545
H11   H     H_    0.301481 0.751349 0.244609 0.347573
H12   H     H_    0.407958 0.999648 0.592181 0.088158
H13   H     H_    0.320565 0.007528 0.076591 0.349944
H14   H     H_    0.207877 0.773821 0.402104 0.329220
H15   H     H_    0.511826 0.193020 0.883308 0.151950
H16   H     H_    0.530792 0.591837 0.140766 0.142122
H17   H     H_    0.438859 0.327030 0.801587 0.144623
H18   H     H_    0.966755 0.374219 0.643234 0.252564
H19   H     H_    0.858460 0.188667 0.578766 0.156766
H20   H     H_    0.027688 0.210810 0.526495 0.153913
H21   H     H_    0.914994 0.253811 0.470858 0.146778
N1    N     N_2   0.945040 0.374815 0.582155 -0.494394
N2    N     N_2   0.605302 0.012926 0.381601 -0.498992
N3    N     N_2   0.374600 0.790650 0.827467 -0.482666
O1    O     O_3   0.500000 0.500000 0.500000 -0.461431
O2    O     O_R   0.463530 0.379110 0.309170 -0.515104
O3    O     O_R   0.388210 0.611730 0.699360 -0.503995
O4    O     O_R   0.624720 0.532760 0.292120 -0.526012
O5    O     O_R   0.523540 0.476390 0.699360 -0.555143
O6    O     O_2   0.688960 0.121498 0.918292 -0.541725
O7    O     O_R   0.631817 0.039975 0.054254 -0.650933
O8    O     O_2   0.264806 0.551970 0.164736 -0.470828
O9    O     O_R   0.344109 0.757325 0.178445 -0.648452
O10   O     O_2   0.184689 0.835441 0.024448 -0.495748
O11   O     O_R   0.371795 0.935638 0.049902 -0.636586
O12   O     O_R   0.537910 0.240570 0.564270 -0.560606
O13   O     O_2   0.051075 0.637536 0.341270 -0.452708
O14   O     O_R   0.158747 0.712032 0.447377 -0.690423
O15   O     O_R   0.438950 0.782540 0.540270 -0.538246
O16   O     O_R   0.222350 0.398740 0.468260 -0.544407
O17   O     O_R   0.800790 0.578160 0.427210 -0.507240
O18   O     O_R   0.212140 0.566330 0.564260 -0.500337
O19   O     O_R   0.764730 0.456770 0.540270 -0.512415
O20   O     O_R   0.412790 0.208310 0.468260 -0.515562
O21   O     O_R   0.610350 0.768590 0.427210 -0.534135
Zn1   Zn    Zn3+2 0.580150 0.419820 0.574680 0.929161
Zn2   Zn    Zn3+2 0.401380 0.373730 0.437510 0.974610
Zn3   Zn    Zn3+2 0.631680 0.593260 0.413140 0.985422
Zn4   Zn    Zn3+2 0.386790 0.613180 0.574670 0.975550

loop_
_geom_bond_atom_site_label_1
_geom_bond_atom_site_label_2
_ccdc_geom_bond_type
H13   O11   S    
O12   Zn1   S    
O21   Zn3   S    
H6    O7    S    
C11   O15   A    
C18   H21   S    
C10   O12   A    
C12   C23   A    
C26   C27   A    
C1    O16   A    
O1    Zn3   S    
C28   C29   A    
O17   Zn3   S    
C19   H5    S    
H14   O14   S    
C30   C31   A    
C6    C25   S    
C5    C17   A    
O1    Zn2   S    
C23   C26   A    
C20   O6    D    
C18   N1    S    
C22   O8    D    
C5    C27   A    
H7    N3    S    
C8    C9    D    
O19   Zn1   S    
C12   C17   A    
C2    C16   A    
C9    C10   S    
C17   N3    S    
C4    O19   A    
C24   O11   S    
C25   O13   D    
C18   H20   S    
C15   C29   A    
C15   C20   S    
C14   O3    A    
O5    Zn1   S    
C9    H12   S    
O15   Zn4   S    
C4    C6    S    
C8    N2    S    
C21   N3    S    
C27   C31   A    
O1    Zn1   S    
C29   C30   A    
C10   O20   A    
C21   H8    S    
C5    C14   S    
C24   O10   D    
C21   H10   S    
C19   N2    S    
C31   H17   S    
C25   O14   S    
C7    N1    S    
O4    Zn3   S    
H11   O9    S    
C4    O17   A    
C3    C15   A    
C18   H19   S    
H2    N2    S    
C1    C7    S    
O2    Zn2   S    
C30   H15   S    
C19   H3    S    
C6    C7    D    
C13   O4    A    
O3    Zn4   S    
C2    H16   S    
C14   O5    A    
C12   C24   S    
C26   C28   A    
O1    Zn4   S    
C11   O21   A    
C1    O18   A    
C19   H4    S    
C21   H9    S    
C8    C11   S    
H18   N1    S    
O18   Zn4   S    
C20   O7    S    
C3    H1    S    
O20   Zn2   S    
C22   O9    S    
C13   O2    A    
C13   C16   S    
C22   C23   S    
C2    C28   A    
O16   Zn2   S    
C3    C16   A    
