data_mof_unit_120.cif
_audit_creation_date              2012-12-10T17:54:28-0500
_audit_creation_method            fapswitch 2.2
_symmetry_space_group_name_H-M    P1
_symmetry_Int_Tables_number       1
_space_group_crystal_system       triclinic
_cell_length_a                    27.655586
_cell_length_b                    10.529772
_cell_length_c                    9.934274
_cell_angle_alpha                 90.921775
_cell_angle_beta                  88.727782
_cell_angle_gamma                 93.340474
_cell_volume                      2886.98580194

loop_
_atom_site_label
_atom_site_type_symbol
_atom_type_description
_atom_site_fract_x
_atom_site_fract_y
_atom_site_fract_z
_atom_type_partial_charge
C1    C     C_R   0.508132 0.263114 0.499090 0.908630
C2    C     C_R   0.974538 0.416859 0.444669 0.060893
C3    C     C_R   0.977727 0.650154 0.474795 -0.029071
C4    C     C_R   0.406155 0.503448 0.501590 0.845735
C5    C     C_R   0.950739 0.532226 0.459298 0.054862
C6    C     C_R   0.947077 0.304626 0.403359 -0.037705
C7    C     C_R   0.896636 0.302607 0.409400 -0.180882
C8    C     C_R   0.872752 0.412841 0.441244 -0.005046
C9    C     C_R   0.899594 0.529201 0.460656 -0.126272
C10   C     C_R   0.875234 0.641982 0.483507 -0.174123
C11   C     C_R   0.824401 0.634525 0.490458 0.603841
C12   C     C_R   0.278411 0.523900 0.636736 0.014880
C13   C     C_R   0.822203 0.410279 0.449070 0.598854
C14   C     C_R   0.723730 0.516998 0.606102 -0.184087
C15   C     C_R   0.673357 0.511282 0.612539 -0.128454
C16   C     C_R   0.506945 0.740291 0.499554 1.009232
C17   C     C_R   0.671460 0.500611 0.368126 -0.247261
C18   C     C_R   0.721713 0.506172 0.361983 0.712966
C19   C     C_R   0.747819 0.514571 0.480916 0.151530
C20   C     C_R   0.024213 0.418279 0.476310 0.074891
C21   C     C_R   0.051775 0.535300 0.482460 0.072150
C22   C     C_R   0.028972 0.651936 0.473468 0.092029
C23   C     C_R   0.253652 0.537554 0.515420 0.290849
C24   C     C_R   0.045909 0.307443 0.515182 -0.196304
C25   C     C_R   0.108213 0.765650 0.476242 -0.106677
C26   C     C_R   0.952483 0.761880 0.494934 -0.296118
C27   C     C_R   0.902207 0.758082 0.499717 0.701928
C28   C     C_R   0.593980 0.500602 0.498452 0.935464
C29   C     C_R   0.058243 0.766213 0.467236 -0.195611
C30   C     C_R   0.559276 0.141820 0.726760 -0.102370
C31   C     C_R   0.579230 0.077719 0.831954 -0.201439
C32   C     C_R   0.584670 0.947566 0.820999 -0.128799
C33   C     C_R   0.568299 0.880240 0.707339 0.721035
C34   C     C_R   0.102418 0.535584 0.498852 -0.069802
C35   C     C_R   0.542859 0.940779 0.607500 -0.132457
C36   C     C_R   0.540883 0.074297 0.612454 -0.024193
C37   C     C_R   0.524501 0.134743 0.496494 -0.342348
C38   C     C_R   0.524718 0.068701 0.373219 0.587284
C39   C     C_R   0.520678 0.938560 0.372747 0.574575
C40   C     C_R   0.175846 0.423731 0.518887 0.604600
C41   C     C_R   0.523034 0.874242 0.494976 -0.358466
C42   C     C_R   0.419489 0.373984 0.135158 -0.130049
C43   C     C_R   0.376735 0.349290 0.061232 -0.219756
C44   C     C_R   0.381209 0.338155 0.921567 0.636118
C45   C     C_R   0.124849 0.420280 0.520324 -0.037627
C46   C     C_R   0.425170 0.370837 0.858590 -0.187425
C47   C     C_R   0.462174 0.438460 0.927676 -0.076023
C48   C     C_R   0.461167 0.438465 0.072025 0.037031
C49   C     C_R   0.537046 0.555561 0.070689 0.601829
C50   C     C_R   0.537369 0.553771 0.928254 0.570073
C51   C     C_R   0.180815 0.650262 0.502928 0.568560
C52   C     C_R   0.279082 0.544293 0.392255 -0.113179
C53   C     C_R   0.328867 0.534406 0.387610 -0.231719
C54   C     C_R   0.328480 0.513308 0.630305 -0.224927
C55   C     C_2   0.253872 0.520134 0.771276 0.526255
C56   C     C_R   0.095350 0.306963 0.539403 -0.015529
C57   C     C_2   0.424960 0.273406 0.233301 0.583205
C58   C     C_2   0.330036 0.310571 0.130924 0.486297
C59   C     C_2   0.112816 0.187717 0.593170 0.553976
C60   C     C_2   0.968476 0.193137 0.336661 0.388367
C61   C     C_R   0.130586 0.651478 0.493177 -0.017130
C62   C     C_R   0.353729 0.515627 0.506175 -0.028578
C63   C     C_R   0.646897 0.503465 0.493414 -0.146881
F1    F     F_    0.880392 0.869027 0.521852 -0.611425
F2    F     F_    0.745142 0.504086 0.240553 -0.625698
F3    F     F_    0.527579 0.129067 0.253413 -0.580128
F4    F     F_    0.584395 0.762986 0.684092 -0.612860
F5    F     F_    0.513212 0.877309 0.252871 -0.577580
F6    F     F_    0.574875 0.613756 0.136177 -0.594549
F7    F     F_    0.344638 0.284660 0.846863 -0.621674
F8    F     F_    0.577147 0.603174 0.862728 -0.585276
H1    H     H_    0.347813 0.504032 0.722767 0.171863
H2    H     H_    0.429760 0.339892 0.756460 0.224145
H3    H     H_    0.655258 0.513613 0.710237 0.235528
H4    H     H_    0.744107 0.523197 0.698036 0.191459
H5    H     H_    0.875952 0.215373 0.383173 0.207631
H6    H     H_    0.023812 0.221272 0.535063 0.131777
H7    H     H_    0.347789 0.540847 0.291197 0.162589
H8    H     H_    0.274449 0.500512 0.859662 0.100688
H9    H     H_    0.409629 0.279812 0.334292 0.022830
H10   H     H_    0.328385 0.301378 0.239521 0.040916
H11   H     H_    0.097484 0.096494 0.557084 0.021416
H12   H     H_    0.259930 0.555273 0.299609 0.161693
H13   H     H_    0.949264 0.100287 0.340376 0.098211
H14   H     H_    0.129267 0.855510 0.470029 0.197773
H15   H     H_    0.970712 0.853644 0.513172 0.164452
H16   H     H_    0.651919 0.494497 0.274761 0.232910
H17   H     H_    0.043631 0.857444 0.451635 0.146197
H18   H     H_    0.561993 0.244243 0.733602 0.183805
H19   H     H_    0.593525 0.130569 0.918093 0.203288
H20   H     H_    0.603988 0.900049 0.897331 0.216379
N1    N     N_R   0.202123 0.537551 0.514131 -0.349608
N2    N     N_R   0.799384 0.519832 0.474367 -0.351424
N3    N     N_R   0.499540 0.498800 0.142780 -0.183874
N4    N     N_R   0.499520 0.498720 0.857170 -0.186649
O1    O     O_R   0.500000 0.316780 0.614690 -0.659499
O2    O     O_R   0.571250 0.499990 0.614680 -0.552868
O3    O     O_R   0.571240 0.499970 0.385350 -0.581701
O4    O     O_2   0.199405 0.315111 0.516796 -0.486917
O5    O     O_2   0.211058 0.540254 0.786283 -0.538794
O6    O     O_2   0.440913 0.173082 0.195463 -0.485895
O7    O     O_2   0.292703 0.290786 0.068673 -0.459591
O8    O     O_2   0.141560 0.189995 0.684825 -0.463110
O9    O     O_2   0.006247 0.205002 0.270845 -0.531728
O10   O     O_2   0.795900 0.299287 0.432193 -0.506611
O11   O     O_2   0.208365 0.760356 0.499761 -0.516397
O12   O     O_2   0.799943 0.740329 0.512767 -0.434134
O13   O     O_R   0.500000 0.316750 0.385360 -0.570458
O14   O     O_R   0.428760 0.500030 0.614650 -0.639790
O15   O     O_R   0.428750 0.500010 0.385320 -0.657581
O16   O     O_R   0.500000 0.683250 0.614640 -0.569152
O17   O     O_R   0.500000 0.683220 0.385310 -0.533558
Zn1   Zn    Zn3+2 0.500000 0.500020 0.653130 1.012900
Zn2   Zn    Zn3+2 0.500000 0.499980 0.346870 1.068452

loop_
_geom_bond_atom_site_label_1
_geom_bond_atom_site_label_2
_ccdc_geom_bond_type
C10   C27   A    
C28   O2    A    
C4    O14   A    
C8    C13   A    
C22   C29   A    
C39   F5    S    
C35   C36   A    
C51   C61   A    
C59   H11   S    
C50   F8    S    
C40   O4    S    
O17   Zn2   S    
N3    Zn2   S    
C7    C8    A    
C39   C41   A    
C31   C32   A    
C18   F2    S    
C38   F3    S    
C12   C23   A    
C16   O17   A    
C26   C27   A    
C48   N3    A    
C36   C37   A    
C1    O1    A    
C30   C31   A    
C50   N4    A    
O3    Zn2   S    
C32   H20   S    
C4    C62   S    
C18   C19   A    
O13   Zn2   S    
C29   H17   S    
C43   C58   S    
C20   C24   A    
C45   C56   A    
C8    C9    A    
C55   O5    D    
C44   F7    S    
C58   O7    D    
C49   N3    A    
C9    C10   A    
O15   Zn2   S    
C19   N2    S    
C1    C37   S    
C11   N2    A    
C49   F6    S    
C21   C22   A    
C57   H9    S    
C2    C6    A    
C30   H18   S    
C42   C57   S    
C44   C46   A    
C25   C29   A    
C40   C45   A    
C2    C20   A    
C6    C60   S    
C13   O10   S    
C27   F1    S    
C58   H10   S    
C25   C61   A    
C21   C34   A    
C54   C62   A    
C34   C61   A    
C13   N2    A    
C52   H12   S    
C43   C44   A    
C5    C9    A    
C37   C38   A    
C51   N1    A    
C55   H8    S    
C53   C62   A    
C47   C48   A    
C26   H15   S    
C31   H19   S    
C25   H14   S    
C17   C18   A    
O16   Zn1   S    
C34   C45   A    
C42   C48   A    
C40   N1    A    
C6    C7    A    
C11   O12   S    
O1    Zn1   S    
C2    C5    A    
C42   C43   A    
O2    Zn1   S    
C52   C53   A    
C33   F4    S    
C28   O3    A    
C23   N1    S    
C4    O15   A    
C46   C47   A    
C47   N4    A    
C17   H16   S    
C14   C19   A    
C3    C26   A    
C3    C5    A    
C7    H5    S    
O14   Zn1   S    
C24   C56   A    
C57   O6    D    
C56   C59   S    
C30   C36   A    
C59   O8    D    
C32   C33   A    
C53   H7    S    
C14   H4    S    
C60   H13   S    
C23   C52   A    
C38   C39   A    
N4    Zn1   S    
C51   O11   S    
C33   C35   A    
C35   C41   A    
C12   C54   A    
C12   C55   S    
C10   C11   A    
C1    O13   A    
C28   C63   S    
C24   H6    S    
C15   H3    S    
C54   H1    S    
C20   C21   A    
C49   C50   A    
C15   C63   A    
C14   C15   A    
C3    C22   A    
C60   O9    D    
C16   C41   S    
C46   H2    S    
C17   C63   A    
C16   O16   A    
