data_mof_unit_3413.cif
_audit_creation_date              2013-03-05T15:40:30-0500
_audit_creation_method            fapswitch 2.2
_symmetry_space_group_name_H-M    P1
_symmetry_Int_Tables_number       1
_space_group_crystal_system       triclinic
_cell_length_a                    6.945483
_cell_length_b                    11.391208
_cell_length_c                    18.663234
_cell_angle_alpha                 89.994986
_cell_angle_beta                  92.935469
_cell_angle_gamma                 89.943218
_cell_volume                      1474.64907651

loop_
_atom_site_label
_atom_site_type_symbol
_atom_site_description
_atom_site_fract_x
_atom_site_fract_y
_atom_site_fract_z
_atom_type_partial_charge
O1    O     O_R   0.330540 0.606360 0.598870 -0.542267
O2    O     O_R   0.669460 0.106360 0.401130 -0.542650
O3    O     O_R   0.026770 0.620470 0.750430 -0.531090
O4    O     O_R   0.973230 0.120470 0.249570 -0.528326
O5    O     O_R   0.856460 0.393640 0.750930 -0.535246
O6    O     O_R   0.143540 0.893640 0.249070 -0.531171
C1    C     C_R   0.198629 0.648285 0.774644 0.710119
C2    C     C_R   0.801113 0.148148 0.225268 0.710911
O7    O     O_R   0.000920 0.620350 0.599420 -0.550729
O8    O     O_R   0.999080 0.120350 0.400580 -0.550137
O9    O     O_R   0.830430 0.393520 0.598850 -0.542838
O10   O     O_R   0.169570 0.893520 0.401150 -0.542715
C3    C     C_R   0.166583 0.647870 0.574530 0.755797
C4    C     C_R   0.833357 0.147854 0.425458 0.756182
O11   O     O_R   0.356570 0.606480 0.750960 -0.530589
O12   O     O_R   0.643430 0.106480 0.249040 -0.533504
O13   O     O_3   0.176990 0.425580 0.674890 -0.370269
O14   O     O_3   0.823010 0.925580 0.325110 -0.370157
V1    V     V_3+5 0.902170 0.513810 0.674910 1.497127
V2    V     V_3+5 0.097830 0.013810 0.325090 1.503795
O15   O     O_R   0.500800 0.379530 0.599380 -0.550691
O16   O     O_R   0.499200 0.879530 0.400620 -0.550769
C5    C     C_R   0.666537 0.352023 0.574514 0.754422
C6    C     C_R   0.333523 0.852008 0.425498 0.754433
O17   O     O_R   0.526650 0.379650 0.750390 -0.530057
O18   O     O_R   0.473350 0.879650 0.249610 -0.534469
C7    C     C_R   0.698841 0.351174 0.774217 0.727359
C8    C     C_R   0.301489 0.851334 0.225705 0.726553
V3    V     V_3+5 0.402160 0.486190 0.674900 1.501673
V4    V     V_3+5 0.597840 0.986190 0.325100 1.494604
O19   O     O_3   0.677210 0.574420 0.674910 -0.368941
O20   O     O_3   0.322790 0.074420 0.325090 -0.369055
C9    C     C_R   0.717145 0.066306 0.876955 0.410978
C10   C     C_R   0.270199 0.566626 0.123129 0.412612
H1    H     H_    0.693383 0.117317 0.765372 0.148391
H2    H     H_    0.298962 0.617497 0.234619 0.147497
H3    H     H_    0.690375 0.939140 0.000529 0.196758
H4    H     H_    0.193248 0.439070 0.000677 0.196511
C11   C     C_R   0.715805 0.267546 0.833697 -0.083642
C12   C     C_R   0.285499 0.767863 0.166172 -0.082928
C13   C     C_R   0.795011 0.350736 0.179953 -0.096736
C14   C     C_R   0.217661 0.850831 0.819731 -0.091921
C15   C     C_R   0.789216 0.433714 0.124667 0.472976
C16   C     C_R   0.235531 0.933856 0.874861 0.478160
C17   C     C_R   0.777250 0.394880 0.053194 -0.224332
C18   C     C_R   0.253564 0.895083 0.946296 -0.225934
C19   C     C_R   0.762846 0.273776 0.035552 0.082997
C20   C     C_R   0.246833 0.773994 0.964213 0.080572
C21   C     C_R   0.763619 0.191470 0.092884 0.093681
C22   C     C_R   0.224954 0.691582 0.907140 0.093441
C23   C     C_R   0.745563 0.231967 0.962980 0.099020
C24   C     C_R   0.259129 0.732278 0.036857 0.098983
C25   C     C_R   0.729851 0.108602 0.949106 0.035430
C26   C     C_R   0.251349 0.608856 0.051027 0.035812
C27   C     C_R   0.719676 0.031482 0.007482 -0.138548
C28   C     C_R   0.217931 0.531572 0.993130 -0.137977
C29   C     C_R   0.740070 0.071572 0.077545 -0.186501
C30   C     C_R   0.208462 0.571649 0.922935 -0.185235
C31   C     C_R   0.738968 0.309265 0.903661 -0.182229
C32   C     C_R   0.275133 0.809674 0.096038 -0.184318
C33   C     C_R   0.706599 0.147556 0.820447 -0.104128
C34   C     C_R   0.285395 0.647837 0.179560 -0.103785
C35   C     C_R   0.784640 0.230825 0.164831 -0.117100
C36   C     C_R   0.214921 0.730909 0.835065 -0.114484
H5    H     H_    0.747154 0.403148 0.909413 0.108527
H6    H     H_    0.278491 0.903612 0.090116 0.108516
H7    H     H_    0.807881 0.379287 0.235372 0.147144
H8    H     H_    0.205676 0.879360 0.764292 0.144100
H9    H     H_    0.777069 0.461922 0.012757 0.154043
H10   H     H_    0.270698 0.962137 0.986535 0.153153
H11   H     H_    0.733455 0.007024 0.119937 0.131857
H12   H     H_    0.184640 0.507040 0.880859 0.129800
C37   C     C_2   0.831945 0.233724 0.484724 -0.328903
C38   C     C_2   0.168005 0.733752 0.515245 -0.328358
H13   H     H_    0.969378 0.270598 0.503837 0.150257
H14   H     H_    0.030542 0.770677 0.496070 0.149836
C39   C     C_2   0.667967 0.266141 0.515256 -0.328510
C40   C     C_2   0.332084 0.766115 0.484776 -0.327551
H15   H     H_    0.530535 0.229268 0.496142 0.150051
H16   H     H_    0.469547 0.729191 0.503952 0.149759
N1    N     N_R   0.715179 0.942754 0.859190 0.045150
O21   O     O_R   0.817630 0.867777 0.897349 -0.405357
O22   O     O_R   0.640616 0.908126 0.797376 -0.394837
N2    N     N_R   0.275080 0.443136 0.140940 0.045354
O23   O     O_R   0.362284 0.368077 0.101324 -0.405438
O24   O     O_R   0.224195 0.408610 0.203698 -0.393664
N3    N     N_R   0.793908 0.557458 0.141040 0.057647
O25   O     O_R   0.807665 0.593447 0.207293 -0.392133
O26   O     O_R   0.779743 0.635418 0.090029 -0.398157
N4    N     N_R   0.233339 0.057585 0.858402 0.057791
O27   O     O_R   0.219434 0.093525 0.792133 -0.392538
O28   O     O_R   0.241006 0.135587 0.909443 -0.398865

loop_
_geom_bond_atom_site_label_1
_geom_bond_atom_site_label_2
_geom_bond_distance
_ccdc_geom_bond_type
N3    O25   1.301614 A    
C21   C35   1.416136 A    
C22   C36   1.416057 A    
O4    C2    1.295328 A    
V1    O19   1.707575 S    
N1    O21   1.299898 A    
C12   C34   1.389867 A    
C19   C21   1.422388 A    
O9    V1    2.017464 S    
C38   H14   1.086611 S    
C12   C32   1.391214 A    
N2    O24   1.301558 A    
O3    C1    1.294194 A    
C40   H16   1.086612 S    
C8    C12   1.462418 S    
O12   V4    2.009840 S    
C10   N2    1.445383 S    
C10   C34   1.401826 A    
C21   C29   1.403492 A    
O17   V3    2.019478 S    
C17   C19   1.420719 A    
O7    C3    1.301308 A    
C24   C32   1.413290 A    
O5    C7    1.292702 A    
O7    V1    2.007129 S    
O6    C8    1.293775 A    
O8    V2    2.006456 S    
O3    V1    2.022155 S    
O14   V4    1.708900 S    
C39   H15   1.086630 S    
C32   H6    1.076142 S    
C2    O12   1.293185 A    
C14   H8    1.083591 S    
C13   C15   1.398290 A    
C14   C16   1.398499 A    
H2    C34   1.083605 S    
N1    O22   1.301545 A    
C24   C26   1.432145 A    
O11   V3    2.009581 S    
C18   C20   1.420660 A    
C25   C27   1.404115 A    
C9    C25   1.428707 A    
C11   C33   1.389996 A    
C26   C28   1.404046 A    
C17   H9    1.073579 S    
C22   C30   1.403635 A    
C4    C37   1.477023 S    
N2    O23   1.299813 A    
C13   H7    1.083599 S    
O8    C4    1.301023 A    
C7    C11   1.462835 S    
C19   C23   1.435030 A    
C1    O11   1.293901 A    
C16   C18   1.403893 A    
O15   V3    2.007397 S    
C29   H11   1.082779 S    
C23   C25   1.432201 A    
H3    C27   1.078170 S    
O1    C3    1.293296 A    
N4    O28   1.301841 A    
C11   C31   1.391210 A    
O10   V2    2.016622 S    
O1    V3    2.015133 S    
H1    C33   1.083543 S    
C5    C39   1.477014 S    
C20   C22   1.422258 A    
C15   C17   1.403845 A    
C6    C40   1.477265 S    
C10   C26   1.428659 A    
C27   C29   1.385543 A    
O16   C6    1.301307 A    
C23   C31   1.413361 A    
C37   H13   1.086629 S    
C14   C36   1.396035 A    
C16   N4    1.442387 S    
V2    O20   1.708826 S    
C37   C39   1.350499 D    
O16   V4    2.008072 S    
O18   V4    2.020656 S    
O5    V1    2.008536 S    
O17   C7    1.295378 A    
O6    V2    2.008277 S    
O10   C6    1.293327 A    
O18   C8    1.293890 A    
O2    V4    2.015973 S    
C15   N3    1.442396 S    
O15   C5    1.301027 A    
V3    O19   2.159478 S    
O13   V3    1.710152 S    
C31   H5    1.076089 S    
V4    O20   2.157715 S    
C30   H12   1.082922 S    
N4    O27   1.301611 A    
O9    C5    1.293691 A    
O13   V1    2.156327 S    
C28   C30   1.385639 A    
O14   V2    2.158090 S    
O2    C4    1.293663 A    
C1    C36   1.468860 S    
C18   H10   1.073631 S    
C2    C35   1.469251 S    
O4    V2    2.020978 S    
C20   C24   1.434972 A    
H4    C28   1.078123 S    
C3    C38   1.477272 S    
C9    C33   1.402155 A    
C38   C40   1.350986 D    
N3    O26   1.301837 A    
C13   C35   1.395994 A    
C9    N1    1.445881 S    
