data_mof_unit_3471.cif
_audit_creation_date              2012-12-11T15:41:27-0500
_audit_creation_method            fapswitch 2.2
_symmetry_space_group_name_H-M    P1
_symmetry_Int_Tables_number       1
_space_group_crystal_system       triclinic
_cell_length_a                    14.839238
_cell_length_b                    14.933827
_cell_length_c                    14.861467
_cell_angle_alpha                 109.138438
_cell_angle_beta                  109.813668
_cell_angle_gamma                 109.185076
_cell_volume                      2543.79099748

loop_
_atom_site_label
_atom_site_type_symbol
_atom_type_description
_atom_site_fract_x
_atom_site_fract_y
_atom_site_fract_z
_atom_type_partial_charge
C1    C     C_R   0.252952 0.067442 0.975078 -0.073601
C2    C     C_R   0.810477 0.790931 0.271822 0.516567
C3    C     C_R   0.307861 0.190720 0.657321 -0.278574
C4    C     C_R   0.712225 0.707703 0.175430 -0.258811
C5    C     C_R   0.305350 0.273812 0.734063 -0.000556
C6    C     C_R   0.711640 0.663618 0.075846 -0.032714
C7    C     C_R   0.205043 0.256331 0.730898 -0.325532
C8    C     C_R   0.811205 0.699502 0.074878 -0.292882
C9    C     C_R   0.109442 0.155351 0.654655 0.536676
C10   C     C_R   0.909893 0.780520 0.171999 0.513521
C11   C     C_R   0.113452 0.072078 0.580722 -0.258898
C12   C     C_R   0.805623 0.005410 0.096895 -0.123564
C13   C     C_R   0.909235 0.827425 0.269925 -0.312723
C14   C     C_R   0.413796 0.476177 0.839602 -0.241158
C15   C     C_R   0.605088 0.472243 0.945099 -0.229340
C16   C     C_R   0.751394 0.224027 0.315110 0.727696
C17   C     C_R   0.193488 0.795473 0.703669 0.833666
C18   C     C_R   0.510470 0.574331 0.924178 0.048560
C19   C     C_R   0.503903 0.376622 0.886002 0.031078
C20   C     C_R   0.608767 0.571580 0.975344 0.109553
C21   C     C_R   0.408843 0.376174 0.820834 0.115251
C22   C     C_R   0.877374 0.528183 0.424293 -0.174206
C23   C     C_R   0.776175 0.326732 0.325882 -0.150327
C24   C     C_R   0.958059 0.530598 0.624432 -0.165036
C25   C     C_R   0.967189 0.621836 0.517363 -0.100462
C26   C     C_R   0.868124 0.436192 0.530513 -0.120722
C27   C     C_R   0.014537 0.620420 0.615794 0.164232
C28   C     C_R   0.835727 0.431331 0.427881 0.158502
C29   C     C_R   0.604890 0.947162 0.574100 -0.174621
C30   C     C_R   0.406946 0.831287 0.375428 -0.142957
C31   C     C_R   0.605474 0.944018 0.480469 -0.053872
C32   C     C_R   0.406530 0.834901 0.469755 -0.081877
C33   C     C_R   0.505489 0.895445 0.383118 0.132812
C34   C     C_R   0.129532 0.701593 0.699624 -0.174313
C35   C     C_R   0.504420 0.904103 0.571873 0.134887
C36   C     C_R   0.134992 0.066006 0.163940 -0.106615
C37   C     C_R   0.036245 0.159392 0.058597 -0.144413
C38   C     C_R   0.042087 0.066511 0.165091 -0.119416
C39   C     C_R   0.128378 0.158033 0.056866 -0.137320
C40   C     C_R   0.410149 0.903060 0.209042 -0.238272
C41   C     C_R   0.593024 0.025994 0.778054 -0.234622
C42   C     C_R   0.985865 0.103071 0.102468 0.104688
C43   C     C_R   0.169656 0.099558 0.098170 0.098416
C44   C     C_R   0.590593 0.293898 0.987696 -0.120666
C45   C     C_R   0.502631 0.928571 0.300171 -0.169296
C46   C     C_R   0.410229 0.684736 0.942443 -0.115452
C47   C     C_R   0.592338 0.990036 0.296469 0.829367
C48   C     C_R   0.409619 0.934926 0.685394 0.754950
C49   C     C_R   0.408371 0.206153 0.899430 -0.127073
C50   C     C_R   0.594098 0.779869 0.027520 -0.087202
C51   C     C_R   0.747837 0.313973 0.221452 -0.230385
C52   C     C_R   0.195252 0.700673 0.790983 -0.242854
C53   C     C_R   0.252397 0.975230 0.067177 -0.092793
C54   C     C_R   0.804633 0.096145 0.005030 -0.115603
C55   C     C_R   0.227708 0.053574 0.053130 0.020852
C56   C     C_R   0.501801 0.948652 0.674236 -0.143724
C57   C     C_R   0.869727 0.067928 0.068128 0.048680
C58   C     C_R   0.499484 0.294179 0.920828 0.065621
C59   C     C_R   0.504806 0.675365 0.960944 0.040108
C60   C     C_R   0.212126 0.090210 0.580759 0.517363
Cl1   Cl    Cl    0.216894 0.987035 0.486116 -0.556152
Cl2   Cl    Cl    0.809185 0.847309 0.394813 -0.567740
Cl3   Cl    Cl    0.985082 0.132278 0.653403 -0.569867
Cl4   Cl    Cl    0.034760 0.819637 0.171637 -0.672422
F1    F     F_    0.774790 0.199619 0.397083 -0.684977
F2    F     F_    0.153567 0.848160 0.656876 -0.669697
F3    F     F_    0.692722 0.998289 0.342880 -0.641791
F4    F     F_    0.303190 0.872612 0.604371 -0.673254
H1    H     H_    0.244116 0.121259 0.943326 0.101087
H2    H     H_    0.988273 0.529105 0.700833 0.132842
H3    H     H_    0.004940 0.689978 0.506916 0.212526
H4    H     H_    0.831021 0.365891 0.538365 0.198108
H5    H     H_    0.683163 0.994213 0.649681 0.151175
H6    H     H_    0.328877 0.786609 0.299761 0.147882
H7    H     H_    0.684292 0.990572 0.489995 0.239230
H8    H     H_    0.328191 0.790925 0.462527 0.204669
H9    H     H_    0.171785 0.029072 0.204938 0.177263
H10   H     H_    0.999302 0.194826 0.015457 0.122732
H11   H     H_    0.009591 0.029094 0.206331 0.144710
H12   H     H_    0.833924 0.982114 0.158047 0.117980
H13   H     H_    0.158359 0.192271 0.012400 0.122975
H14   H     H_    0.325868 0.843999 0.177327 0.164508
H15   H     H_    0.678805 0.058217 0.801531 0.148926
H16   H     H_    0.674844 0.339496 0.008375 0.095746
H17   H     H_    0.325403 0.620018 0.893546 0.105807
H18   H     H_    0.323061 0.174159 0.842489 0.129361
H19   H     H_    0.678992 0.806020 0.051095 0.120616
H20   H     H_    0.755142 0.375246 0.196952 0.144831
H21   H     H_    0.168701 0.647511 0.822447 0.146435
H22   H     H_    0.242364 0.943302 0.120660 0.141179
H23   H     H_    0.384566 0.203485 0.658490 0.170733
H24   H     H_    0.831562 0.157091 0.981882 0.094828
H25   H     H_    0.040240 0.993427 0.524193 0.220420
H26   H     H_    0.985502 0.890799 0.344236 0.212745
H27   H     H_    0.636240 0.677965 0.177574 0.173047
H28   H     H_    0.201993 0.319465 0.789940 0.169068
H29   H     H_    0.812082 0.663095 0.999220 0.177833
H30   H     H_    0.340468 0.476855 0.792232 0.140058
H31   H     H_    0.681042 0.473261 0.986938 0.136835
H32   H     H_    0.849855 0.530370 0.348231 0.133909
N1    N     N_R   0.293810 0.002730 0.945950 -0.046501
N2    N     N_R   0.443210 0.997250 0.791090 -0.109771
N3    N     N_R   0.443180 0.152110 0.945950 -0.050818
N4    N     N_R   0.556820 0.847890 0.054050 -0.047215
N5    N     N_R   0.706170 0.208950 0.152090 -0.075649
N6    N     N_R   0.293830 0.791050 0.847910 -0.081296
N7    N     N_R   0.293800 0.945910 0.002760 -0.047417
N8    N     N_R   0.706200 0.054090 0.997240 -0.042209
N9    N     N_R   0.706190 0.997270 0.054050 -0.048585
N10   N     N_R   0.706160 0.152130 0.208910 -0.105324
N11   N     N_R   0.293840 0.847870 0.791090 -0.121763
N12   N     N_R   0.443140 0.945920 0.152090 -0.086686
N13   N     N_R   0.556860 0.054080 0.847910 -0.076890
N14   N     N_R   0.556830 0.208940 0.002760 -0.042785
N15   N     N_R   0.443170 0.791060 0.997240 -0.044764
N16   N     N_R   0.556790 0.002750 0.208910 -0.123589
Ni1   Ni    Ni4+2 0.369690 0.999990 0.869700 0.288434
Ni2   Ni    Ni4+2 0.630310 0.000010 0.130300 0.293733
Ni3   Ni    Ni4+2 0.369670 0.869670 0.000000 0.200831
Ni4   Ni    Ni4+2 0.630330 0.130330 0.000000 0.193510

loop_
_geom_bond_atom_site_label_1
_geom_bond_atom_site_label_2
_ccdc_geom_bond_type
N1    N7    A    
N5    N10   A    
C50   N4    A    
N6    Ni3   S    
C26   H4    S    
C14   C18   A    
C24   C27   A    
C48   C56   A    
N10   Ni2   S    
C24   H2    S    
C40   N12   A    
C15   C19   A    
C7    H28   S    
C17   F2    S    
C46   N15   A    
C50   C59   A    
C14   C21   A    
C19   C21   A    
C24   C26   A    
C38   C42   A    
C36   H9    S    
C30   H6    S    
C29   H5    S    
C38   H11   S    
C41   H15   S    
C33   C45   S    
N8    N9    A    
C3    H23   S    
N7    Ni3   S    
C37   C42   A    
C2    C13   A    
N8    Ni4   S    
C23   C51   A    
C44   C58   A    
C22   C25   A    
C31   C33   A    
N5    Ni4   S    
C25   H3    S    
C46   H17   S    
C3    C60   A    
C11   H25   S    
C45   C47   A    
C44   N14   A    
C19   C58   S    
C22   C28   A    
C52   H21   S    
N3    Ni1   S    
C17   N11   A    
C42   C57   S    
C47   F3    S    
C12   N9    A    
N9    Ni2   S    
C14   H30   S    
N4    Ni2   S    
N6    N11   A    
C53   C55   A    
C27   C34   S    
C15   C20   A    
C22   H32   S    
C16   N10   A    
C32   C35   A    
C40   H14   S    
N3    N14   A    
C39   H13   S    
C4    C6    A    
C41   N13   A    
C5    C7    A    
C39   C43   A    
C44   H16   S    
C1    H1    S    
C49   C58   A    
C60   Cl1   S    
C2    C4    A    
C8    H29   S    
C41   C56   A    
C54   H24   S    
N4    N15   A    
C49   N3    A    
C53   N7    A    
C31   H7    S    
C51   N5    A    
C48   N2    A    
C23   C28   S    
C48   F4    S    
C9    C11   A    
N2    Ni1   S    
C50   H19   S    
C12   C57   A    
C43   C55   S    
C16   C23   A    
N15   Ni3   S    
C17   C34   A    
C4    H27   S    
C11   C60   A    
C1    N1    A    
N12   N16   A    
C7    C9    A    
C30   C33   A    
C35   C56   S    
C9    Cl3   S    
C34   C52   A    
C49   H18   S    
C8    C10   A    
C10   Cl4   S    
C15   H31   S    
C3    C5    A    
C10   C13   A    
C51   H20   S    
C32   H8    S    
N12   Ni3   S    
C6    C8    A    
C25   C27   A    
C6    C20   S    
C37   H10   S    
C29   C35   A    
C26   C28   A    
C54   N8    A    
C13   H26   S    
N11   Ni1   S    
N1    Ni1   S    
C36   C38   A    
C1    C55   A    
C29   C31   A    
N2    N13   A    
C30   C32   A    
N13   Ni4   S    
C12   H12   S    
C47   N16   A    
N16   Ni2   S    
C18   C20   A    
C52   N6    A    
C18   C59   S    
C5    C21   S    
C40   C45   A    
C46   C59   A    
C37   C39   A    
C53   H22   S    
C36   C43   A    
C16   F1    S    
N14   Ni4   S    
C2    Cl2   S    
C54   C57   A    
