data_mof_unit_3790.cif
_audit_creation_date              2013-03-05T16:40:33-0500
_audit_creation_method            fapswitch 2.2
_symmetry_space_group_name_H-M    P1
_symmetry_Int_Tables_number       1
_space_group_crystal_system       triclinic
_cell_length_a                    17.75627
_cell_length_b                    16.585551
_cell_length_c                    10.983719
_cell_angle_alpha                 90.000038
_cell_angle_beta                  95.524055
_cell_angle_gamma                 90.000022
_cell_volume                      3219.65576159

loop_
_atom_site_label
_atom_site_type_symbol
_atom_site_description
_atom_site_fract_x
_atom_site_fract_y
_atom_site_fract_z
_atom_type_partial_charge
O1    O     O_R   0.391260 0.567930 0.500000 -0.588574
O2    O     O_R   0.608740 0.567930 0.500000 -0.588574
O3    O     O_R   0.391280 0.432120 0.500000 -0.584044
O4    O     O_R   0.608720 0.432120 0.500000 -0.584043
C1    C     C_R   0.356346 0.500193 0.513016 0.806605
C2    C     C_R   0.643654 0.500193 0.486984 0.806606
O5    O     O_R   0.500000 0.567920 0.319650 -0.599829
O6    O     O_R   0.500000 0.567920 0.680350 -0.599829
O7    O     O_R   0.500030 0.432100 0.319660 -0.550546
O8    O     O_R   0.499970 0.432100 0.680340 -0.550546
C3    C     C_R   0.504999 0.499896 0.262734 0.818406
C4    C     C_R   0.495001 0.499897 0.737266 0.818407
Cu1   Cu    Cu3+1 0.500000 0.580420 0.500000 0.910469
Cu2   Cu    Cu3+1 0.500000 0.419580 0.500000 0.982356
C5    C     C_R   0.537832 0.646231 0.116540 -0.164440
C6    C     C_R   0.462169 0.646231 0.883460 -0.164441
H1    H     H_    0.571679 0.647117 0.203709 0.167173
H2    H     H_    0.428321 0.647117 0.796291 0.167173
C7    C     C_R   0.521927 0.719855 0.056896 0.179739
C8    C     C_R   0.478073 0.719855 0.943105 0.179739
C9    C     C_R   0.487630 0.572539 0.937288 0.017439
C10   C     C_R   0.512370 0.572539 0.062713 0.017440
C11   C     C_R   0.510445 0.499229 0.129063 -0.283065
C12   C     C_R   0.489555 0.499229 0.870937 -0.283065
C13   C     C_R   0.502960 0.425504 0.063740 0.247641
C14   C     C_R   0.497040 0.425504 0.936260 0.247642
C15   C     C_R   0.848655 0.567526 0.495252 0.157204
C16   C     C_R   0.151345 0.567526 0.504748 0.157204
C17   C     C_R   0.769080 0.572460 0.474237 0.127557
C18   C     C_R   0.230920 0.572460 0.525763 0.127557
C19   C     C_R   0.725690 0.500365 0.464463 -0.149755
C20   C     C_R   0.274310 0.500365 0.535537 -0.149755
C21   C     C_R   0.762305 0.428023 0.433365 0.077700
C22   C     C_R   0.237695 0.428023 0.566635 0.077701
C23   C     C_R   0.842144 0.422796 0.450905 0.150243
C24   C     C_R   0.157856 0.422796 0.549095 0.150243
C25   C     C_R   0.884565 0.492505 0.484036 0.034372
C26   C     C_R   0.115435 0.492504 0.515964 0.034372
C27   C     C_1   0.966051 0.489048 0.495624 -0.007105
C28   C     C_1   0.033949 0.489048 0.504376 -0.007105
C29   C     C_R   0.545111 0.830945 0.589701 0.028431
C30   C     C_R   0.454888 0.830944 0.410300 0.028429
C31   C     C_R   0.546193 0.744469 0.586896 0.310833
C32   C     C_R   0.453806 0.744468 0.413104 0.310833
N1    N     N_R   0.500000 0.701220 0.500000 -0.203584
C33   C     C_R   0.499999 0.874069 0.500000 0.024746
C34   C     C_1   0.499999 0.963469 0.500001 0.042467
C35   C     C_1   0.499999 0.037250 0.500001 0.169229
C36   C     C_R   0.559657 0.169591 0.561665 0.239302
C37   C     C_R   0.440341 0.169591 0.438337 0.239298
C38   C     C_R   0.557548 0.255534 0.565678 0.218562
C39   C     C_R   0.442451 0.255534 0.434323 0.218559
N2    N     N_R   0.500000 0.298780 0.500000 -0.188641
C40   C     C_R   0.499999 0.126245 0.500001 -0.148993
N3    N     N_R   0.501458 0.348940 0.124578 0.163982
O9    O     O_R   0.444454 0.300694 0.098336 -0.315299
O10   O     O_R   0.563607 0.319713 0.179601 -0.335802
N4    N     N_R   0.498542 0.348940 0.875421 0.163982
O11   O     O_R   0.555547 0.300694 0.901663 -0.315298
O12   O     O_R   0.436393 0.319713 0.820399 -0.335802
N5    N     N_R   0.622376 0.126294 0.622831 0.124283
O13   O     O_R   0.611834 0.077581 0.712414 -0.347343
O14   O     O_R   0.690407 0.137257 0.591322 -0.359222
N6    N     N_R   0.377621 0.126294 0.377171 0.124289
O15   O     O_R   0.309588 0.137269 0.408663 -0.359226
O16   O     O_R   0.388163 0.077574 0.287598 -0.347349
C41   C     C_3   0.619947 0.295976 0.647176 -0.570152
H3    H     H_    0.672094 0.299998 0.600210 0.202277
H4    H     H_    0.605660 0.355802 0.679541 0.247194
H5    H     H_    0.633849 0.260288 0.731711 0.252702
C42   C     C_3   0.380053 0.295977 0.352823 -0.570141
H6    H     H_    0.366152 0.260289 0.268288 0.252703
H7    H     H_    0.327906 0.300000 0.399788 0.202280
H8    H     H_    0.394341 0.355803 0.320458 0.247192
C43   C     C_3   0.550221 0.797250 0.116709 -0.846026
H9    H     H_    0.580086 0.786658 0.208920 0.229326
H10   H     H_    0.590206 0.826954 0.059199 0.244872
H11   H     H_    0.502120 0.838383 0.126932 0.248831
C44   C     C_3   0.449780 0.797250 0.883292 -0.846028
H12   H     H_    0.419915 0.786659 0.791081 0.229326
H13   H     H_    0.409794 0.826954 0.940802 0.244872
H14   H     H_    0.497880 0.838383 0.873069 0.248831
C45   C     C_3   0.896029 0.641743 0.529683 -0.848724
H15   H     H_    0.936895 0.628386 0.610145 0.232583
H16   H     H_    0.927499 0.659971 0.451590 0.236149
H17   H     H_    0.861923 0.693534 0.556872 0.243193
C46   C     C_3   0.103971 0.641743 0.470319 -0.848723
H18   H     H_    0.063104 0.628387 0.389856 0.232583
H19   H     H_    0.072502 0.659971 0.548412 0.236149
H20   H     H_    0.138077 0.693534 0.443129 0.243193
C47   C     C_3   0.733061 0.653439 0.441895 -0.797762
H21   H     H_    0.771417 0.691760 0.392545 0.229567
H22   H     H_    0.681796 0.647266 0.376471 0.234959
H23   H     H_    0.719873 0.685094 0.525622 0.236512
C48   C     C_3   0.266939 0.653438 0.558106 -0.797762
H24   H     H_    0.228583 0.691760 0.607456 0.229567
H25   H     H_    0.318204 0.647266 0.623530 0.234959
H26   H     H_    0.280127 0.685094 0.474379 0.236511
C49   C     C_3   0.718610 0.362883 0.360434 -0.708832
H27   H     H_    0.662147 0.384028 0.322755 0.265293
H28   H     H_    0.748164 0.346926 0.279101 0.236122
H29   H     H_    0.713155 0.307938 0.415982 0.239484
C50   C     C_3   0.281390 0.362883 0.639564 -0.708835
H30   H     H_    0.337852 0.384027 0.677244 0.265293
H31   H     H_    0.251835 0.346926 0.720898 0.236122
H32   H     H_    0.286845 0.307938 0.584016 0.239485
C51   C     C_3   0.883277 0.343981 0.433620 -0.810399
H33   H     H_    0.845089 0.291349 0.419427 0.251196
H34   H     H_    0.916955 0.348997 0.353857 0.232600
H35   H     H_    0.922031 0.330686 0.516685 0.233728
C52   C     C_3   0.116722 0.343981 0.566379 -0.810398
H36   H     H_    0.154910 0.291348 0.580572 0.251197
H37   H     H_    0.083045 0.348997 0.646142 0.232600
H38   H     H_    0.077969 0.330686 0.483314 0.233728
C53   C     C_3   0.592896 0.879765 0.685961 -0.768921
H39   H     H_    0.621423 0.844534 0.762352 0.223095
H40   H     H_    0.636975 0.913323 0.641620 0.268315
H41   H     H_    0.556409 0.923721 0.728883 0.258711
C54   C     C_3   0.407104 0.879765 0.314039 -0.768918
H42   H     H_    0.378577 0.844534 0.237648 0.223094
H43   H     H_    0.363024 0.913322 0.358380 0.268316
H44   H     H_    0.443590 0.923721 0.271117 0.258713
C55   C     C_3   0.600420 0.703386 0.682260 -0.758661
H45   H     H_    0.657881 0.729189 0.680747 0.189557
H46   H     H_    0.581845 0.713433 0.774292 0.220168
H47   H     H_    0.608220 0.638887 0.672389 0.274566
C56   C     C_3   0.399580 0.703386 0.317740 -0.758661
H48   H     H_    0.342119 0.729188 0.319253 0.189557
H49   H     H_    0.418155 0.713433 0.225708 0.220168
H50   H     H_    0.391780 0.638886 0.327611 0.274565

loop_
_geom_bond_atom_site_label_1
_geom_bond_atom_site_label_2
_geom_bond_distance
_ccdc_geom_bond_type
Cu1   N1    2.003533 S    
C46   H18   1.110503 S    
C32   C56   1.514711 S    
C6    C9    1.412911 A    
C15   C17   1.411957 A    
C37   N6    1.436402 S    
C48   H24   1.110266 S    
N3    O9    1.300661 A    
C44   H14   1.107219 S    
C48   H26   1.103491 S    
C55   H45   1.108012 S    
C39   N2    1.391804 A    
C35   C40   1.476039 S    
C37   C40   1.399840 A    
O1    C1    1.297680 A    
C23   C25   1.408445 A    
C12   C14   1.417489 A    
C30   C54   1.523389 S    
C55   H46   1.105700 S    
N4    O12   1.299848 A    
C53   H39   1.104626 S    
C30   C33   1.404267 A    
N5    O14   1.300981 A    
O2    Cu1   1.941896 S    
C43   H9    1.111065 S    
C14   N4    1.436381 S    
C5    C10   1.412911 A    
C45   H15   1.110502 S    
C16   C18   1.411957 A    
C53   H40   1.110369 S    
C49   H29   1.106103 S    
C37   C39   1.426700 A    
C29   C33   1.404266 A    
C19   C21   1.421872 A    
C18   C20   1.420910 A    
C15   C45   1.518071 S    
C8    C44   1.506044 S    
C6    C8    1.401569 A    
O7    C3    1.293728 A    
C1    C20   1.500803 S    
C2    C19   1.500803 S    
Cu1   Cu2   2.667622 S    
C29   C31   1.434755 A    
C52   H38   1.110703 S    
O2    C2    1.297680 A    
C30   C32   1.434756 A    
C16   C46   1.518069 S    
O5    C3    1.297007 A    
C54   H43   1.110370 S    
C25   C27   1.441367 S    
C36   N5    1.436400 S    
C29   C53   1.523391 S    
C41   H3    1.104479 S    
C34   C35   1.223695 T    
O4    C2    1.302681 A    
O8    Cu2   1.991709 S    
C47   H21   1.110266 S    
C44   H13   1.110036 S    
C21   C49   1.513669 S    
C55   H47   1.085453 S    
C36   C38   1.426696 A    
N4    O11   1.300661 A    
C50   H31   1.110752 S    
C38   N2    1.391801 A    
N6    O16   1.300530 A    
C5    C7    1.401570 A    
O7    Cu2   1.991711 S    
C56   H49   1.105700 S    
C18   C48   1.515032 S    
C47   H22   1.108849 S    
C43   H10   1.110036 S    
C49   H27   1.104312 S    
C16   C26   1.408928 A    
O6    C4    1.297008 A    
C53   H41   1.110082 S    
Cu2   N2    2.003533 S    
C24   C52   1.518202 S    
C52   H37   1.110366 S    
C38   C41   1.512565 S    
C31   N1    1.395534 A    
O3    Cu2   1.941633 S    
O8    C4    1.293727 A    
C49   H28   1.110753 S    
N3    O10   1.299849 A    
C51   H35   1.110703 S    
C9    C12   1.419662 A    
O1    Cu1   1.941898 S    
C51   H33   1.107140 S    
C56   H48   1.108013 S    
C31   C55   1.514711 S    
C17   C47   1.515033 S    
C32   N1    1.395535 A    
C42   H7    1.104480 S    
C7    C43   1.506043 S    
C54   H44   1.110082 S    
C5    H1    1.080427 S    
C33   C34   1.482740 S    
C52   H36   1.107139 S    
C45   H16   1.109797 S    
C13   N3    1.436382 S    
O3    C1    1.302682 A    
C42   H8    1.092081 S    
C54   H42   1.104627 S    
C48   H25   1.108848 S    
C4    C12   1.480682 S    
C22   C50   1.513669 S    
C41   H5    1.108739 S    
N6    O15   1.300975 A    
C7    C8    1.407516 A    
C46   H19   1.109797 S    
C13   C14   1.394025 A    
C56   H50   1.085452 S    
C42   H6    1.108739 S    
C17   C19   1.420911 A    
C39   C42   1.512565 S    
C24   C26   1.408445 A    
C26   C28   1.441367 S    
C51   H34   1.110366 S    
C15   C25   1.408928 A    
C3    C11   1.480681 S    
C21   C23   1.414840 A    
C50   H32   1.106101 S    
C22   C24   1.414842 A    
C11   C13   1.417490 A    
O4    Cu2   1.941633 S    
N5    O13   1.300536 A    
C43   H11   1.107219 S    
C23   C51   1.518201 S    
C44   H12   1.111064 S    
C27   C28   1.200176 T    
O6    Cu1   1.991733 S    
O5    Cu1   1.991734 S    
C45   H17   1.108417 S    
C6    H2    1.080427 S    
C46   H20   1.108420 S    
C50   H30   1.104314 S    
C10   C11   1.419662 A    
C41   H4    1.092082 S    
C9    C10   1.405113 A    
C36   C40   1.399838 A    
C20   C22   1.421872 A    
C47   H23   1.103491 S    
