data_mof_unit_3869.cif
_audit_creation_date              2013-03-05T16:07:57-0500
_audit_creation_method            fapswitch 2.2
_symmetry_space_group_name_H-M    P1
_symmetry_Int_Tables_number       1
_space_group_crystal_system       triclinic
_cell_length_a                    6.949029
_cell_length_b                    14.535342
_cell_length_c                    16.007658
_cell_angle_alpha                 90.221398
_cell_angle_beta                  89.992218
_cell_angle_gamma                 89.969198
_cell_volume                      1616.86539703

loop_
_atom_site_label
_atom_site_type_symbol
_atom_site_description
_atom_site_fract_x
_atom_site_fract_y
_atom_site_fract_z
_atom_type_partial_charge
O1    O     O_R   0.494380 0.415640 0.412830 -0.592434
O2    O     O_R   0.823960 0.405540 0.586560 -0.562325
O3    O     O_R   0.994270 0.584360 0.587170 -0.602862
C1    C     C_R   0.655189 0.382796 0.614659 0.956693
O4    O     O_R   0.824090 0.404620 0.413450 -0.594204
O5    O     O_R   0.994400 0.583430 0.412820 -0.587456
C2    C     C_R   0.655266 0.382171 0.384702 0.956570
O6    O     O_R   0.494250 0.416570 0.587180 -0.608039
O7    O     O_3   0.660800 0.558670 0.500000 -0.275986
V1    V     V_3+5 0.935650 0.489120 0.500000 1.201302
O8    O     O_R   0.324110 0.594460 0.413440 -0.600164
C3    C     C_R   0.154894 0.616323 0.384519 0.959675
O9    O     O_R   0.323980 0.595380 0.586550 -0.600551
C4    C     C_R   0.155033 0.617306 0.615771 0.868633
V2    V     V_3+5 0.435660 0.510880 0.500000 1.170638
O10   O     O_3   0.160640 0.441330 0.500000 -0.242007
C5    C     C_3   0.000090 0.655166 0.755173 -0.366287
H1    H     H_    0.853838 0.644885 0.728596 0.142834
H2    H     H_    0.047175 0.587344 0.779935 0.135774
C6    C     C_3   0.988829 0.725732 0.827967 -0.364382
H3    H     H_    0.030595 0.691767 0.887453 0.129307
H4    H     H_    0.837262 0.749331 0.835026 0.156399
H5    H     H_    0.910053 0.879716 0.734128 0.146457
C7    C     C_3   0.080117 0.784728 0.653694 -0.183083
C8    C     C_3   0.342280 0.699845 0.729391 -0.360776
C9    C     C_3   0.143043 0.687742 0.686352 0.029249
H6    H     H_    0.451221 0.722513 0.683011 0.157040
H7    H     H_    0.392273 0.632858 0.754982 0.143043
C10   C     C_3   0.122815 0.809160 0.811498 0.119977
C11   C     C_3   0.060549 0.854105 0.727966 -0.425030
C12   C     C_3   0.331533 0.771806 0.800621 -0.336173
H8    H     H_    0.381431 0.739914 0.859899 0.138504
H9    H     H_    0.431613 0.829398 0.786195 0.159103
H10   H     H_    0.196229 0.810334 0.611710 0.158245
H11   H     H_    0.152003 0.915403 0.715500 0.162732
C13   C     C_R   0.262194 0.821365 0.245212 0.118577
C14   C     C_R   0.117539 0.816540 0.184267 -0.252371
C15   C     C_R   0.970268 0.751237 0.196860 -0.095434
H12   H     H_    0.851548 0.746492 0.153349 0.112417
C16   C     C_R   0.981116 0.687209 0.262753 -0.161049
H13   H     H_    0.870105 0.635349 0.267938 0.116501
C17   C     C_R   0.140058 0.686253 0.317693 -0.198685
C18   C     C_R   0.274072 0.757389 0.309410 0.178148
C19   C     C_3   0.488493 0.756260 0.308109 -0.570135
C20   C     C_3   0.476466 0.827399 0.238344 0.172632
H14   H     H_    0.545914 0.688859 0.286702 0.163055
H15   H     H_    0.551422 0.782562 0.367430 0.256434
H16   H     H_    0.533309 0.803414 0.177097 0.064102
C21   C     C_R   0.503601 0.244316 0.682466 0.114376
C22   C     C_R   0.648247 0.311416 0.680223 -0.246054
C23   C     C_R   0.795800 0.304709 0.740457 -0.107303
H17   H     H_    0.914736 0.352719 0.739786 0.107859
C24   C     C_R   0.784495 0.239899 0.805700 -0.177128
H18   H     H_    0.895695 0.239485 0.853024 0.123958
C25   C     C_R   0.624660 0.180599 0.812822 -0.202733
C26   C     C_R   0.490947 0.181704 0.747586 0.153674
C27   C     C_3   0.276439 0.182512 0.747460 -0.601559
C28   C     C_3   0.289637 0.249959 0.674620 0.189797
H19   H     H_    0.217481 0.214213 0.805268 0.176084
H20   H     H_    0.214760 0.114227 0.731041 0.226588
H21   H     H_    0.230636 0.319547 0.688175 0.062157
C29   C     C_R   0.491708 0.315016 0.258104 0.142285
C30   C     C_R   0.647058 0.316015 0.313922 -0.221062
C31   C     C_R   0.798858 0.254082 0.298143 -0.128332
H22   H     H_    0.921516 0.252058 0.339532 0.165626
C32   C     C_R   0.787765 0.189702 0.232212 -0.078139
H23   H     H_    0.902906 0.140324 0.224591 0.156256
C33   C     C_R   0.624127 0.184974 0.180261 -0.218338
C34   C     C_R   0.480231 0.250993 0.193123 0.131037
C35   C     C_3   0.269882 0.237522 0.206056 -0.458581
C36   C     C_3   0.282212 0.307614 0.276455 -0.433666
H24   H     H_    0.236134 0.166891 0.228009 0.219759
H25   H     H_    0.183654 0.261745 0.151947 0.177176
H26   H     H_    0.254746 0.277887 0.339226 0.227617
H27   H     H_    0.203868 0.372571 0.262913 0.168733
O11   O     O_R   0.771490 0.080820 0.910070 -0.596111
O12   O     O_R   0.441590 0.092730 0.083780 -0.596719
O13   O     O_R   0.271350 0.913900 0.084390 -0.603983
C37   C     C_R   0.610580 0.114845 0.112845 1.010847
O14   O     O_R   0.441780 0.091820 0.910670 -0.596833
O15   O     O_R   0.271540 0.912980 0.910040 -0.598526
C38   C     C_R   0.610930 0.114082 0.882222 0.931734
O16   O     O_R   0.771300 0.081740 0.084420 -0.588782
O17   O     O_3   0.604960 0.938700 0.997240 -0.279530
V3    V     V_3+5 0.330090 0.008230 0.997220 1.155980
O18   O     O_R   0.941820 0.901930 0.910640 -0.602593
C39   C     C_R   0.111142 0.878986 0.882314 0.857029
O19   O     O_R   0.941630 0.902840 0.083750 -0.563287
C40   C     C_R   0.110369 0.881386 0.113033 0.970204
V4    V     V_3+5 0.830090 0.986410 0.997190 1.169932
O20   O     O_3   0.105080 0.055990 0.997200 -0.278806
N1    N     N_R   0.550504 0.917346 0.264267 0.260279
O21   O     O_R   0.467656 0.964140 0.323784 -0.353735
O22   O     O_R   0.711240 0.947183 0.232975 -0.400373
N2    N     N_R   0.220928 0.210202 0.595907 0.260000
O23   O     O_R   0.291061 0.133073 0.567523 -0.361239
O24   O     O_R   0.085028 0.251111 0.554414 -0.371482
C41   C     C_2   0.896313 0.781795 0.603360 0.585327
H28   H     H_    0.761830 0.762860 0.632855 -0.013572
O25   O     O_2   0.897373 0.801068 0.529190 -0.560459

loop_
_geom_bond_atom_site_label_1
_geom_bond_atom_site_label_2
_geom_bond_distance
_ccdc_geom_bond_type
C8    C12   1.546106 S    
C32   C33   1.410412 A    
C25   C26   1.398037 A    
C24   C25   1.411158 A    
N2    O23   1.302398 A    
C1    O6    1.298632 A    
V3    O20   1.710440 S    
C24   H18   1.082229 S    
C8    H7    1.113253 S    
C10   C11   1.551967 S    
C11   H11   1.113322 S    
C7    C41   1.510781 S    
C5    C9    1.558507 S    
C13   C14   1.402483 A    
C15   C16   1.411374 A    
C14   C15   1.411170 A    
C7    C9    1.567458 S    
O5    C3    1.296067 A    
C15   H12   1.081815 S    
C27   H19   1.110362 S    
V2    O10   2.162510 S    
C5    C6    1.551343 S    
C26   C27   1.490666 S    
C20   N1    1.463834 S    
C3    C17   1.482042 S    
O8    V2    2.002254 S    
C33   C34   1.400185 A    
C37   O16   1.297509 A    
C12   H9    1.113479 S    
C35   C36   1.518710 S    
O1    V2    2.003581 S    
O7    V1    2.160506 S    
C19   H15   1.112020 S    
C33   C37   1.484640 S    
C16   C17   1.412049 A    
C32   H23   1.081142 S    
O12   V3    2.004250 S    
O9    C4    1.302684 A    
O17   V4    1.711592 S    
C35   H25   1.111539 S    
C19   H14   1.110580 S    
C22   C23   1.411183 A    
C6    C10   1.552586 S    
O12   C37   1.303158 A    
O13   C40   1.298884 A    
C23   H17   1.082065 S    
H5    C11   1.114128 S    
O17   V3    2.160493 S    
O14   C38   1.301969 A    
O18   V4    2.003926 S    
O11   C38   1.295589 A    
O4    C2    1.301520 A    
O18   C39   1.303658 A    
C27   H20   1.111934 S    
C8    C9    1.556293 S    
C7    H10   1.115052 S    
C21   C28   1.494388 S    
C29   C34   1.395351 A    
C1    C22   1.479443 S    
C23   C24   1.411381 A    
C31   C32   1.409961 A    
O2    C1    1.299414 A    
C28   N2    1.464372 S    
O14   V3    2.002967 S    
C12   H8    1.113036 S    
C6    H3    1.112776 S    
C29   C30   1.401481 A    
N1    O22   1.299481 A    
C5    H1    1.111761 S    
C13   C20   1.495664 S    
C4    C9    1.524005 S    
C25   C38   1.478655 S    
C2    C30   1.484365 S    
O15   C39   1.297117 A    
O3    C4    1.298451 A    
O13   V3    2.002229 S    
C16   H13   1.082256 S    
O19   V4    2.002137 S    
C41   H28   1.083122 S    
O6    V2    2.001706 S    
C41   O25   1.220976 D    
O9    V2    2.003966 S    
C18   C19   1.490239 S    
C17   C18   1.398583 A    
V4    O20   2.162528 S    
O2    V1    2.002989 S    
C19   C20   1.527176 S    
C20   H16   1.111719 S    
O16   V4    2.005244 S    
O1    C2    1.298813 A    
C6    H4    1.113116 S    
O5    V1    2.002158 S    
C36   H26   1.111835 S    
O8    C3    1.303418 A    
N2    O24   1.299698 A    
C8    H6    1.111252 S    
C21   C26   1.389250 A    
C14   C40   1.483036 S    
C31   H22   1.080098 S    
O7    V2    1.712125 S    
O4    V1    2.004301 S    
C10   C12   1.557906 S    
O3    V1    2.003819 S    
V1    O10   1.710489 S    
C36   H27   1.111715 S    
C27   C28   1.529031 S    
C28   H21   1.111807 S    
N1    O21   1.302366 A    
C5    H2    1.112987 S    
C29   C36   1.489121 S    
C34   C35   1.489418 S    
C7    C11   1.561901 S    
C10   C39   1.520772 S    
C30   C31   1.408567 A    
O19   C40   1.301073 A    
C21   C22   1.401500 A    
C13   C18   1.391030 A    
C35   H24   1.111541 S    
O15   V3    2.003931 S    
O11   V4    2.002048 S    
