data_mof_unit_4350.cif
_audit_creation_date              2013-03-05T15:40:17-0500
_audit_creation_method            fapswitch 2.2
_symmetry_space_group_name_H-M    P1
_symmetry_Int_Tables_number       1
_space_group_crystal_system       triclinic
_cell_length_a                    10.73402
_cell_length_b                    8.684275
_cell_length_c                    7.493951
_cell_angle_alpha                 103.262241
_cell_angle_beta                  94.392966
_cell_angle_gamma                 92.797329
_cell_volume                      676.349413878

loop_
_atom_site_label
_atom_site_type_symbol
_atom_site_description
_atom_site_fract_x
_atom_site_fract_y
_atom_site_fract_z
_atom_type_partial_charge
O1    O     O_R   0.509050 0.286130 0.619770 -0.588361
O2    O     O_R   0.485540 0.256780 0.308360 -0.591264
C1    C     C_R   0.495863 0.199754 0.453094 0.854820
O3    O     O_R   0.331410 0.514680 0.655740 -0.614572
O4    O     O_R   0.307900 0.485330 0.344330 -0.587471
C2    C     C_R   0.263048 0.504720 0.502624 0.764167
Cu1   Cu    Cu3+1 0.513920 0.517380 0.684380 1.019386
Cu2   Cu    Cu3+1 0.486080 0.482620 0.315620 1.016643
O5    O     O_R   0.514460 0.743220 0.691640 -0.594270
O6    O     O_R   0.490950 0.713870 0.380230 -0.544852
O7    O     O_R   0.692100 0.514670 0.655670 -0.551699
O8    O     O_R   0.668590 0.485320 0.344260 -0.531317
C3    C     C_R   0.503852 0.800245 0.546947 0.853363
C4    C     C_R   0.737283 0.506664 0.499167 0.782708
H1    H     H_    0.094078 0.299197 0.293019 0.145664
C5    C     C_R   0.152730 0.772186 0.737208 -0.173169
H2    H     H_    0.253665 0.778675 0.741128 0.151639
C6    C     C_R   0.098193 0.898220 0.847392 -0.146264
H3    H     H_    0.156806 0.995787 0.934699 0.135851
C7    C     C_R   0.968537 0.900162 0.843137 -0.105955
H4    H     H_    0.926540 0.999236 0.927110 0.146247
C8    C     C_R   0.892653 0.776129 0.728574 -0.103511
H5    H     H_    0.792503 0.785621 0.725242 0.152502
C9    C     C_R   0.945909 0.645590 0.617956 0.088129
C10   C     C_R   0.077623 0.643521 0.622441 0.089545
C11   C     C_R   0.129744 0.515027 0.506672 -0.084183
C12   C     C_R   0.053663 0.395968 0.383856 -0.197324
H6    H     H_    0.867695 0.302154 0.286954 0.160211
C13   C     C_R   0.925307 0.398019 0.379539 -0.148525
C14   C     C_R   0.871369 0.519087 0.498162 -0.068471
C15   C     C_2   0.493151 0.031473 0.427215 -0.323810
H7    H     H_    0.480578 0.959147 0.287137 0.203113
C16   C     C_2   0.505853 0.968499 0.572961 -0.365360
H8    H     H_    0.518024 0.040850 0.713088 0.183183
N1    N     N_2   0.465100 0.456430 0.038520 -0.204639
H9    H     H_    0.388650 0.397562 0.955117 0.192980
N2    N     N_2   0.534900 0.543570 0.961480 0.020971
N3    N     N_R   0.647949 0.607082 0.058199 0.293064
O9    O     O_R   0.661878 0.758844 0.129676 -0.384378
O10   O     O_R   0.747727 0.529547 0.026263 -0.344792

loop_
_geom_bond_atom_site_label_1
_geom_bond_atom_site_label_2
_geom_bond_distance
_ccdc_geom_bond_type
O4    Cu2   1.941633 S    
Cu1   O7    1.941634 S    
C15   C16   1.330081 D    
C3    C16   1.427960 S    
C13   C14   1.392938 A    
C12   C13   1.376758 A    
H1    C12   1.084516 S    
C15   H7    1.087285 S    
Cu2   O8    1.952781 S    
O2    C1    1.291257 A    
Cu1   N2    2.030090 S    
Cu1   Cu2   2.701689 S    
C5    C6    1.394415 A    
C9    C10   1.412739 A    
C1    C15   1.427968 S    
C11   C12   1.396017 A    
C2    C11   1.440242 S    
C4    C14   1.438789 S    
O3    Cu1   1.952780 S    
C8    C9    1.415546 A    
O3    C2    1.296862 A    
H6    C13   1.084391 S    
N3    O10   1.301331 A    
N2    N3    1.385125 S    
C7    C8    1.394175 A    
C16   H8    1.087573 S    
C6    C7    1.390666 A    
O4    C2    1.292699 A    
O7    C4    1.291740 A    
C9    C14   1.415865 A    
N3    O9    1.300322 A    
C7    H4    1.082765 S    
Cu2   O6    1.951904 S    
C6    H3    1.082767 S    
C5    C10   1.415299 A    
Cu1   O5    1.949205 S    
O5    C3    1.291094 A    
C8    H5    1.080996 S    
N1    N2    1.295652 D    
C10   C11   1.414910 A    
O1    Cu1   1.951905 S    
Cu2   N1    2.030090 S    
O2    Cu2   1.949207 S    
N1    H9    1.029214 S    
O8    C4    1.297099 A    
C5    H2    1.079942 S    
O1    C1    1.294422 A    
O6    C3    1.294655 A    
