data_mof_unit_3339.cif
_audit_creation_date              2013-03-05T16:12:28-0500
_audit_creation_method            fapswitch 2.2
_symmetry_space_group_name_H-M    P1
_symmetry_Int_Tables_number       1
_space_group_crystal_system       triclinic
_cell_length_a                    10.661086
_cell_length_b                    9.993202
_cell_length_c                    23.50113
_cell_angle_alpha                 90.059132
_cell_angle_beta                  93.350029
_cell_angle_gamma                 90.219511
_cell_volume                      2499.47362162

loop_
_atom_site_label
_atom_site_type_symbol
_atom_site_description
_atom_site_fract_x
_atom_site_fract_y
_atom_site_fract_z
_atom_type_partial_charge
O1    O     O_R   0.316770 0.614620 0.500000 -0.622596
O2    O     O_R   0.683230 0.385380 0.500000 -0.623483
O3    O     O_R   0.683230 0.614620 0.500000 -0.625043
O4    O     O_R   0.316770 0.385380 0.500000 -0.625765
C1    C     C_R   0.261272 0.499409 0.506757 0.885475
C2    C     C_R   0.738661 0.499994 0.493126 0.890090
O5    O     O_R   0.499970 0.614690 0.416160 -0.615788
O6    O     O_R   0.500030 0.385310 0.583840 -0.621679
O7    O     O_R   0.500030 0.614690 0.583840 -0.615758
O8    O     O_R   0.499970 0.385310 0.416160 -0.626662
C3    C     C_R   0.497717 0.499416 0.389573 0.889815
C4    C     C_R   0.502398 0.499754 0.610346 0.881937
Zn1   Zn    Zn3+2 0.500000 0.653120 0.500000 0.928035
Zn2   Zn    Zn3+2 0.500000 0.346880 0.500000 0.918357
C5    C     C_R   0.622201 0.504972 0.886617 0.581706
C6    C     C_R   0.384538 0.510477 0.114013 0.571157
N1    N     N_R   0.513027 0.517611 0.853076 -0.331633
N2    N     N_R   0.493174 0.531544 0.147182 -0.339805
C7    C     C_R   0.400058 0.538676 0.876809 0.571496
C8    C     C_R   0.604625 0.558682 0.123074 0.570220
C9    C     C_R   0.392668 0.535019 0.935891 -0.014221
C10   C     C_R   0.612413 0.549441 0.064100 -0.022265
C11   C     C_R   0.504889 0.532366 0.970324 -0.008960
C12   C     C_R   0.500597 0.535894 0.029822 -0.009913
C13   C     C_R   0.621340 0.523895 0.945493 -0.012822
C14   C     C_R   0.384619 0.523535 0.054868 -0.012050
C15   C     C_R   0.276578 0.532151 0.961227 -0.134051
C16   C     C_R   0.728546 0.550398 0.038786 -0.132636
C17   C     C_R   0.272682 0.521511 0.020253 -0.135852
C18   C     C_R   0.733116 0.532664 0.980057 -0.136813
O9    O     O_2   0.730825 0.473608 0.863126 -0.531269
O10   O     O_2   0.277325 0.475665 0.138120 -0.529308
O11   O     O_2   0.295170 0.561368 0.843277 -0.532112
O12   O     O_2   0.707675 0.592138 0.156192 -0.506480
H1    H     H_    0.188893 0.532768 0.935505 0.198526
H2    H     H_    0.815977 0.559204 0.064430 0.199116
H3    H     H_    0.182121 0.514181 0.038679 0.191985
H4    H     H_    0.823946 0.528583 0.961751 0.191202
C19   C     C_R   0.569869 0.424617 0.237111 0.033458
C20   C     C_R   0.436752 0.413164 0.762125 0.008289
C21   C     C_R   0.577586 0.422005 0.297160 0.048678
C22   C     C_R   0.420220 0.423454 0.702359 0.033577
C23   C     C_R   0.490205 0.497475 0.326963 -0.063437
C24   C     C_R   0.508892 0.498279 0.672784 -0.057216
C25   C     C_R   0.395191 0.571175 0.296643 0.025515
C26   C     C_R   0.606778 0.568165 0.703401 0.024586
C27   C     C_R   0.407676 0.597653 0.238520 0.016079
C28   C     C_R   0.596924 0.589859 0.762026 0.011570
C29   C     C_R   0.491559 0.519574 0.208222 0.072726
C30   C     C_R   0.515996 0.506714 0.791997 0.082562
C31   C     C_R   0.061120 0.374552 0.509627 0.149173
C32   C     C_R   0.939281 0.621483 0.489732 0.141020
C33   C     C_R   0.937353 0.376037 0.487485 0.150029
C34   C     C_R   0.062067 0.619994 0.512883 0.140991
C35   C     C_R   0.872807 0.499367 0.485039 -0.161516
C36   C     C_R   0.127122 0.497437 0.514829 -0.161163
C37   C     C_R   0.576023 0.072433 0.538634 0.196419
C38   C     C_R   0.423505 0.928579 0.461736 0.204984
C39   C     C_R   0.424343 0.071782 0.461245 0.191435
C40   C     C_R   0.576225 0.929220 0.538382 0.201934
N3    N     N_R   0.500000 0.857200 0.500000 -0.114797
N4    N     N_R   0.500000 0.142800 0.500000 -0.118887
C41   C     C_2   0.638664 0.325976 0.203568 0.934981
O13   O     O_2   0.579607 0.243525 0.174235 -0.594378
O14   O     O_R   0.769746 0.330986 0.203476 -0.756929
H5    H     H_    0.804934 0.259924 0.178110 0.356628
C42   C     C_2   0.375478 0.304212 0.794064 0.967850
O15   O     O_2   0.436409 0.244801 0.831771 -0.603580
O16   O     O_R   0.249244 0.270606 0.782296 -0.780125
H6    H     H_    0.219918 0.195762 0.807465 0.360737
C43   C     C_3   0.676130 0.339029 0.329875 -0.831364
H7    H     H_    0.745828 0.292701 0.303156 0.269132
H8    H     H_    0.729617 0.404531 0.360864 0.226192
H9    H     H_    0.630498 0.256188 0.352425 0.250561
C44   C     C_3   0.308405 0.356745 0.671228 -0.783323
H10   H     H_    0.294175 0.390238 0.626615 0.210088
H11   H     H_    0.319173 0.246301 0.672212 0.250591
H12   H     H_    0.220734 0.386085 0.691085 0.282980
C45   C     C_3   0.275208 0.609297 0.323864 -0.801843
H13   H     H_    0.271021 0.573035 0.368234 0.209839
H14   H     H_    0.261757 0.718928 0.322627 0.253561
H15   H     H_    0.194449 0.561312 0.299716 0.288035
C46   C     C_3   0.725601 0.609462 0.675750 -0.808232
H16   H     H_    0.807380 0.561988 0.699033 0.285175
H17   H     H_    0.728773 0.575021 0.631060 0.210850
H18   H     H_    0.738137 0.719334 0.677751 0.255133
C47   C     C_2   0.336663 0.708630 0.209311 0.968526
O17   O     O_2   0.391909 0.787018 0.179532 -0.601622
O18   O     O_R   0.207386 0.722336 0.214533 -0.770300
H19   H     H_    0.170863 0.801134 0.192146 0.359905
C48   C     C_2   0.666566 0.701738 0.791733 0.967698
O19   O     O_2   0.610665 0.777411 0.822316 -0.608282
O20   O     O_R   0.795305 0.719565 0.785896 -0.771931
H20   H     H_    0.830936 0.798630 0.808656 0.359167
C49   C     C_3   0.116474 0.242241 0.530545 -0.826553
H21   H     H_    0.198351 0.255112 0.561063 0.252163
H22   H     H_    0.046635 0.186125 0.554525 0.228647
H23   H     H_    0.143338 0.180333 0.494151 0.242857
C50   C     C_3   0.885348 0.751578 0.466047 -0.814124
H24   H     H_    0.807651 0.733458 0.433372 0.254229
H25   H     H_    0.852186 0.814850 0.500767 0.242909
H26   H     H_    0.958106 0.807743 0.443839 0.228108
C51   C     C_3   0.880120 0.246840 0.463442 -0.828454
H27   H     H_    0.797089 0.264253 0.434140 0.252448
H28   H     H_    0.948536 0.194600 0.437416 0.230415
H29   H     H_    0.853783 0.179654 0.498261 0.243001
C52   C     C_3   0.117859 0.747029 0.539339 -0.812544
H30   H     H_    0.196238 0.724894 0.571098 0.252701
H31   H     H_    0.150932 0.814617 0.506002 0.243779
H32   H     H_    0.046184 0.800213 0.563212 0.228721
C53   C     C_3   0.660321 0.144244 0.583015 -0.791041
H33   H     H_    0.666929 0.251509 0.577143 0.292076
H34   H     H_    0.626872 0.125385 0.626152 0.233934
H35   H     H_    0.758849 0.110559 0.581550 0.197814
C54   C     C_3   0.337474 0.858108 0.418558 -0.835554
H36   H     H_    0.334928 0.751184 0.424417 0.300154
H37   H     H_    0.238771 0.889716 0.422026 0.203127
H38   H     H_    0.368030 0.880035 0.375202 0.236126
C55   C     C_3   0.343389 0.143243 0.415781 -0.799900
H39   H     H_    0.332267 0.249490 0.423402 0.292504
H40   H     H_    0.383536 0.129672 0.373631 0.235199
H41   H     H_    0.245585 0.105397 0.413619 0.201083
C56   C     C_3   0.659444 0.859119 0.582554 -0.838235
H42   H     H_    0.665601 0.752846 0.575148 0.299579
H43   H     H_    0.757971 0.894159 0.582099 0.203302
H44   H     H_    0.623311 0.876680 0.625250 0.237644

loop_
_geom_bond_atom_site_label_1
_geom_bond_atom_site_label_2
_geom_bond_distance
_ccdc_geom_bond_type
C47   O17   1.223139 D    
C41   O14   1.398308 S    
O20   H20   1.013790 S    
C15   C17   1.394392 A    
C21   C23   1.416951 A    
C1    C36   1.453715 S    
C49   H21   1.103930 S    
C2    C35   1.453718 S    
O3    C2    1.305149 A    
C49   H23   1.106895 S    
C37   N4    1.376734 A    
C27   C29   1.412152 A    
O5    C3    1.309394 A    
C22   C44   1.513825 S    
C34   C52   1.517012 S    
O1    C1    1.306517 A    
C7    C9    1.395833 A    
C12   C14   1.405190 A    
C26   C46   1.513313 S    
C56   H43   1.106604 S    
C54   H36   1.077931 S    
Zn2   N4    2.039413 S    
C18   H4    1.083231 S    
C31   C36   1.414604 A    
C25   C27   1.405451 A    
O7    Zn1   2.007784 S    
C43   H9    1.109403 S    
C53   H34   1.110193 S    
C46   H16   1.110205 S    
C32   C34   1.388071 A    
C54   H37   1.107342 S    
C28   C48   1.489989 S    
C39   C55   1.514916 S    
C11   C12   1.402102 A    
C3    C23   1.469019 S    
C53   H35   1.106701 S    
O3    Zn1   1.992403 S    
C32   C35   1.409807 A    
C21   C43   1.515260 S    
C8    O12   1.349534 S    
C38   N3    1.379349 A    
C28   C30   1.413372 A    
C9    C15   1.404643 A    
C10   C16   1.404613 A    
C52   H31   1.107201 S    
O2    C2    1.301362 A    
C22   C24   1.417147 A    
O7    C4    1.306811 A    
C24   C26   1.414257 A    
C34   C36   1.409262 A    
C55   H40   1.110198 S    
C6    C14   1.396282 A    
C26   C28   1.404537 A    
C42   O15   1.223300 D    
C56   H42   1.078869 S    
C51   H28   1.110438 S    
C7    O11   1.349875 S    
C48   O19   1.223121 D    
C43   H8    1.109793 S    
C37   C40   1.431173 A    
C15   H1    1.083204 S    
C38   C39   1.431110 A    
C20   C42   1.493029 S    
C41   O13   1.222555 D    
C40   N3    1.378595 A    
C42   O16   1.397599 S    
C27   C47   1.490489 S    
C40   C56   1.501387 S    
C44   H10   1.103092 S    
C48   O20   1.398025 S    
C44   H11   1.110209 S    
C50   H24   1.110322 S    
O6    C4    1.301185 A    
C54   H38   1.109522 S    
C46   H18   1.106190 S    
C25   C45   1.513106 S    
C23   C25   1.413739 A    
C16   H2    1.083227 S    
C46   H17   1.107307 S    
C8    C10   1.396258 A    
C9    C11   1.405001 A    
O8    Zn2   2.007786 S    
C38   C54   1.500547 S    
C52   H32   1.110729 S    
C10   C12   1.405205 A    
O1    Zn1   1.989512 S    
C52   H30   1.110454 S    
C45   H14   1.105649 S    
C55   H41   1.106157 S    
C13   C18   1.404796 A    
C5    N1    1.373348 A    
C39   N4    1.375575 A    
O6    Zn2   2.007005 S    
C53   H33   1.083457 S    
C19   C29   1.414063 A    
C33   C35   1.413436 A    
O4    C1    1.299830 A    
C56   H44   1.109644 S    
N1    C30   1.441650 S    
C45   H15   1.110165 S    
C55   H39   1.084658 S    
C49   H22   1.110366 S    
C5    O9    1.349535 S    
C6    O10   1.349629 S    
C19   C41   1.484092 S    
C32   C50   1.516718 S    
C16   C18   1.395034 A    
C43   H7    1.103330 S    
C4    C24   1.465051 S    
C37   C53   1.514757 S    
C33   C51   1.520083 S    
C20   C30   1.415561 A    
C20   C22   1.409244 A    
N1    C7    1.373351 A    
C51   H29   1.107133 S    
N2    C8    1.372182 A    
C11   C13   1.405126 A    
O4    Zn2   1.992404 S    
O16   H6    1.013794 S    
O2    Zn2   1.989511 S    
C44   H12   1.109114 S    
C5    C13   1.396887 A    
O8    C3    1.300443 A    
C45   H13   1.107576 S    
O5    Zn1   2.007007 S    
C50   H26   1.110714 S    
Zn1   N3    2.039413 S    
C19   C21   1.409087 A    
C14   C17   1.404493 A    
C6    N2    1.373166 A    
O14   H5    1.013761 S    
C17   H3    1.083248 S    
C51   H27   1.103746 S    
C47   O18   1.398042 S    
C31   C33   1.389951 A    
O18   H19   1.013781 S    
C50   H25   1.106775 S    
N2    C29   1.440699 S    
C31   C49   1.520396 S    
