data_mof_unit_3359.cif
_audit_creation_date              2012-12-11T15:42:45-0500
_audit_creation_method            fapswitch 2.2
_symmetry_space_group_name_H-M    P1
_symmetry_Int_Tables_number       1
_space_group_crystal_system       triclinic
_cell_length_a                    6.925204
_cell_length_b                    14.597417
_cell_length_c                    16.216713
_cell_angle_alpha                 90.438114
_cell_angle_beta                  90.463299
_cell_angle_gamma                 89.859535
_cell_volume                      1639.24278686

loop_
_atom_site_label
_atom_site_type_symbol
_atom_type_description
_atom_site_fract_x
_atom_site_fract_y
_atom_site_fract_z
_atom_type_partial_charge
O1    O     O_R   0.505810 0.583360 0.413880 -0.539748
O2    O     O_R   0.175870 0.595480 0.585520 -0.538639
O3    O     O_R   0.005540 0.416640 0.586120 -0.539157
C1    C     C_R   0.345144 0.614907 0.616399 0.711901
O4    O     O_R   0.176100 0.594390 0.414490 -0.533170
O5    O     O_R   0.005770 0.415540 0.413870 -0.540373
C2    C     C_R   0.345469 0.618414 0.387176 0.720790
O6    O     O_R   0.505580 0.584460 0.586130 -0.533111
O7    O     O_3   0.339190 0.441320 0.500000 -0.368598
V1    V     V_3+5 0.064350 0.510890 0.500000 1.516680
O8    O     O_R   0.676050 0.404520 0.414480 -0.539096
C3    C     C_R   0.844447 0.382808 0.384894 0.702629
O9    O     O_R   0.675830 0.405610 0.585510 -0.531153
C4    C     C_R   0.847212 0.380766 0.611487 0.738922
V2    V     V_3+5 0.564340 0.489110 0.500000 1.514629
O10   O     O_3   0.839370 0.558680 0.500000 -0.358646
C5    C     C_2   0.763034 0.171178 0.757459 0.383208
C6    C     C_2   0.870517 0.184038 0.826774 -0.339683
H1    H     H_    0.937283 0.249155 0.841318 0.084336
C7    C     C_2   0.735098 0.244718 0.693334 0.252177
C8    C     C_2   0.873716 0.307373 0.674130 -0.326972
C9    C     C_R   0.022791 0.249774 0.195336 -0.183653
H2    H     H_    0.142194 0.251911 0.152509 0.133354
C10   C     C_R   0.010363 0.316102 0.258179 -0.062695
C11   C     C_R   0.854435 0.315056 0.314920 -0.160477
C12   C     C_R   0.710175 0.246743 0.304099 0.343836
C13   C     C_R   0.725074 0.181789 0.240444 -0.155074
H3    H     H_    0.614098 0.129904 0.234302 0.137345
C14   C     C_R   0.880301 0.182652 0.185542 -0.113572
C15   C     C_R   0.212114 0.745036 0.698671 -0.216176
H4    H     H_    0.092002 0.747373 0.655351 0.162947
C16   C     C_R   0.220148 0.809283 0.763035 -0.113486
C17   C     C_R   0.378522 0.810273 0.819265 -0.182180
C18   C     C_R   0.526469 0.743849 0.809435 0.358345
C19   C     C_R   0.512491 0.676445 0.746006 0.266926
C20   C     C_R   0.357127 0.679188 0.688209 -0.169509
C21   C     C_R   0.200061 0.701609 0.266338 -0.112434
H5    H     H_    0.068176 0.663082 0.274321 0.134699
C22   C     C_R   0.210369 0.763691 0.200896 -0.149354
H6    H     H_    0.085307 0.772045 0.161096 0.125676
C23   C     C_R   0.380613 0.813149 0.186054 -0.049251
C24   C     C_R   0.538672 0.800642 0.239399 -0.180993
H7    H     H_    0.669343 0.839997 0.230256 0.118420
C25   C     C_R   0.528285 0.740437 0.306415 -0.037257
C26   C     C_R   0.358320 0.688144 0.319932 -0.082107
O11   O     O_R   0.230120 0.912300 0.917180 -0.547978
O12   O     O_R   0.559740 0.902430 0.088770 -0.546677
O13   O     O_R   0.729930 0.081310 0.089370 -0.551687
C27   C     C_R   0.391041 0.880181 0.117337 0.680331
O14   O     O_R   0.559840 0.901330 0.917750 -0.495824
O15   O     O_R   0.730030 0.080210 0.917120 -0.517063
C28   C     C_R   0.390379 0.879337 0.888343 0.780801
O16   O     O_R   0.230020 0.913400 0.089430 -0.546965
O17   O     O_3   0.396460 0.055470 0.003290 -0.377513
V3    V     V_3+5 0.671360 0.985960 0.003250 1.521801
O18   O     O_R   0.059740 0.091300 0.917690 -0.545438
C29   C     C_R   0.889111 0.112912 0.889913 0.840202
O19   O     O_R   0.059640 0.092400 0.088720 -0.548705
C30   C     C_R   0.891009 0.114296 0.117562 0.682733
V4    V     V_3+5 0.171350 0.007820 0.003190 1.466497
O20   O     O_3   0.896380 0.938200 0.003220 -0.366574
O21   O     O_3   0.671903 0.087488 0.747013 -0.620338
H8    H     H_    0.612800 0.084741 0.691243 0.322801
C31   C     C_1   0.064535 0.875108 0.767407 0.363289
N1    N     N_1   0.939098 0.927445 0.770654 -0.306084
O22   O     O_3   0.678300 0.743348 0.865507 -0.635988
H9    H     H_    0.778814 0.699244 0.847877 0.327848
O23   O     O_3   0.649089 0.607381 0.744134 -0.653001
H10   H     H_    0.584719 0.549826 0.726676 0.292767
C32   C     C_1   0.691540 0.738304 0.362344 0.283220
N2    N     N_1   0.822467 0.737410 0.407127 -0.337845
O24   O     O_3   0.562985 0.241430 0.649736 -0.616337
H11   H     H_    0.592749 0.246626 0.590258 0.304336
C33   C     C_1   0.067709 0.299928 0.708330 0.301481
N3    N     N_1   0.222076 0.294712 0.735755 -0.279913
C34   C     C_1   0.156661 0.386520 0.259943 0.298114
N4    N     N_1   0.274172 0.442761 0.260920 -0.385820
O25   O     O_3   0.557175 0.238965 0.356937 -0.642364
H12   H     H_    0.475318 0.293698 0.347649 0.305636

loop_
_geom_bond_atom_site_label_1
_geom_bond_atom_site_label_2
_ccdc_geom_bond_type
O13   V3    S    
C1    C20   S    
C9    C14   A    
C13   C14   A    
C23   C24   A    
C19   C20   A    
C1    O6    A    
C18   O22   S    
O12   C27   A    
O17   V4    S    
C17   C28   S    
C12   C13   A    
O21   H8    S    
C2    C26   S    
C4    C8    S    
C6    H1    S    
O5    C3    A    
C15   H4    S    
O19   V4    S    
V2    O10   S    
O11   C28   A    
C5    C7    S    
O18   C29   A    
C18   C19   A    
O8    V2    S    
C14   C30   S    
O23   H10   S    
O14   C28   A    
C25   C32   S    
C32   N2    T    
O15   C29   A    
O7    V1    S    
O22   H9    S    
O9    C4    A    
C24   C25   A    
C23   C27   S    
C11   C12   A    
O16   V4    S    
C17   C18   A    
C33   N3    T    
C10   C11   A    
C16   C31   S    
C22   C23   A    
C22   H6    S    
O4    C2    A    
O25   H12   S    
C10   C34   S    
O19   C30   A    
C8    C33   S    
O18   V4    S    
V4    O20   S    
O2    C1    A    
C21   H5    S    
C5    O21   S    
C6    C29   S    
C5    C6    D    
C12   O25   S    
C34   N4    T    
O3    C4    A    
O1    V2    S    
O6    V2    S    
O9    V2    S    
C9    C10   A    
C24   H7    S    
C21   C26   A    
O2    V1    S    
C25   C26   A    
O13   C30   A    
O12   V3    S    
O17   V3    S    
O11   V4    S    
O1    C2    A    
O24   H11   S    
O5    V1    S    
O8    C3    A    
O14   V3    S    
C15   C20   A    
C3    C11   S    
C16   C17   A    
O7    V2    S    
O4    V1    S    
C21   C22   A    
O3    V1    S    
V1    O10   S    
C31   N1    T    
C15   C16   A    
C19   O23   S    
C27   O16   A    
V3    O20   S    
O15   V3    S    
C7    C8    D    
C13   H3    S    
C9    H2    S    
C7    O24   S    
