data_mof_unit_3793.cif
_audit_creation_date              2012-12-10T18:18:26-0500
_audit_creation_method            fapswitch 2.2
_symmetry_space_group_name_H-M    P1
_symmetry_Int_Tables_number       1
_space_group_crystal_system       triclinic
_cell_length_a                    14.075255
_cell_length_b                    14.931805
_cell_length_c                    15.477018
_cell_angle_alpha                 89.891802
_cell_angle_beta                  67.023256
_cell_angle_gamma                 90.335503
_cell_volume                      2994.64140671

loop_
_atom_site_label
_atom_site_type_symbol
_atom_type_description
_atom_site_fract_x
_atom_site_fract_y
_atom_site_fract_z
_atom_type_partial_charge
C1    C     C_R   0.501112 0.672854 0.497764 0.891747
C2    C     C_R   0.502298 0.768153 0.494841 -0.149228
C3    C     C_R   0.475017 0.187518 0.436212 -0.239521
C4    C     C_R   0.506105 0.812123 0.571913 -0.212607
C5    C     C_R   0.474316 0.095171 0.434199 -0.000786
C6    C     C_R   0.500457 0.904299 0.576491 -0.006230
C7    C     C_R   0.486766 0.046531 0.507250 -0.083434
C8    C     C_R   0.490881 0.952969 0.502046 -0.095677
C9    C     C_R   0.495494 0.091644 0.585063 -0.005430
C10   C     C_R   0.486334 0.908074 0.422356 -0.003612
C11   C     C_R   0.462185 0.051510 0.359421 0.542320
C12   C     C_R   0.498874 0.327011 0.501833 0.914831
C13   C     C_R   0.500274 0.947623 0.656453 0.550921
C14   C     C_R   0.470423 0.958649 0.351351 0.083618
C15   C     C_R   0.494599 0.040610 0.662841 0.081737
C16   C     C_R   0.435199 0.498041 0.676367 0.879241
C17   C     C_R   0.564542 0.498502 0.323597 0.860204
C18   C     C_R   0.174611 0.447244 0.563538 0.315804
C19   C     C_R   0.825307 0.553312 0.437012 0.326601
C20   C     C_R   0.228438 0.553903 0.438866 -0.066924
C21   C     C_R   0.769884 0.451100 0.565487 -0.077083
C22   C     C_R   0.128352 0.556431 0.438572 -0.093151
C23   C     C_R   0.370915 0.494114 0.109472 -0.188259
C24   C     C_R   0.869009 0.451095 0.568167 -0.084961
C25   C     C_R   0.049364 0.503219 0.503261 -0.010653
C26   C     C_R   0.948174 0.503800 0.503087 -0.012259
C27   C     C_R   0.071398 0.449584 0.568171 -0.079736
C28   C     C_R   0.926123 0.557440 0.438230 -0.081107
C29   C     C_R   0.105169 0.611814 0.376115 0.616259
C30   C     C_R   0.890446 0.400552 0.634984 0.615695
C31   C     C_R   0.005325 0.613011 0.376739 -0.290604
C32   C     C_R   0.989909 0.400299 0.635286 -0.287407
C33   C     C_R   0.393313 0.490353 0.778436 -0.061125
C34   C     C_R   0.595304 0.401655 0.910579 -0.192792
C35   C     C_R   0.603400 0.484093 0.222491 -0.066211
C36   C     C_R   0.258118 0.512669 0.931482 -0.188328
C37   C     C_R   0.717868 0.409406 0.082377 -0.184647
C38   C     C_R   0.290888 0.511724 0.834027 -0.192586
C39   C     C_R   0.694944 0.437757 0.174116 -0.198746
C40   C     C_R   0.459994 0.463460 0.820369 -0.255393
C41   C     C_R   0.535923 0.502065 0.178651 -0.244968
C42   C     C_R   0.429180 0.463921 0.917678 0.097307
C43   C     C_R   0.550841 0.464444 0.091923 0.104614
C44   C     C_R   0.327779 0.492505 0.973403 0.164148
C45   C     C_R   0.298576 0.503669 0.069609 -0.207453
C46   C     C_R   0.645840 0.421525 0.041254 0.150827
C47   C     C_R   0.499711 0.444287 0.959883 0.047351
C48   C     C_R   0.473771 0.468761 0.054553 0.061159
C49   C     C_3   0.211024 0.296549 0.599840 -0.717572
C50   C     C_3   0.841526 0.567709 0.276186 -0.768332
C51   C     C_3   0.638358 0.228814 0.637804 -0.675806
C52   C     C_3   0.603133 0.737417 0.276456 -0.780041
C53   C     C_3   0.540215 0.929865 0.184062 -0.642718
C54   C     C_3   0.374742 0.091688 0.812854 -0.749728
C55   C     C_R   0.666393 0.389402 0.951415 -0.194076
C56   C     C_R   0.506612 0.185931 0.580232 0.176593
C57   C     C_R   0.495375 0.814012 0.418288 0.199832
C58   C     C_R   0.495112 0.231534 0.505892 -0.142343
F1    F     F_    0.179045 0.665288 0.314325 -0.686850
F2    F     F_    0.815215 0.351175 0.700447 -0.723591
F3    F     F_    0.443410 0.099485 0.293019 -0.683546
F4    F     F_    0.502218 0.899222 0.730326 -0.678839
H1    H     H_    0.220756 0.523730 0.113619 0.162685
H2    H     H_    0.237793 0.531141 0.802261 0.155044
H3    H     H_    0.179850 0.532855 0.973769 0.139195
H4    H     H_    0.789436 0.374324 0.045300 0.138893
H5    H     H_    0.343333 0.504411 0.184263 0.166513
H6    H     H_    0.615399 0.373647 0.841558 0.182059
H7    H     H_    0.464905 0.226149 0.380941 0.208623
H8    H     H_    0.511382 0.773422 0.629324 0.205972
H9    H     H_    0.159806 0.401870 0.694573 0.197036
H10   H     H_    0.134010 0.264261 0.621677 0.217403
H11   H     H_    0.254623 0.262145 0.636342 0.231065
H12   H     H_    0.738067 0.355261 0.912181 0.184358
H13   H     H_    0.252762 0.287403 0.522976 0.262335
H14   H     H_    0.812196 0.671603 0.372661 0.211239
H15   H     H_    0.922643 0.589310 0.237264 0.218830
H16   H     H_    0.795100 0.592696 0.237552 0.243430
H17   H     H_    0.838609 0.493399 0.277867 0.240192
H18   H     H_    0.477271 0.240573 0.713049 0.243763
H19   H     H_    0.657096 0.158583 0.648075 0.240186
H20   H     H_    0.649680 0.270837 0.692068 0.254103
H21   H     H_    0.692114 0.252105 0.567371 0.248217
H22   H     H_    0.445991 0.715646 0.350160 0.241638
H23   H     H_    0.289709 0.595024 0.390309 0.181410
H24   H     H_    0.601661 0.710987 0.209990 0.244611
H25   H     H_    0.630538 0.683881 0.310616 0.232101
H26   H     H_    0.658328 0.794538 0.259708 0.247659
H27   H     H_    0.385438 0.929551 0.272506 0.261873
H28   H     H_    0.531901 0.881298 0.133209 0.234285
H29   H     H_    0.615964 0.918945 0.188821 0.225008
H30   H     H_    0.538579 0.998644 0.157331 0.267687
H31   H     H_    0.525152 0.052563 0.782810 0.278284
H32   H     H_    0.370884 0.129430 0.875868 0.240388
H33   H     H_    0.337423 0.025112 0.835422 0.269399
H34   H     H_    0.707874 0.412463 0.615986 0.183346
H35   H     H_    0.331946 0.129825 0.777952 0.229525
H36   H     H_    0.991138 0.658433 0.328796 0.176388
H37   H     H_    0.001742 0.361437 0.689143 0.169857
H38   H     H_    0.469691 0.543320 0.215326 0.154801
H39   H     H_    0.538452 0.448106 0.775334 0.160029
H40   H     H_    0.746080 0.419790 0.208156 0.151776
N1    N     N_R   0.249980 0.499930 0.499960 -0.122446
N2    N     N_R   0.750020 0.500070 0.500040 -0.121639
N3    N     N_2   0.201837 0.390735 0.624193 -0.272717
N4    N     N_2   0.800750 0.603523 0.370492 -0.267798
N5    N     N_2   0.532751 0.236484 0.645981 -0.319132
N6    N     N_2   0.500543 0.765759 0.337106 -0.275760
N7    N     N_2   0.456450 0.916690 0.274556 -0.257255
N8    N     N_2   0.481522 0.081057 0.749887 -0.297201
O1    O     O_R   0.419720 0.632140 0.499980 -0.625231
O2    O     O_R   0.580280 0.367860 0.500020 -0.604455
O3    O     O_R   0.580270 0.632160 0.499970 -0.598267
O4    O     O_R   0.419730 0.367840 0.500030 -0.602360
O5    O     O_R   0.373870 0.499980 0.632250 -0.602332
O6    O     O_R   0.626130 0.500020 0.367750 -0.594780
O7    O     O_R   0.534420 0.500000 0.632240 -0.618449
O8    O     O_R   0.465580 0.500000 0.367760 -0.622020
Zn1   Zn    Zn3+2 0.392800 0.499980 0.500010 0.959103
Zn2   Zn    Zn3+2 0.607200 0.500020 0.499990 0.965085

loop_
_geom_bond_atom_site_label_1
_geom_bond_atom_site_label_2
_ccdc_geom_bond_type
C14   N7    S    
C16   O5    A    
C23   C45   A    
C22   C29   A    
C2    C4    A    
C50   H17   S    
C4    H8    S    
C2    C57   A    
C7    C8    A    
C20   N1    A    
H18   N5    S    
C1    O3    A    
C3    H7    S    
C24   C26   A    
C5    C11   A    
C11   C14   A    
H27   N7    S    
C54   N8    S    
O1    Zn1   S    
C1    C2    S    
C31   H36   S    
C23   H5    S    
O8    Zn1   S    
C40   H39   S    
C21   N2    A    
C13   F4    S    
C29   F1    S    
C49   H10   S    
C30   F2    S    
C46   C55   A    
C53   H29   S    
C49   H13   S    
C54   H35   S    
C43   C48   A    
C51   H19   S    
C12   O4    A    
O4    Zn1   S    
H31   N8    S    
C18   N1    A    
C12   C58   S    
C40   C42   A    
C34   C55   A    
C20   H23   S    
C41   C43   A    
C15   N8    S    
C42   C44   A    
C50   H16   S    
C38   H2    S    
C28   C31   A    
C37   C39   A    
C33   C40   A    
C52   H26   S    
C10   C57   A    
C4    C6    A    
C10   C14   A    
O7    Zn2   S    
C34   H6    S    
C5    C7    A    
C36   H3    S    
C6    C8    A    
C11   F3    S    
C25   C26   A    
C45   H1    S    
O6    Zn2   S    
C35   C39   A    
C3    C58   A    
C56   N5    S    
C16   C33   S    
O3    Zn2   S    
C19   N2    A    
C47   C48   A    
C37   H4    S    
C53   H30   S    
C41   H38   S    
C9    C56   A    
C19   C28   A    
C51   H20   S    
C54   H33   S    
C17   O8    A    
C8    C10   A    
C22   C25   A    
C20   C22   A    
O5    Zn1   S    
C13   C15   A    
C49   H11   S    
C36   C44   A    
C36   C38   A    
C50   H15   S    
C51   H21   S    
C12   O2    A    
C44   C45   A    
C39   H40   S    
O2    Zn2   S    
C53   N7    S    
C7    C9    A    
H14   N4    S    
C23   C48   A    
C27   C32   A    
C52   H25   S    
N1    Zn1   S    
C18   C27   A    
C3    C5    A    
C49   N3    S    
C21   H34   S    
C25   C27   A    
C26   C28   A    
C33   C38   A    
C32   H37   S    
H9    N3    S    
C9    C15   A    
C18   N3    S    
C29   C31   A    
C16   O7    A    
C1    O1    A    
C6    C13   A    
C30   C32   A    
C52   H24   S    
H22   N6    S    
C56   C58   A    
C42   C47   A    
C35   C41   A    
C43   C46   A    
C24   C30   A    
C54   H32   S    
C19   N4    S    
C57   N6    S    
C52   N6    S    
C51   N5    S    
C21   C24   A    
C53   H28   S    
C50   N4    S    
C34   C47   A    
C17   C35   S    
C37   C46   A    
C55   H12   S    
C17   O6    A    
N2    Zn2   S    
