data_mof_unit_2810.cif
_audit_creation_date              2012-12-11T14:36:00-0500
_audit_creation_method            fapswitch 2.2
_symmetry_space_group_name_H-M    P1
_symmetry_Int_Tables_number       1
_space_group_crystal_system       triclinic
_cell_length_a                    13.479461
_cell_length_b                    13.472239
_cell_length_c                    27.487558
_cell_angle_alpha                 90.656903
_cell_angle_beta                  90.066168
_cell_angle_gamma                 60.027638
_cell_volume                      4323.79786432

loop_
_atom_site_label
_atom_site_type_symbol
_atom_type_description
_atom_site_fract_x
_atom_site_fract_y
_atom_site_fract_z
_atom_type_partial_charge
C1    C     C_R   0.620239 0.101470 0.570207 0.538428
C2    C     C_1   0.631139 0.732139 0.616346 -0.014603
C3    C     C_3   0.707642 0.559379 0.767822 -0.135747
C4    C     C_3   0.677999 0.655620 0.805786 0.089351
C5    C     C_3   0.596060 0.640362 0.740154 -0.118244
C6    C     C_3   0.663139 0.684268 0.710721 0.014100
C7    C     C_3   0.566742 0.736246 0.778735 -0.133900
C8    C     C_3   0.633206 0.781082 0.748484 -0.098091
C9    C     C_1   0.687378 0.634966 0.858164 -0.014210
C10   C     C_1   0.649413 0.705205 0.658399 -0.057698
C11   C     C_3   0.089634 0.135207 0.738191 -0.103713
C12   C     C_R   0.599744 0.779338 0.568704 0.537716
C13   C     C_3   0.181058 0.060442 0.776232 -0.100334
C14   C     C_1   0.097094 0.201197 0.901846 -0.011819
C15   C     C_1   0.229781 0.137996 0.617660 -0.016408
C16   C     C_3   0.055789 0.243386 0.769934 -0.098956
C17   C     C_3   0.147637 0.168456 0.807128 0.052960
C18   C     C_3   0.145786 0.262572 0.743259 -0.095947
C19   C     C_3   0.179243 0.154674 0.712281 0.050297
C20   C     C_3   0.237173 0.187902 0.781152 -0.100068
C21   C     C_3   0.271130 0.079694 0.749449 -0.103495
C22   C     C_1   0.124925 0.181885 0.859617 -0.053695
C23   C     C_R   0.277703 0.121869 0.569722 0.545579
C24   C     C_1   0.201915 0.146921 0.659840 -0.058972
C25   C     C_3   0.633409 0.275756 0.739810 -0.102051
C26   C     C_3   0.556220 0.261817 0.777725 -0.100230
C27   C     C_1   0.691257 0.207774 0.902977 -0.010943
C28   C     C_1   0.635356 0.133584 0.618369 -0.017630
C29   C     C_3   0.740095 0.200041 0.771112 -0.100904
C30   C     C_3   0.662749 0.185837 0.808200 0.051950
C31   C     C_3   0.757207 0.091429 0.743783 -0.099317
C32   C     C_3   0.650758 0.167306 0.713247 0.051441
C33   C     C_3   0.680106 0.077434 0.781592 -0.103053
C34   C     C_R   0.623831 0.102553 0.432761 0.540586
C35   C     C_3   0.573383 0.153085 0.750306 -0.105009
C36   C     C_1   0.674375 0.196643 0.860728 -0.052007
C37   C     C_1   0.643701 0.152455 0.660695 -0.059669
C38   C     C_R   0.737916 0.703965 0.361974 -0.147308
C39   C     C_R   0.752647 0.679289 0.312390 0.008030
C40   C     C_R   0.763944 0.656398 0.210665 0.017923
C41   C     C_R   0.845715 0.671986 0.235789 -0.132274
C42   C     C_R   0.838806 0.685581 0.286322 -0.125625
C43   C     C_R   0.770881 0.640110 0.160089 -0.137008
C44   C     C_R   0.687270 0.625653 0.135824 -0.003180
C45   C     C_R   0.604125 0.772121 0.431586 0.539210
C46   C     C_R   0.589378 0.650820 0.365293 -0.003845
C47   C     C_R   0.590012 0.645077 0.314049 0.023635
C48   C     C_R   0.673175 0.658292 0.287811 0.050920
C49   C     C_R   0.505015 0.635173 0.288178 -0.128808
C50   C     C_R   0.504141 0.635749 0.237708 -0.131157
C51   C     C_R   0.589609 0.643047 0.212036 0.011588
C52   C     C_R   0.675654 0.652559 0.236842 0.064883
C53   C     C_R   0.592504 0.636339 0.161787 -0.125012
C54   C     C_R   0.648995 0.701143 0.387365 -0.001621
C55   C     C_R   0.216094 0.054497 0.358561 -0.127454
C56   C     C_R   0.276853 0.120997 0.431422 0.549475
C57   C     C_R   0.186850 0.069616 0.309363 0.016013
C58   C     C_R   0.145883 0.097002 0.208831 0.015624
C59   C     C_R   0.175302 0.992308 0.230684 -0.137740
C60   C     C_R   0.196356 0.978445 0.280635 -0.130868
C61   C     C_R   0.123437 0.112640 0.158956 -0.138492
C62   C     C_R   0.094706 0.218017 0.137872 -0.001450
C63   C     C_R   0.170306 0.253185 0.365409 -0.132626
C64   C     C_R   0.143653 0.268851 0.316333 0.012851
C65   C     C_R   0.154385 0.176094 0.287861 0.063725
C66   C     C_R   0.113873 0.373654 0.294738 -0.128433
C67   C     C_3   0.774907 0.603270 0.737468 -0.092744
C68   C     C_R   0.098193 0.385634 0.244743 -0.126704
C69   C     C_R   0.109792 0.293742 0.216115 0.010952
C70   C     C_R   0.136338 0.188955 0.237604 0.064638
C71   C     C_R   0.092280 0.306341 0.166400 -0.127179
C72   C     C_R   0.213806 0.144521 0.385822 -0.004931
C73   C     C_R   0.557010 0.240232 0.365132 -0.177934
C74   C     C_R   0.569160 0.263143 0.316918 -0.000536
C75   C     C_R   0.587483 0.289229 0.216567 0.023345
C76   C     C_R   0.485331 0.362248 0.241455 -0.125050
C77   C     C_R   0.475810 0.348485 0.291253 -0.123801
C78   C     C_3   0.743233 0.698820 0.775733 0.273144
C79   C     C_R   0.597204 0.298590 0.166161 -0.138049
C80   C     C_R   0.699173 0.221576 0.142003 -0.001756
C81   C     C_R   0.759326 0.093764 0.368278 0.223987
C82   C     C_R   0.770156 0.110288 0.318867 0.059806
C83   C     C_R   0.674151 0.193665 0.292965 0.019430
C84   C     C_R   0.874041 0.041337 0.294275 -0.097167
C85   C     C_R   0.880651 0.049835 0.244268 -0.152955
C86   C     C_R   0.784981 0.130077 0.218447 0.007527
C87   C     C_R   0.682334 0.205003 0.242703 0.063888
C88   C     C_R   0.791431 0.136665 0.168590 -0.120277
C89   C     C_1   0.696718 0.608791 0.900332 -0.005720
C90   C     C_R   0.649001 0.149797 0.389662 -0.018241
C91   C     C_R   0.049378 0.236124 0.949770 0.546409
C92   C     C_R   0.711442 0.563259 0.948267 0.544562
C93   C     C_R   0.722104 0.225404 0.950916 0.548207
C94   C     C_R   0.046252 0.246433 0.089063 0.545636
C95   C     C_R   0.708192 0.573314 0.087197 0.545394
C96   C     C_R   0.722212 0.236150 0.091213 0.547141
Cr1   Cr    Cr6+3 0.417550 0.169090 0.500530 1.013254
Cr2   Cr    Cr6+3 0.669180 0.913420 0.499920 1.031111
Cr3   Cr    Cr6+3 0.413260 0.917540 0.499520 1.016179
Cr4   Cr    Cr6+3 0.909170 0.177380 0.020380 1.023242
Cr5   Cr    Cr6+3 0.912710 0.429210 0.018220 1.030012
Cr6   Cr    Cr6+3 0.657170 0.432570 0.019030 1.022592
H1    H     H_    0.298043 0.209154 0.799235 0.106562
H2    H     H_    0.130818 0.345841 0.729184 0.110093
H3    H     H_    0.966858 0.311072 0.778946 0.102966
H4    H     H_    0.473464 0.331550 0.792275 0.107884
H5    H     H_    0.614683 0.357019 0.722187 0.102448
H6    H     H_    0.504534 0.133682 0.741134 0.102542
H7    H     H_    0.698876 0.996137 0.799192 0.136906
H8    H     H_    0.840019 0.021632 0.729298 0.106572
H9    H     H_    0.809034 0.219348 0.780238 0.100506
H10   H     H_    0.843604 0.632963 0.140180 0.116658
H11   H     H_    0.860516 0.549629 0.720468 0.104754
H12   H     H_    0.789675 0.734464 0.379774 0.142610
H13   H     H_    0.913653 0.675615 0.216318 0.097687
H14   H     H_    0.900330 0.701679 0.304994 0.111716
H15   H     H_    0.525950 0.627497 0.143486 0.132789
H16   H     H_    0.437131 0.629086 0.218713 0.098046
H17   H     H_    0.434632 0.633618 0.306218 0.096767
H18   H     H_    0.124668 0.044683 0.136979 0.114523
H19   H     H_    0.248832 0.970590 0.374454 0.129373
H20   H     H_    0.182988 0.920967 0.209099 0.098364
H21   H     H_    0.604359 0.872018 0.740249 0.097805
H22   H     H_    0.221439 0.896138 0.296671 0.105161
H23   H     H_    0.068967 0.388540 0.150607 0.131137
H24   H     H_    0.077378 0.466539 0.228427 0.101842
H25   H     H_    0.105836 0.445214 0.316293 0.102473
H26   H     H_    0.166553 0.323339 0.386666 0.126277
H27   H     H_    0.526767 0.365491 0.146035 0.114077
H28   H     H_    0.473181 0.287082 0.382146 0.133825
H29   H     H_    0.412067 0.427920 0.222224 0.098291
H30   H     H_    0.394788 0.402951 0.309483 0.100952
H31   H     H_    0.872070 0.077854 0.150951 0.136955
H32   H     H_    0.481547 0.790523 0.795989 0.107370
H33   H     H_    0.960367 0.992846 0.225670 0.106594
H34   H     H_    0.949142 0.977402 0.313139 0.167526
H35   H     H_    0.535243 0.615580 0.724741 0.114350
H36   H     H_    0.737406 0.468370 0.776296 0.099697
H37   H     H_    0.195980 0.977262 0.790385 0.107350
H38   H     H_    0.028750 0.114033 0.720073 0.103884
H39   H     H_    0.360085 0.012080 0.740415 0.102476
O1    O     O_R   0.301710 0.195650 0.554160 -0.508379
O2    O     O_R   0.658900 0.818120 0.449760 -0.499828
O3    O     O_R   0.503220 0.801620 0.445520 -0.522457
O4    O     O_R   0.319370 0.022040 0.450020 -0.500179
O5    O     O_3   0.499990 0.000010 0.499990 -0.240657
O6    O     O_R   0.818720 0.150820 0.967160 -0.502339
O7    O     O_R   0.006410 0.181720 0.970200 -0.495313
O8    O     O_R   0.027890 0.334070 0.964920 -0.501908
O9    O     O_R   0.809600 0.521790 0.967960 -0.488072
O10   O     O_R   0.635520 0.542770 0.964420 -0.509919
O11   O     O_R   0.665950 0.325030 0.970100 -0.494620
O12   O     O_R   0.522390 0.158990 0.550460 -0.497542
O13   O     O_R   0.816620 0.158530 0.074540 -0.524564
O14   O     O_R   0.004460 0.188870 0.069750 -0.503881
O15   O     O_R   0.025800 0.341780 0.072300 -0.522255
O16   O     O_R   0.807650 0.528950 0.067500 -0.500943
O17   O     O_R   0.633420 0.550490 0.071810 -0.523586
O18   O     O_R   0.664000 0.332180 0.069640 -0.498806
O19   O     O_3   0.826350 0.346390 0.019210 -0.247486
O20   O     O_R   0.694390 0.003530 0.554040 -0.510303
O21   O     O_R   0.657700 0.819660 0.549320 -0.496608
O22   O     O_R   0.501930 0.803280 0.552920 -0.511526
O23   O     O_R   0.318170 0.023580 0.549580 -0.493643
O24   O     O_R   0.303010 0.193990 0.446760 -0.521373
O25   O     O_R   0.523600 0.157450 0.450900 -0.510039
O26   O     O_R   0.695690 0.001860 0.446640 -0.487327
O27   O     O_3   0.819793 0.729543 0.795556 -0.700712
H40   H     H_    0.845420 0.757715 0.767826 0.312146
C97   C     C_3   0.530009 0.601119 0.395834 -0.246533
C98   C     C_3   0.609351 0.520379 0.435307 -0.290275
C99   C     C_3   0.551385 0.466156 0.463539 -0.445290
H41   H     H_    0.472733 0.533617 0.481944 0.156127
H42   H     H_    0.528392 0.415331 0.438687 0.151019
H43   H     H_    0.610836 0.408133 0.491563 0.145251
H44   H     H_    0.688831 0.451089 0.418012 0.166554
H45   H     H_    0.633743 0.567593 0.461566 0.169894
H46   H     H_    0.449525 0.670511 0.412125 0.168053
H47   H     H_    0.505864 0.548212 0.373026 0.133714
O28   O     O_3   0.855761 0.018534 0.393844 -0.711707
H48   H     H_    0.844641 0.044631 0.428286 0.333423

loop_
_geom_bond_atom_site_label_1
_geom_bond_atom_site_label_2
_ccdc_geom_bond_type
C66   C68   A    
C98   C99   S    
C55   H19   S    
C41   C42   A    
C40   C41   A    
Cr2   O2    S    
C95   O17   A    
Cr1   O5    S    
C83   C87   A    
C74   C83   A    
C75   C76   A    
C2    C12   S    
C26   H4    S    
C81   C82   A    
C7    C8    S    
C47   C49   A    
C20   H1    S    
C49   H17   S    
C85   C86   A    
O28   H48   S    
C11   C19   S    
C97   H46   S    
C13   H37   S    
C19   C21   S    
Cr4   O7    S    
C73   C90   A    
C5    C6    S    
C38   H12   S    
C76   H29   S    
C53   H15   S    
C97   C98   S    
Cr4   O6    S    
C65   C70   A    
C79   H27   S    
Cr5   O9    S    
C17   C20   S    
C66   H25   S    
C59   H20   S    
C60   H22   S    
C18   C19   S    
C73   C74   A    
C56   O4    A    
C69   C71   A    
C35   H6    S    
C73   H28   S    
C44   C53   A    
C40   C43   A    
C96   O13   A    
C47   C48   A    
Cr5   O19   S    
C68   C69   A    
C56   C72   S    
C74   C77   A    
C56   O24   A    
C1    C28   S    
C31   C33   S    
C23   O1    A    
Cr1   O12   S    
C80   C96   S    
C1    O20   A    
C18   C20   S    
Cr2   O26   S    
C99   H43   S    
Cr6   O10   S    
C25   C32   S    
C15   C23   S    
Cr3   O4    S    
Cr5   O16   S    
C59   C60   A    
C95   O16   A    
C61   H18   S    
C8    C78   S    
Cr6   O17   S    
Cr1   O25   S    
C61   C62   A    
C67   C78   S    
C98   H45   S    
C41   H13   S    
C4    C7    S    
C91   O7    A    
Cr2   O21   S    
C99   H42   S    
C39   C42   A    
C25   C29   S    
Cr1   O1    S    
C3    C67   S    
C51   C52   A    
C32   C35   S    
O27   H40   S    
Cr3   O3    S    
C76   C77   A    
C7    H32   S    
C9    C89   T    
C5    C7    S    
C86   C87   A    
C16   C17   S    
C57   C60   A    
C6    C8    S    
Cr2   O5    S    
Cr5   O15   S    
C25   C26   S    
C40   C52   A    
C46   C97   S    
C51   C53   A    
C77   H30   S    
C64   C66   A    
C11   H38   S    
C34   C90   S    
C4    C78   S    
C29   C30   S    
C45   O3    A    
C11   C16   S    
Cr4   O19   S    
C55   C72   A    
C31   C32   S    
C38   C54   A    
C29   C31   S    
C46   C54   A    
C92   O10   A    
C50   C51   A    
C94   O14   A    
C13   C21   S    
C3    H36   S    
C18   H2    S    
C32   C37   S    
C84   C85   A    
C89   C92   S    
C1    O12   A    
C16   H3    S    
C85   H33   S    
Cr3   O22   S    
C81   C90   A    
Cr4   O14   S    
C42   H14   S    
C15   C24   T    
Cr3   O5    S    
C45   C54   S    
C49   C50   A    
C82   C84   A    
C62   C94   S    
C43   C44   A    
C92   O9    A    
C27   C93   S    
C33   H7    S    
C43   H10   S    
Cr6   O19   S    
C3    C4    S    
C2    C10   T    
C68   H24   S    
Cr2   O20   S    
C99   H41   S    
C25   H5    S    
C91   O8    A    
C23   O23   A    
Cr4   O13   S    
C46   C47   A    
C84   H34   S    
C30   C33   S    
C20   C21   S    
C50   H16   S    
C29   H9    S    
C16   C18   S    
C58   C70   A    
C63   H26   S    
C81   O28   S    
C57   C65   A    
C63   C64   A    
C3    C5    S    
Cr6   O18   S    
C6    C10   S    
C8    H21   S    
C5    H35   S    
C30   C36   S    
C27   C36   T    
C98   H44   S    
C78   O27   S    
C17   C22   S    
C13   C17   S    
C97   H47   S    
C64   C65   A    
C14   C22   T    
C55   C57   A    
C19   C24   S    
C58   C59   A    
C21   H39   S    
C80   C88   A    
C44   C95   S    
C6    C67   S    
C12   O22   A    
C11   C13   S    
C38   C39   A    
C28   C37   T    
C58   C61   A    
Cr1   O24   S    
Cr5   O8    S    
Cr3   O23   S    
C33   C35   S    
C31   H8    S    
C62   C71   A    
C93   O6    A    
C86   C88   A    
C67   H11   S    
C69   C70   A    
C14   C91   S    
C12   O21   A    
C79   C80   A    
C26   C35   S    
C48   C52   A    
C96   O18   A    
C63   C72   A    
C94   O15   A    
C82   C83   A    
C45   O2    A    
C71   H23   S    
C93   O11   A    
C88   H31   S    
C4    C9    S    
C34   O25   A    
C75   C79   A    
C75   C87   A    
C34   O26   A    
Cr6   O11   S    
C39   C48   A    
C26   C30   S    
