data_mof_unit_4261.cif
_audit_creation_date              2012-12-10T21:06:15-0500
_audit_creation_method            fapswitch 2.2
_symmetry_space_group_name_H-M    P1
_symmetry_Int_Tables_number       1
_space_group_crystal_system       triclinic
_cell_length_a                    15.049454
_cell_length_b                    15.844048
_cell_length_c                    16.545183
_cell_angle_alpha                 89.459974
_cell_angle_beta                  94.55598
_cell_angle_gamma                 90.045645
_cell_volume                      3932.46368932

loop_
_atom_site_label
_atom_site_type_symbol
_atom_type_description
_atom_site_fract_x
_atom_site_fract_y
_atom_site_fract_z
_atom_type_partial_charge
C1    C     C_R   0.499956 0.338839 0.500042 0.904238
C2    C     C_R   0.500035 0.661169 0.499633 0.886126
C3    C     C_R   0.500185 0.913159 0.500171 0.177796
C4    C     C_R   0.499992 0.086867 0.500165 0.175381
C5    C     C_R   0.431033 0.955806 0.533757 -0.200110
C6    C     C_R   0.569056 0.044228 0.466439 -0.188339
C7    C     C_1   0.500190 0.824388 0.499973 -0.079407
C8    C     C_1   0.499912 0.175638 0.500144 -0.078163
C9    C     C_1   0.499904 0.250472 0.500102 -0.187156
C10   C     C_1   0.500160 0.749556 0.499729 -0.202396
C11   C     C_R   0.958139 0.492155 0.576503 0.378315
C12   C     C_R   0.041695 0.499267 0.430306 0.362795
C13   C     C_R   0.905380 0.494313 0.501955 -0.286486
C14   C     C_R   0.095467 0.495060 0.504186 -0.304751
C15   C     C_R   0.947877 0.492995 0.429133 0.334480
C16   C     C_R   0.053159 0.488772 0.578218 0.370087
C17   C     C_1   0.807216 0.497756 0.500514 0.222544
C18   C     C_1   0.193099 0.498394 0.501976 0.184457
C19   C     C_R   0.511476 0.499330 0.654378 0.968121
C20   C     C_R   0.488267 0.499638 0.344800 0.952142
C21   C     C_R   0.517771 0.503969 0.742300 -0.314188
C22   C     C_R   0.480177 0.481551 0.257171 -0.339562
C23   C     C_R   0.461833 0.561469 0.778642 0.325438
C24   C     C_R   0.554518 0.446808 0.221767 0.334010
C25   C     C_R   0.453278 0.556081 0.861585 0.324240
C26   C     C_R   0.543343 0.410116 0.145762 0.346717
C27   C     C_R   0.508103 0.500675 0.909235 -0.011629
C28   C     C_R   0.464595 0.424492 0.097335 -0.025049
C29   C     C_R   0.572620 0.451277 0.874952 0.420496
C30   C     C_R   0.390004 0.459408 0.129795 0.435482
C31   C     C_R   0.574544 0.449091 0.790269 -0.022685
C32   C     C_R   0.397320 0.489694 0.209803 0.011027
C33   C     C_R   0.569186 0.956721 0.466503 -0.181207
C34   C     C_R   0.430993 0.043313 0.533853 -0.179658
H1    H     H_    0.622336 0.078514 0.440303 0.139595
H2    H     H_    0.377608 0.921520 0.559657 0.138571
H3    H     H_    0.622585 0.923148 0.440440 0.141188
H4    H     H_    0.377578 0.076895 0.559892 0.141319
N1    N     N_2   0.498728 0.495897 0.992591 -0.098274
N2    N     N_2   0.469459 0.426020 0.013185 -0.102312
N3    N     N_1   0.270550 0.500020 0.500020 -0.108144
N4    N     N_1   0.729450 0.499980 0.499980 -0.107829
O1    O     O_R   0.573650 0.378020 0.500000 -0.610207
O2    O     O_R   0.426350 0.621980 0.500000 -0.610055
O3    O     O_R   0.426310 0.378020 0.499960 -0.616510
O4    O     O_R   0.573690 0.621980 0.500040 -0.611410
O5    O     O_R   0.581880 0.499230 0.616150 -0.618127
O6    O     O_R   0.418120 0.500770 0.383850 -0.611844
O7    O     O_R   0.434550 0.499230 0.616110 -0.589177
O8    O     O_R   0.565450 0.500770 0.383890 -0.583410
Zn1   Zn    Zn3+2 0.598370 0.500000 0.500020 0.970934
Zn2   Zn    Zn3+2 0.401630 0.500000 0.499980 0.966272
O9    O     O_3   0.639151 0.446372 0.261248 -0.618425
C35   C     C_3   0.679414 0.526499 0.251514 0.149060
H5    H     H_    0.731012 0.534423 0.302601 0.197485
H6    H     H_    0.632008 0.580127 0.255820 0.109744
C36   C     C_3   0.723793 0.532332 0.171348 -0.340011
H7    H     H_    0.764554 0.475019 0.163760 0.254765
H8    H     H_    0.671600 0.536222 0.120125 0.231287
C37   C     C_3   0.783001 0.610272 0.168499 -0.995752
H9    H     H_    0.743198 0.668372 0.175534 0.270890
H10   H     H_    0.812865 0.613539 0.109328 0.263181
H11   H     H_    0.837539 0.607010 0.217618 0.285895
O10   O     O_3   0.407780 0.617475 0.732533 -0.618443
C38   C     C_3   0.458363 0.687569 0.708919 0.120227
H12   H     H_    0.422679 0.715274 0.653636 0.168587
H13   H     H_    0.526216 0.670008 0.692119 0.104190
C39   C     C_3   0.464885 0.754984 0.774940 -0.332476
H14   H     H_    0.396993 0.770384 0.792415 0.246286
H15   H     H_    0.505100 0.730489 0.829333 0.232150
C40   C     C_3   0.508733 0.835252 0.745465 -0.965086
H16   H     H_    0.576784 0.821289 0.727655 0.270402
H17   H     H_    0.513865 0.882370 0.794865 0.271125
H18   H     H_    0.468222 0.862741 0.692691 0.268031
O11   O     O_3   0.615691 0.372580 0.113968 -0.613526
C41   C     C_3   0.601617 0.284376 0.108801 0.125516
H19   H     H_    0.647838 0.259208 0.065798 0.170212
H20   H     H_    0.533006 0.267937 0.083277 0.126322
C42   C     C_3   0.622430 0.241231 0.191656 -0.371507
H21   H     H_    0.690177 0.259664 0.216900 0.241769
H22   H     H_    0.573660 0.261934 0.234445 0.219890
C43   C     C_3   0.617843 0.145364 0.184823 -0.965048
H23   H     H_    0.550192 0.125498 0.160532 0.266798
H24   H     H_    0.632336 0.116206 0.245744 0.268988
H25   H     H_    0.667821 0.122495 0.144205 0.265933
O12   O     O_3   0.395044 0.609675 0.896651 -0.624157
C44   C     C_3   0.315157 0.566507 0.910525 0.151692
H26   H     H_    0.291620 0.591375 0.967610 0.205641
H27   H     H_    0.323678 0.496986 0.919156 0.146618
C45   C     C_3   0.243252 0.583947 0.841671 -0.344328
H28   H     H_    0.237277 0.653114 0.830757 0.246732
H29   H     H_    0.262247 0.553738 0.785273 0.251162
C46   C     C_3   0.153044 0.549037 0.862160 -0.956951
H30   H     H_    0.157362 0.479806 0.872994 0.252756
H31   H     H_    0.102479 0.561547 0.810882 0.306383
H32   H     H_    0.131102 0.579950 0.917176 0.264822
O13   O     O_3   0.631110 0.402712 0.924648 -0.607281
C47   C     C_3   0.711753 0.448088 0.938996 0.116323
H33   H     H_    0.701847 0.501616 0.980414 0.148583
H34   H     H_    0.736023 0.473456 0.881540 0.130126
C48   C     C_3   0.783622 0.389332 0.978294 -0.320873
H35   H     H_    0.763476 0.366101 0.037597 0.252068
H36   H     H_    0.791264 0.334104 0.938481 0.214445
C49   C     C_3   0.873220 0.434320 0.991786 -0.994323
H37   H     H_    0.895679 0.457381 0.933142 0.265557
H38   H     H_    0.923964 0.389752 0.019580 0.267782
H39   H     H_    0.867824 0.488473 0.033205 0.270531
O14   O     O_3   0.313432 0.473006 0.079389 -0.657010
C50   C     C_3   0.250835 0.408158 0.091052 0.059300
H40   H     H_    0.183281 0.436500 0.081198 0.170059
H41   H     H_    0.255844 0.381149 0.153879 0.139195
C51   C     C_3   0.258995 0.338001 0.029027 -0.354905
H42   H     H_    0.254124 0.365635 0.966863 0.221560
H43   H     H_    0.324847 0.306537 0.040047 0.216496
C52   C     C_3   0.185647 0.272157 0.034642 -0.959658
H44   H     H_    0.189876 0.242730 0.096036 0.266337
H45   H     H_    0.193518 0.222080 0.989258 0.266741
H46   H     H_    0.119017 0.301747 0.022001 0.262229
C53   C     C_3   0.634451 0.387056 0.751852 -0.795792
H47   H     H_    0.687676 0.421958 0.723060 0.244662
H48   H     H_    0.666854 0.341840 0.796482 0.255142
H49   H     H_    0.595095 0.349267 0.705503 0.225891
C54   C     C_3   0.318934 0.535422 0.241120 -0.797031
H50   H     H_    0.341575 0.594861 0.271282 0.228310
H51   H     H_    0.267876 0.553830 0.192113 0.248605
H52   H     H_    0.286040 0.493994 0.284244 0.249053
O15   O     O_3   0.101002 0.489693 0.653730 -0.629835
C55   C     C_3   0.164908 0.423601 0.666678 0.081601
H53   H     H_    0.178414 0.416644 0.733352 0.165092
H54   H     H_    0.229707 0.442786 0.644926 0.169513
C56   C     C_3   0.135938 0.335875 0.633793 -0.440209
H55   H     H_    0.072434 0.316318 0.658026 0.219519
H56   H     H_    0.126141 0.337146 0.566609 0.219678
C57   C     C_3   0.206698 0.269467 0.658201 -0.921374
H57   H     H_    0.270897 0.286555 0.633444 0.270024
H58   H     H_    0.184818 0.207208 0.633586 0.263608
H59   H     H_    0.216807 0.264070 0.725295 0.259059
O16   O     O_3   0.897328 0.492334 0.355628 -0.651575
C58   C     C_3   0.885791 0.408288 0.328049 0.114488
H60   H     H_    0.813284 0.397787 0.314057 0.189087
H61   H     H_    0.908609 0.358571 0.373467 0.099920
C59   C     C_3   0.933691 0.396385 0.250613 -0.313011
H62   H     H_    0.920159 0.451107 0.208985 0.231174
H63   H     H_    0.006678 0.392855 0.266296 0.251220
C60   C     C_3   0.903709 0.315759 0.206717 -0.998199
H64   H     H_    0.913834 0.260213 0.247871 0.268781
H65   H     H_    0.943350 0.306668 0.153679 0.268586
H66   H     H_    0.832244 0.320373 0.184719 0.273782
O17   O     O_3   0.915503 0.503778 0.647050 -0.609725
C61   C     C_3   0.917003 0.429696 0.695760 0.117993
H67   H     H_    0.884145 0.445632 0.751474 0.160054
H68   H     H_    0.985692 0.410817 0.717092 0.168632
C62   C     C_3   0.865515 0.355834 0.654399 -0.428944
H69   H     H_    0.797143 0.376686 0.633143 0.240368
H70   H     H_    0.899653 0.334482 0.601077 0.203804
C63   C     C_3   0.859473 0.281224 0.712689 -0.947033
H71   H     H_    0.927252 0.257615 0.732627 0.262279
H72   H     H_    0.820996 0.229388 0.681696 0.273525
H73   H     H_    0.825195 0.300159 0.766708 0.262359
O18   O     O_3   0.080931 0.506115 0.357660 -0.640348
C64   C     C_3   0.101281 0.591759 0.341897 0.105330
H74   H     H_    0.164977 0.593076 0.312567 0.160831
H75   H     H_    0.112137 0.631094 0.397517 0.120822
C65   C     C_3   0.028543 0.631311 0.283654 -0.328249
H76   H     H_    0.014889 0.589753 0.230345 0.231585
H77   H     H_    0.966493 0.637918 0.315111 0.242423
C66   C     C_3   0.056116 0.718342 0.254358 -0.979569
H78   H     H_    0.069367 0.761267 0.306640 0.268365
H79   H     H_    0.001547 0.745519 0.213035 0.272227
H80   H     H_    0.116964 0.713497 0.220808 0.267708

loop_
_geom_bond_atom_site_label_1
_geom_bond_atom_site_label_2
_ccdc_geom_bond_type
C7    C10   T    
C44   H26   S    
C46   H30   S    
C27   C29   A    
C58   H61   S    
C14   C18   S    
C32   C54   S    
C41   C42   S    
C4    C8    S    
C56   C57   S    
C1    O3    A    
C55   H53   S    
C64   C65   S    
C57   H59   S    
C51   H43   S    
C60   H64   S    
C45   H28   S    
C54   H50   S    
C66   H79   S    
O9    C35   S    
C2    O4    A    
C21   C31   A    
C48   H35   S    
C22   C32   A    
C37   H11   S    
C65   H76   S    
C19   C21   S    
C41   H20   S    
C3    C7    S    
C50   H41   S    
C58   C59   S    
C19   O5    A    
C36   H8    S    
C16   O15   S    
C3    C33   A    
C52   H44   S    
C5    H2    S    
O13   C47   S    
O14   C50   S    
C37   H10   S    
C17   N4    T    
C51   H42   S    
C20   O8    A    
C60   H65   S    
C1    O1    A    
C27   N1    S    
C8    C9    T    
C52   H45   S    
C61   C62   S    
C14   C16   A    
C62   H70   S    
N3    Zn2   S    
N4    Zn1   S    
C15   O16   S    
O2    Zn2   S    
C23   C25   A    
C46   H31   S    
C59   C60   S    
C49   H38   S    
C49   H37   S    
C64   H75   S    
C11   O17   S    
C64   H74   S    
C66   H80   S    
C4    C34   A    
C53   H48   S    
C35   H6    S    
C38   C39   S    
C1    C9    S    
C41   H19   S    
C4    C6    A    
C50   C51   S    
C2    O2    A    
C66   H78   S    
C40   H17   S    
O12   C44   S    
C39   H14   S    
C36   C37   S    
C57   H58   S    
O3    Zn2   S    
C38   H13   S    
C24   O9    S    
O4    Zn1   S    
C33   H3    S    
C54   H52   S    
C37   H9    S    
O11   C41   S    
C42   C43   S    
C11   C16   A    
C19   O7    A    
C45   H29   S    
C12   C15   A    
C53   H47   S    
C52   H46   S    
C5    C34   A    
O8    Zn1   S    
C12   O18   S    
C62   C63   S    
C31   C53   S    
C49   H39   S    
C20   O6    A    
C39   H15   S    
C23   O10   S    
C20   C22   S    
C43   H23   S    
C46   H32   S    
C43   H24   S    
C21   C23   A    
C13   C15   A    
C22   C24   A    
C18   N3    T    
C38   H12   S    
O15   C55   S    
C2    C10   S    
C55   C56   S    
C3    C5    A    
N1    N2    D    
C60   H66   S    
C45   C46   S    
C42   H22   S    
C48   H36   S    
C53   H49   S    
C35   H5    S    
C63   H71   S    
C30   O14   S    
C34   H4    S    
C63   H73   S    
O7    Zn2   S    
C24   C26   A    
C56   H56   S    
C55   H54   S    
C40   H18   S    
O5    Zn1   S    
C58   H60   S    
C6    C33   A    
C57   H57   S    
C13   C17   S    
C25   C27   A    
C43   H25   S    
C6    H1    S    
C26   C28   A    
C61   H67   S    
C47   C48   S    
C29   O13   S    
O18   C64   S    
C63   H72   S    
C12   C14   A    
C40   H16   S    
C29   C31   A    
O17   C61   S    
O10   C38   S    
C30   C32   A    
C11   C13   A    
O1    Zn1   S    
C36   H7    S    
C39   C40   S    
C65   H77   S    
C25   O12   S    
C28   C30   A    
C61   H68   S    
C65   C66   S    
C47   H34   S    
C54   H51   S    
O16   C58   S    
C42   H21   S    
O6    Zn2   S    
C26   O11   S    
C47   H33   S    
C44   C45   S    
C44   H27   S    
C28   N2    S    
C59   H62   S    
C48   C49   S    
C62   H69   S    
C50   H40   S    
C51   C52   S    
C59   H63   S    
C56   H55   S    
C35   C36   S    
