data_mof_unit_4076.cif
_audit_creation_date              2012-12-11T17:41:18-0500
_audit_creation_method            fapswitch 2.2
_symmetry_space_group_name_H-M    P1
_symmetry_Int_Tables_number       1
_space_group_crystal_system       triclinic
_cell_length_a                    15.458435
_cell_length_b                    14.86302
_cell_length_c                    14.781082
_cell_angle_alpha                 109.6192
_cell_angle_beta                  121.027202
_cell_angle_gamma                 59.272773
_cell_volume                      2489.50950135

loop_
_atom_site_label
_atom_site_type_symbol
_atom_type_description
_atom_site_fract_x
_atom_site_fract_y
_atom_site_fract_z
_atom_type_partial_charge
C1    C     C_R   0.750461 0.996470 0.792469 -0.122044
C2    C     C_R   0.153487 0.189471 0.942964 -0.128965
C3    C     C_R   0.679094 0.625171 0.903184 -0.135439
C4    C     C_R   0.258079 0.115407 0.947819 -0.173863
C5    C     C_R   0.698059 0.716335 0.935055 0.201737
C6    C     C_R   0.294646 0.009803 0.958353 0.144884
C7    C     C_R   0.800564 0.706715 0.951208 -0.194553
C8    C     C_R   0.223603 0.978020 0.958865 -0.183822
C9    C     C_R   0.881879 0.608221 0.936766 -0.120463
C10   C     C_R   0.118332 0.052260 0.952368 -0.125617
C11   C     C_R   0.862066 0.518381 0.905760 -0.088234
C12   C     C_R   0.197221 0.061430 0.225320 -0.137453
C13   C     C_R   0.084293 0.158175 0.946544 -0.126687
C14   C     C_R   0.610421 0.867967 0.049476 0.178136
C15   C     C_R   0.411054 0.883729 0.867629 0.136807
C16   C     C_R   0.243243 0.290685 0.491213 -0.120168
C17   C     C_R   0.802585 0.727502 0.563145 -0.137984
C18   C     C_R   0.506513 0.928372 0.060060 -0.044423
C19   C     C_R   0.507876 0.854897 0.859667 0.019699
C20   C     C_R   0.406274 0.933859 0.965428 -0.102505
C21   C     C_R   0.607945 0.819294 0.948707 -0.116518
C22   C     C_2   0.150590 0.398232 0.616929 -0.216434
C23   C     C_R   0.211699 0.300062 0.567769 0.149364
C24   C     C_2   0.981598 0.656335 0.544263 -0.221628
C25   C     C_2   0.135306 0.490673 0.603337 -0.109906
C26   C     C_2   0.040953 0.585098 0.613961 -0.111748
C27   C     C_2   0.830808 0.131292 0.902250 -0.234011
C28   C     C_2   0.015999 0.045981 0.157618 -0.231387
C29   C     C_R   0.095122 0.717556 0.181869 -0.132001
C30   C     C_R   0.905124 0.185329 0.538205 -0.124978
C31   C     C_R   0.194567 0.649902 0.253703 -0.167603
C32   C     C_R   0.797879 0.248935 0.471184 -0.167185
C33   C     C_R   0.297276 0.627207 0.258923 0.110938
C34   C     C_R   0.865893 0.728569 0.523777 0.159780
C35   C     C_R   0.721521 0.324170 0.513281 0.106517
C36   C     C_R   0.298083 0.674602 0.191519 -0.148609
C37   C     C_R   0.754551 0.337363 0.623186 -0.157100
C38   C     C_R   0.198394 0.742441 0.120073 -0.087380
C39   C     C_R   0.861763 0.273697 0.689774 -0.133793
C40   C     C_R   0.594597 0.215310 0.488899 -0.150080
C41   C     C_R   0.406677 0.768565 0.439806 -0.142118
C42   C     C_R   0.097010 0.763259 0.114721 -0.112260
C43   C     C_R   0.936939 0.197472 0.647391 -0.089573
C44   C     C_R   0.409602 0.458078 0.341172 -0.238310
C45   C     C_R   0.505616 0.303115 0.439738 0.060895
C46   C     C_R   0.603344 0.484049 0.427118 -0.226207
C47   C     C_R   0.509865 0.383999 0.406990 0.063780
C48   C     C_R   0.500815 0.569900 0.390516 0.048439
C49   C     C_R   0.609770 0.394214 0.443729 0.024023
C50   C     C_R   0.403448 0.552155 0.332037 0.034371
C51   C     C_2   0.855276 0.109570 0.995648 -0.107940
C52   C     C_2   0.953083 0.118429 0.088674 -0.125620
C53   C     C_R   0.409628 0.978167 0.714049 -0.147820
C54   C     C_R   0.593215 0.955667 0.267525 -0.163809
C55   C     C_R   0.411145 0.292891 0.416695 -0.133965
C56   C     C_R   0.498588 0.674784 0.440724 0.057419
C57   C     C_R   0.591473 0.695181 0.512976 -0.111532
C58   C     C_R   0.592440 0.904597 0.786141 -0.155499
C59   C     C_R   0.409191 0.035563 0.191421 -0.135215
C60   C     C_R   0.242797 0.199129 0.584319 -0.149891
C61   C     C_R   0.803266 0.817426 0.470594 -0.163963
C62   C     C_R   0.750963 0.089857 0.701649 -0.150929
C63   C     C_R   0.196455 0.969899 0.316329 -0.137833
C64   C     C_R   0.777606 0.076162 0.802847 0.148585
C65   C     C_R   0.133307 0.023114 0.227115 0.152994
C66   C     C_3   0.720663 0.871396 0.133322 -0.336312
C67   C     C_R   0.502399 0.914358 0.792533 0.093275
C68   C     C_3   0.799459 0.773458 0.194694 -0.929280
C69   C     C_3   0.312117 0.865600 0.772898 -0.344052
C70   C     C_3   0.341719 0.779937 0.687259 -0.914014
C71   C     C_R   0.502761 0.974347 0.167557 0.099892
C72   C     C_R   0.760697 0.526859 0.888835 -0.130014
H1    H     H_    0.760034 0.964440 0.854284 0.085165
H2    H     H_    0.311520 0.140375 0.945427 0.118040
H3    H     H_    0.818296 0.774599 0.973876 0.094398
H4    H     H_    0.250454 0.896715 0.966137 0.113752
H5    H     H_    0.960332 0.601634 0.949470 0.118753
H6    H     H_    0.064321 0.027588 0.953709 0.136022
H7    H     H_    0.009488 0.586063 0.665224 0.126836
H8    H     H_    0.177951 0.494597 0.566002 0.127807
H9    H     H_    0.013932 0.653895 0.492870 0.130928
H10   H     H_    0.106866 0.395212 0.653788 0.133409
H11   H     H_    0.019884 0.814911 0.058606 0.096660
H12   H     H_    0.169238 0.118648 0.175645 0.101798
H13   H     H_    0.019918 0.148147 0.699125 0.117340
H14   H     H_    0.230100 0.352803 0.457065 0.089231
H15   H     H_    0.830302 0.678290 0.620783 0.086065
H16   H     H_    0.016497 0.734376 0.178077 0.122991
H17   H     H_    0.963649 0.126831 0.505565 0.108857
H18   H     H_    0.191251 0.615922 0.305563 0.107282
H19   H     H_    0.774111 0.239391 0.386794 0.117888
H20   H     H_    0.375816 0.658319 0.193618 0.115259
H21   H     H_    0.697101 0.396497 0.656858 0.119519
H22   H     H_    0.199717 0.778506 0.068451 0.108783
H23   H     H_    0.983851 0.995170 0.156280 0.131533
H24   H     H_    0.886277 0.283584 0.774124 0.103008
H25   H     H_    0.334921 0.444982 0.299732 0.120261
H26   H     H_    0.680101 0.491592 0.458723 0.128181
H27   H     H_    0.678757 0.182630 0.499177 0.123338
H28   H     H_    0.320388 0.782740 0.396973 0.121267
H29   H     H_    0.324525 0.993054 0.687037 0.106786
H30   H     H_    0.679129 0.908605 0.288387 0.144409
H31   H     H_    0.326271 0.338645 0.365632 0.084945
H32   H     H_    0.677590 0.641215 0.536857 0.095880
H33   H     H_    0.676768 0.849084 0.822868 0.103918
H34   H     H_    0.864448 0.177904 0.898912 0.125407
H35   H     H_    0.322862 0.070189 0.140130 0.134814
H36   H     H_    0.230630 0.177479 0.638454 0.100087
H37   H     H_    0.834165 0.850347 0.444607 0.097508
H38   H     H_    0.761097 0.146010 0.681155 0.118125
H39   H     H_    0.165876 0.944013 0.349775 0.096767
H40   H     H_    0.983805 0.170170 0.089544 0.131672
H41   H     H_    0.820466 0.064093 0.999413 0.124703
H42   H     H_    0.753878 0.747826 0.212033 0.264066
H43   H     H_    0.842854 0.706609 0.149206 0.269052
H44   H     H_    0.863754 0.791069 0.270486 0.237181
H45   H     H_    0.925235 0.442265 0.894761 0.094978
H46   H     H_    0.763025 0.878522 0.096110 0.169405
H47   H     H_    0.708408 0.946022 0.185536 0.164717
H48   H     H_    0.369747 0.803291 0.646768 0.264838
H49   H     H_    0.408174 0.705255 0.722843 0.259224
H50   H     H_    0.267169 0.765802 0.626410 0.246974
H51   H     H_    0.276866 0.838035 0.801753 0.195519
H52   H     H_    0.245456 0.940339 0.737793 0.178734
H53   H     H_    0.004768 0.216652 0.945402 0.089743
H54   H     H_    0.745355 0.457179 0.864714 0.105539
H55   H     H_    0.126317 0.271202 0.937089 0.109922
H56   H     H_    0.601048 0.630250 0.889988 0.110484
N1    N     N_R   0.705410 0.966550 0.689210 -0.044005
N2    N     N_R   0.556610 0.796750 0.548620 -0.039864
N3    N     N_R   0.556610 0.951620 0.703500 -0.038732
N4    N     N_R   0.443390 0.048380 0.296500 -0.042481
N5    N     N_R   0.294590 0.131500 0.522480 -0.042069
N6    N     N_R   0.705410 0.868500 0.477520 -0.039710
N7    N     N_R   0.705410 0.023370 0.632390 -0.041513
N8    N     N_R   0.294590 0.976630 0.367610 -0.042635
N9    N     N_R   0.294590 0.033450 0.310790 -0.043935
N10   N     N_R   0.294590 0.188320 0.465660 -0.044663
N11   N     N_R   0.705410 0.811680 0.534340 -0.042901
N12   N     N_R   0.556610 0.157790 0.497330 -0.039308
N13   N     N_R   0.443390 0.842210 0.502670 -0.042922
N14   N     N_R   0.443390 0.997080 0.657540 -0.039411
N15   N     N_R   0.556610 0.002920 0.342460 -0.040751
N16   N     N_R   0.443390 0.203250 0.451380 -0.037782
Ni1   Ni    Ni4+2 0.629830 0.882720 0.617850 0.211482
Ni2   Ni    Ni4+2 0.370170 0.117280 0.382150 0.210636
Ni3   Ni    Ni4+2 0.629830 0.013030 0.487540 0.211913
Ni4   Ni    Ni4+2 0.370170 0.986970 0.512460 0.206079

loop_
_geom_bond_atom_site_label_1
_geom_bond_atom_site_label_2
_ccdc_geom_bond_type
C66   C68   S    
C63   C65   A    
C29   C42   A    
C25   H8    S    
C14   C18   A    
C61   H37   S    
C40   H27   S    
C10   H6    S    
C47   C49   A    
C15   C19   A    
N6    Ni3   S    
C46   C49   A    
C51   H41   S    
C28   H23   S    
C6    C8    A    
C22   H10   S    
C14   C21   A    
C35   C37   A    
C24   C26   D    
C38   C42   A    
C1    N1    A    
C32   H19   S    
C52   H40   S    
C55   H31   S    
C8    H4    S    
C33   C36   A    
C56   C57   A    
C12   H12   S    
C7    C9    A    
C53   N14   A    
N2    N13   A    
C2    C13   A    
C70   H50   S    
C29   H16   S    
C62   C64   A    
N13   Ni4   S    
N1    N7    A    
C54   C71   A    
C53   H29   S    
C22   C25   D    
C35   C49   S    
C31   C33   A    
C19   C67   S    
C4    H2    S    
C60   H36   S    
C44   C47   A    
C13   H53   S    
C2    H55   S    
C36   H20   S    
N4    N15   A    
C48   C50   A    
C54   N15   A    
C46   H26   S    
N5    N10   A    
C17   H15   S    
N2    Ni1   S    
C16   H14   S    
C23   C60   A    
C30   H17   S    
N12   Ni3   S    
C27   C51   D    
C61   N6    A    
C45   C47   S    
C40   C45   A    
C15   C69   S    
C46   C48   A    
C59   N4    A    
C51   C52   S    
C43   H13   S    
C32   C35   A    
N14   Ni4   S    
N9    Ni2   S    
N16   Ni2   S    
C70   H48   S    
N6    N11   A    
C5    C7    A    
C11   C72   A    
C39   C43   A    
C69   H52   S    
C25   C26   S    
C34   C61   A    
C24   C34   S    
C72   H54   S    
C15   C20   A    
C62   N7    A    
N3    Ni1   S    
C2    C4    A    
C24   H9    S    
C41   C56   A    
C41   N13   A    
C44   H25   S    
C57   N2    A    
C62   H38   S    
C58   N3    A    
C31   H18   S    
C38   H22   S    
C14   C66   S    
C41   H28   S    
C37   H21   S    
C17   N11   A    
N5    Ni4   S    
C9    H5    S    
C9    C11   A    
C12   N9    A    
N8    Ni4   S    
N3    N14   A    
C68   H44   S    
C4    C6    A    
N15   Ni3   S    
C16   C23   A    
N7    Ni3   S    
C66   H47   S    
C30   C43   A    
C17   C34   A    
C11   H45   S    
C1    C64   A    
C44   C50   A    
C18   C71   S    
C48   C56   S    
C57   H32   S    
N11   Ni1   S    
C55   N16   A    
C19   C21   A    
C3    H56   S    
N1    Ni1   S    
C54   H30   S    
C8    C10   A    
C16   N10   A    
C42   H11   S    
N12   N16   A    
N8    N9    A    
C3    C5    A    
C10   C13   A    
C7    H3    S    
C6    C20   S    
C12   C65   A    
C26   H7    S    
C27   H34   S    
C58   H33   S    
C1    H1    S    
C63   N8    A    
C36   C38   A    
C28   C65   S    
C33   C50   S    
N4    Ni2   S    
C29   C31   A    
C30   C32   A    
C28   C52   D    
C70   H49   S    
N10   Ni2   S    
C40   N12   A    
C3    C72   A    
C18   C20   A    
C63   H39   S    
C69   C70   S    
C53   C67   A    
C59   H35   S    
C39   H24   S    
C27   C64   S    
C68   H43   S    
C58   C67   A    
C5    C21   S    
C45   C55   A    
C37   C39   A    
C66   H46   S    
C68   H42   S    
C69   H51   S    
C22   C23   S    
C60   N5    A    
C59   C71   A    
