data_mof_unit_3159.cif
_audit_creation_date              2012-12-10T19:16:28-0500
_audit_creation_method            fapswitch 2.2
_symmetry_space_group_name_H-M    P1
_symmetry_Int_Tables_number       1
_space_group_crystal_system       triclinic
_cell_length_a                    10.641411
_cell_length_b                    9.678531
_cell_length_c                    27.680033
_cell_angle_alpha                 90.037893
_cell_angle_beta                  90.066144
_cell_angle_gamma                 89.507874
_cell_volume                      2850.7482369

loop_
_atom_site_label
_atom_site_type_symbol
_atom_type_description
_atom_site_fract_x
_atom_site_fract_y
_atom_site_fract_z
_atom_type_partial_charge
C1    C     C_R   0.257499 0.500393 0.500176 0.851094
C2    C     C_R   0.416100 0.549588 0.975038 -0.014575
C3    C     C_R   0.642330 0.494702 0.974170 0.064949
C4    C     C_R   0.498425 0.500084 0.405865 0.890170
C5    C     C_R   0.528886 0.524602 0.949317 0.053012
C6    C     C_R   0.313761 0.612841 0.950188 0.013330
C7    C     C_R   0.314596 0.619801 0.899905 -0.187480
C8    C     C_R   0.418835 0.572575 0.873770 -0.042405
C9    C     C_R   0.528039 0.529732 0.898436 -0.056776
C10   C     C_R   0.636140 0.491405 0.872227 -0.016451
C11   C     C_R   0.630175 0.487923 0.821760 0.511592
C12   C     C_R   0.465960 0.610649 0.275489 -0.124692
C13   C     C_R   0.418099 0.570803 0.823297 0.532637
C14   C     C_R   0.444698 0.409047 0.725235 -0.003670
C15   C     C_R   0.436012 0.403619 0.674596 -0.071940
C16   C     C_R   0.742373 0.499204 0.501281 0.859228
C17   C     C_R   0.571169 0.605525 0.669406 -0.241868
C18   C     C_R   0.577666 0.611830 0.719297 -0.097825
C19   C     C_R   0.515153 0.514331 0.747243 0.255382
C20   C     C_R   0.412577 0.513408 0.024587 0.004139
C21   C     C_R   0.527730 0.503947 0.050284 0.037484
C22   C     C_R   0.643435 0.501403 0.025216 0.052679
C23   C     C_R   0.513693 0.492933 0.252475 0.268536
C24   C     C_R   0.299697 0.478746 0.048925 0.198757
C25   C     C_R   0.755824 0.506368 0.102241 0.007831
C26   C     C_R   0.750190 0.458699 0.947083 -0.214567
C27   C     C_R   0.746444 0.455417 0.896894 -0.129474
C28   C     C_R   0.498727 0.500155 0.593986 0.886264
C29   C     C_R   0.756079 0.505340 0.051875 -0.257555
C30   C     C_3   0.071312 0.597159 0.540267 -0.414475
C31   C     C_3   0.072572 0.352123 0.510748 -0.411147
C32   C     C_3   0.927584 0.602549 0.538700 -0.401919
C33   C     C_3   0.929842 0.351738 0.513317 -0.403370
C34   C     C_R   0.526683 0.495272 0.101189 -0.067665
C35   C     C_3   0.068007 0.549901 0.448828 0.040665
C36   C     C_3   0.120604 0.500799 0.499428 0.088590
C37   C     C_3   0.878185 0.497740 0.500859 0.137305
C38   C     C_3   0.922796 0.537516 0.449554 -0.431029
C39   C     C_3   0.373877 0.082470 0.487057 -0.231435
C40   C     C_3   0.374752 0.919910 0.485996 -0.223779
C41   C     C_3   0.589473 0.080539 0.462928 -0.237004
C42   C     C_3   0.591246 0.917659 0.463573 -0.236099
C43   C     C_3   0.536423 0.080866 0.546719 -0.227836
C44   C     C_3   0.534024 0.918422 0.546984 -0.234213
C45   C     C_R   0.411064 0.482764 0.125470 -0.051584
C46   C     C_R   0.409595 0.479201 0.175794 0.529000
C47   C     C_R   0.633210 0.497149 0.178679 0.505901
C48   C     C_R   0.553187 0.378625 0.279215 -0.091523
C49   C     C_R   0.545928 0.381853 0.329173 -0.252064
C50   C     C_R   0.457222 0.615817 0.326018 0.196575
C51   C     C_3   0.393436 0.864394 0.325876 -0.784779
C52   C     C_1   0.876687 0.514910 0.125943 0.263704
C53   C     C_1   0.099975 0.695181 0.438254 0.138164
C54   C     C_1   0.120667 0.465286 0.409018 0.105685
C55   C     C_1   0.354579 0.303223 0.651859 0.174513
C56   C     C_R   0.299678 0.469221 0.099155 -0.202240
C57   C     C_1   0.381993 0.307507 0.754908 0.210300
C58   C     C_1   0.215732 0.689224 0.974968 0.201291
C59   C     C_3   0.197284 0.307339 0.999240 -0.747652
C60   C     C_R   0.640535 0.499135 0.127713 -0.056868
C61   C     C_R   0.499106 0.499691 0.352976 -0.112176
C62   C     C_R   0.501443 0.501826 0.646698 -0.100339
H1    H     H_    0.589392 0.287315 0.261175 0.147970
H2    H     H_    0.111417 0.314873 0.545848 0.190731
H3    H     H_    0.889328 0.578561 0.575143 0.166660
H4    H     H_    0.899309 0.321167 0.550244 0.179467
H5    H     H_    0.433990 0.696071 0.253357 0.149802
H6    H     H_    0.896621 0.709317 0.529167 0.182583
H7    H     H_    0.893805 0.273140 0.487477 0.179365
H8    H     H_    0.875932 0.635734 0.438040 0.167542
H9    H     H_    0.889827 0.457604 0.423501 0.163001
H10   H     H_    0.342022 0.123322 0.451491 0.158601
H11   H     H_    0.348488 0.883850 0.449298 0.173916
H12   H     H_    0.837284 0.426798 0.963898 0.146922
H13   H     H_    0.304013 0.118890 0.514179 0.156699
H14   H     H_    0.302282 0.880810 0.511323 0.157971
H15   H     H_    0.563904 0.117292 0.426127 0.151741
H16   H     H_    0.569761 0.878115 0.426784 0.176603
H17   H     H_    0.631858 0.117388 0.556695 0.146190
H18   H     H_    0.627497 0.877174 0.558202 0.145019
H19   H     H_    0.471601 0.120342 0.574990 0.174048
H20   H     H_    0.465618 0.882937 0.574579 0.162179
H21   H     H_    0.685588 0.119525 0.470286 0.147193
H22   H     H_    0.687583 0.880043 0.472442 0.150193
H23   H     H_    0.621543 0.681569 0.648409 0.154535
H24   H     H_    0.212359 0.446833 0.117456 0.199887
H25   H     H_    0.234181 0.664378 0.881293 0.196138
H26   H     H_    0.578680 0.292494 0.349263 0.161371
H27   H     H_    0.326296 0.708927 0.371802 0.244651
H28   H     H_    0.368685 0.945724 0.352631 0.237929
H29   H     H_    0.318928 0.862045 0.297758 0.254186
H30   H     H_    0.485352 0.891297 0.309511 0.244587
H31   H     H_    0.106831 0.451225 0.042707 0.222936
H32   H     H_    0.109233 0.288832 0.978754 0.237574
H33   H     H_    0.210006 0.223417 0.026241 0.244073
H34   H     H_    0.830561 0.424736 0.877508 0.193646
H35   H     H_    0.276810 0.305084 0.973308 0.254746
H36   H     H_    0.631322 0.692853 0.736450 0.152247
H37   H     H_    0.846000 0.513517 0.034022 0.141490
H38   H     H_    0.108517 0.703719 0.536536 0.182921
H39   H     H_    0.103950 0.277662 0.482453 0.185454
H40   H     H_    0.103043 0.557842 0.576110 0.179447
N1    N     N_R   0.519153 0.488835 0.201045 -0.351931
N2    N     N_1   0.331966 0.226476 0.778656 -0.173422
N3    N     N_1   0.137363 0.750749 0.994677 -0.203556
N4    N     N_2   0.189064 0.439825 0.023321 -0.309624
N5    N     N_R   0.521494 0.524916 0.798619 -0.354821
N6    N     N_3   0.499750 0.138610 0.498940 -0.040564
N7    N     N_3   0.499750 0.861390 0.498940 -0.044033
N8    N     N_2   0.401942 0.732178 0.350110 -0.297207
N9    N     N_1   0.973509 0.522002 0.144819 -0.155924
N10   N     N_1   0.122487 0.809290 0.429691 -0.247545
N11   N     N_1   0.162113 0.399119 0.377941 -0.182556
N12   N     N_1   0.288933 0.223507 0.633855 -0.230120
O1    O     O_R   0.314910 0.616040 0.499990 -0.632403
O2    O     O_2   0.314758 0.613066 0.798928 -0.549841
O3    O     O_2   0.737948 0.504789 0.205993 -0.542711
O4    O     O_2   0.731267 0.446494 0.795968 -0.553035
O5    O     O_R   0.314910 0.383960 0.499990 -0.629923
O6    O     O_R   0.500140 0.616020 0.428740 -0.612133
O7    O     O_R   0.500140 0.383980 0.428740 -0.622751
O8    O     O_R   0.685320 0.616040 0.499970 -0.636221
O9    O     O_R   0.685320 0.383960 0.499970 -0.636135
O10   O     O_R   0.500090 0.616050 0.571230 -0.629460
O11   O     O_R   0.500090 0.383950 0.571230 -0.620568
O12   O     O_2   0.299507 0.466741 0.199564 -0.540660
Zn1   Zn    Zn3+2 0.500150 0.654960 0.499980 0.916215
Zn2   Zn    Zn3+2 0.500150 0.345040 0.499980 0.918415

loop_
_geom_bond_atom_site_label_1
_geom_bond_atom_site_label_2
_ccdc_geom_bond_type
C10   C27   A    
C38   H8    S    
C8    C13   A    
C41   N6    S    
C35   C53   S    
C41   C42   S    
C6    C58   S    
C35   C36   S    
C13   N5    A    
O6    Zn1   S    
C7    C8    A    
C45   C46   A    
C12   C23   A    
C26   C27   A    
C17   H23   S    
C31   H39   S    
C22   C29   A    
C42   N7    S    
C44   H20   S    
C51   H28   S    
C41   H15   S    
C51   H30   S    
C43   H17   S    
C41   H21   S    
C54   N11   T    
C30   H38   S    
C50   N8    S    
O1    Zn1   S    
C40   H11   S    
C18   C19   A    
C1    O5    A    
O8    Zn1   S    
C14   C57   S    
C16   O8    A    
C51   H29   S    
C47   C60   A    
N7    Zn1   S    
C7    H25   S    
C20   C24   A    
C45   C56   A    
C8    C9    A    
O11   Zn2   S    
C39   H10   S    
C31   C33   S    
C59   H32   S    
C39   H13   S    
C9    C10   A    
C33   H7    S    
C16   C37   S    
C32   H6    S    
O5    Zn2   S    
C21   C22   A    
C35   C54   S    
C34   C60   A    
C49   H26   S    
C27   H34   S    
C2    C6    A    
C59   H33   S    
C14   C19   A    
C46   O12   S    
C33   H4    S    
C25   C29   A    
C39   N6    S    
C12   H5    S    
C23   N1    S    
C59   N4    S    
C47   N1    A    
C29   H37   S    
C2    C20   A    
C44   H18   S    
C35   C38   S    
C49   C61   A    
O7    Zn2   S    
C39   C40   S    
C48   H1    S    
C21   C34   A    
C52   N9    T    
C4    C61   S    
C33   C37   S    
C40   H14   S    
C15   C55   S    
C43   C44   S    
C5    C9    A    
C37   C38   S    
C17   C62   A    
C56   H24   S    
C30   H40   S    
C17   C18   A    
C42   H22   S    
C34   C45   A    
C32   C37   S    
N6    Zn2   S    
C6    C7    A    
O10   Zn1   S    
C53   N10   T    
C48   C49   A    
C25   C60   A    
C42   H16   S    
C51   N8    S    
H31   N4    S    
C11   N5    A    
C43   H19   S    
C2    C5    A    
C24   N4    S    
C28   O11   A    
C57   N2    T    
C38   H9    S    
C23   C48   A    
C31   C36   S    
C31   H2    S    
C16   O9    A    
C3    C26   A    
C3    C5    A    
C12   C50   A    
C28   O10   A    
C40   N7    S    
C55   N12   T    
C24   C56   A    
C1    O1    A    
C46   N1    A    
C30   C36   S    
C58   N3    T    
C25   C52   S    
C44   N7    S    
C30   C32   S    
O9    Zn2   S    
C59   H35   S    
H27   N8    S    
C26   H12   S    
C15   C62   A    
C4    O7    A    
C43   N6    S    
C13   O2    S    
C10   C11   A    
C47   O3    S    
C20   C21   A    
C50   C61   A    
C14   C15   A    
C4    O6    A    
C3    C22   A    
C18   H36   S    
C11   O4    S    
C1    C36   S    
C19   N5    S    
C32   H3    S    
C28   C62   S    
