data_mof_unit_1670.cif
_audit_creation_date              2012-12-10T18:58:15-0500
_audit_creation_method            fapswitch 2.2
_symmetry_space_group_name_H-M    P1
_symmetry_Int_Tables_number       1
_space_group_crystal_system       triclinic
_cell_length_a                    11.028262
_cell_length_b                    10.863551
_cell_length_c                    9.593071
_cell_angle_alpha                 91.592819
_cell_angle_beta                  101.501461
_cell_angle_gamma                 91.042926
_cell_volume                      1125.46379225

loop_
_atom_site_label
_atom_site_type_symbol
_atom_type_description
_atom_site_fract_x
_atom_site_fract_y
_atom_site_fract_z
_atom_type_partial_charge
C1    C     C_R   0.498597 0.262890 0.497637 0.802459
C2    C     C_R   0.405513 0.447317 0.052200 -0.074816
C3    C     C_R   0.405375 0.445259 0.904386 0.447287
C4    C     C_R   0.263182 0.502781 0.443544 0.866210
C5    C     C_R   0.602029 0.539665 0.950890 0.178757
C6    C     C_3   0.658519 0.664629 0.959550 0.156599
C7    C     C_3   0.651680 0.671863 0.115297 -0.425061
C8    C     C_R   0.502672 0.737919 0.501902 0.808740
C9    C     C_R   0.737068 0.499670 0.557226 0.784302
C10   C     C_2   0.129412 0.516322 0.416222 -0.389517
C11   C     C_2   0.072115 0.532226 0.525873 -0.174162
C12   C     C_R   0.505499 0.130633 0.493231 -0.100968
C13   C     C_2   0.872815 0.494261 0.588764 0.195345
C14   C     C_2   0.938305 0.550095 0.503496 0.381131
C15   C     C_R   0.573766 0.071417 0.607687 0.077092
C16   C     C_R   0.451016 0.059922 0.371524 -0.209869
C17   C     C_R   0.450909 0.931183 0.375823 -0.203056
C18   C     C_R   0.507042 0.872089 0.500961 -0.104894
C19   C     C_R   0.578919 0.945016 0.611032 0.072908
C20   C     C_3   0.596554 0.950007 0.770664 -0.121346
C21   C     C_3   0.584678 0.090586 0.763642 -0.061720
C22   C     C_R   0.600522 0.543169 0.097899 0.211710
Cu1   Cu    Cu3+1 0.499990 0.499980 0.640670 0.960272
Cu2   Cu    Cu3+1 0.500010 0.500020 0.359330 0.967755
H1    H     H_    0.328830 0.404975 0.089440 0.172735
H2    H     H_    0.498246 0.124622 0.792891 0.157884
H3    H     H_    0.944068 0.670948 0.359440 0.330368
H4    H     H_    0.771107 0.143905 0.785593 0.231407
H5    H     H_    0.714098 0.152529 0.937809 0.227393
H6    H     H_    0.338455 0.342077 0.741585 0.359325
H7    H     H_    0.777758 0.671042 0.837076 0.359511
H8    H     H_    0.871200 0.388074 0.748474 0.345751
H9    H     H_    0.788344 0.941225 0.786814 0.240940
H10   H     H_    0.739455 0.939727 0.944442 0.244439
H11   H     H_    0.598079 0.728883 0.892773 0.144987
H12   H     H_    0.743583 0.680453 0.185980 0.267730
H13   H     H_    0.583499 0.739469 0.139188 0.158728
H14   H     H_    0.122907 0.527985 0.634995 0.239042
H15   H     H_    0.078243 0.516538 0.306979 0.181598
H16   H     H_    0.402631 0.103499 0.276849 0.159818
H17   H     H_    0.402273 0.878253 0.283492 0.160979
H18   H     H_    0.519649 0.904663 0.810600 0.144982
N1    N     N_R   0.500780 0.500930 0.148120 -0.232628
N2    N     N_R   0.500790 0.500890 0.852210 -0.269178
N3    N     N_3   0.693960 0.166364 0.828338 -0.558613
N4    N     N_3   0.719526 0.908542 0.838118 -0.578713
O1    O     O_R   0.500000 0.319640 0.618810 -0.592407
O2    O     O_3   0.306463 0.386279 0.817056 -0.724134
O3    O     O_3   0.781204 0.661586 0.940225 -0.679877
O4    O     O_3   0.933643 0.428693 0.702664 -0.738073
O5    O     O_R   0.500010 0.319680 0.381230 -0.584112
O6    O     O_R   0.320680 0.500000 0.575130 -0.567554
O7    O     O_R   0.320690 0.500040 0.337550 -0.589119
O8    O     O_R   0.499990 0.680320 0.618770 -0.594668
O9    O     O_R   0.500000 0.680360 0.381190 -0.576662
O10   O     O_R   0.679310 0.499960 0.662450 -0.590269
O11   O     O_R   0.679320 0.500000 0.424870 -0.529929
O12   O     O_3   0.880183 0.625450 0.398360 -0.766836

loop_
_geom_bond_atom_site_label_1
_geom_bond_atom_site_label_2
_ccdc_geom_bond_type
C11   H14   S    
C20   H18   S    
Cu1   Cu2   S    
C6    C7    S    
H10   N4    S    
C4    O7    A    
C7    C22   S    
C7    H12   S    
C9    O11   A    
C19   C20   S    
C12   C15   A    
C2    N1    A    
C21   H2    S    
Cu2   O5    S    
C2    C3    A    
C7    H13   S    
Cu1   O10   S    
C9    O10   A    
C13   C14   D    
C20   C21   S    
Cu2   O9    S    
C15   C19   A    
H9    N4    S    
C1    O5    A    
H8    O4    S    
Cu1   O6    S    
C1    C12   S    
C4    O6    A    
C12   C16   A    
C8    O9    A    
H6    O2    S    
C5    N2    A    
C16   H16   S    
C17   C18   A    
C2    H1    S    
C21   N3    S    
C3    N2    A    
C6    O3    S    
C5    C6    S    
C14   O12   S    
C11   C14   S    
C17   H17   S    
H4    N3    S    
Cu1   O1    S    
C10   C11   D    
C5    C22   A    
C4    C10   S    
C13   O4    S    
C20   N4    S    
C3    O2    S    
C15   C21   S    
C6    H11   S    
Cu1   O8    S    
C18   C19   A    
Cu2   O11   S    
C8    O8    A    
Cu2   N1    S    
C9    C13   S    
C1    O1    A    
H7    O3    S    
Cu2   O7    S    
C10   H15   S    
C8    C18   S    
Cu1   N2    S    
C22   N1    A    
H5    N3    S    
C16   C17   A    
H3    O12   S    
