data_mof_unit_2038.cif
_audit_creation_date              2012-12-11T17:17:07-0500
_audit_creation_method            fapswitch 2.2
_symmetry_space_group_name_H-M    P1
_symmetry_Int_Tables_number       1
_space_group_crystal_system       triclinic
_cell_length_a                    6.941361
_cell_length_b                    13.372354
_cell_length_c                    14.676607
_cell_angle_alpha                 98.863466
_cell_angle_beta                  89.848716
_cell_angle_gamma                 90.231993
_cell_volume                      1346.03475576

loop_
_atom_site_label
_atom_site_type_symbol
_atom_type_description
_atom_site_fract_x
_atom_site_fract_y
_atom_site_fract_z
_atom_type_partial_charge
O1    O     O_R   0.354890 0.151580 0.148210 -0.534320
O2    O     O_R   0.645110 0.848420 0.851790 -0.534320
O3    O     O_R   0.682370 0.152980 0.336770 -0.542588
O4    O     O_R   0.317630 0.847020 0.663230 -0.542588
O5    O     O_R   0.854980 0.348430 0.351800 -0.535493
O6    O     O_R   0.145020 0.651570 0.648200 -0.535493
C1    C     C_R   0.513392 0.131271 0.366428 0.677436
C2    C     C_R   0.486608 0.868729 0.633572 0.677436
O7    O     O_R   0.684450 0.139580 0.148000 -0.538099
O8    O     O_R   0.315550 0.860420 0.852000 -0.538100
O9    O     O_R   0.857080 0.334940 0.161680 -0.542250
O10   O     O_R   0.142920 0.665060 0.838320 -0.542250
C3    C     C_R   0.515526 0.112717 0.113988 0.734282
C4    C     C_R   0.484474 0.887283 0.886012 0.734282
O11   O     O_R   0.352790 0.165070 0.338330 -0.540549
O12   O     O_R   0.647210 0.834930 0.661670 -0.540548
O13   O     O_3   0.522170 0.314120 0.254710 -0.368893
O14   O     O_3   0.477830 0.685880 0.745290 -0.368893
V1    V     V_3+5 0.796120 0.238110 0.249130 1.412384
V2    V     V_3+5 0.203880 0.761890 0.750870 1.412384
O15   O     O_R   0.186930 0.347040 0.163240 -0.539955
O16   O     O_R   0.813070 0.652960 0.836760 -0.539955
C5    C     C_R   0.018276 0.368656 0.133659 0.700678
C6    C     C_R   0.981724 0.631344 0.866341 0.700677
O17   O     O_R   0.184850 0.360440 0.352010 -0.538459
O18   O     O_R   0.815150 0.639560 0.647990 -0.538459
C7    C     C_R   0.015833 0.387333 0.385983 0.731321
C8    C     C_R   0.984167 0.612667 0.614017 0.731321
V3    V     V_3+5 0.296410 0.261900 0.250880 1.413630
V4    V     V_3+5 0.703590 0.738100 0.749120 1.413630
O19   O     O_3   0.020490 0.185890 0.245290 -0.368896
O20   O     O_3   0.979510 0.814110 0.754710 -0.368896
C9    C     C_1   0.005150 0.466910 0.466342 -0.194767
C10   C     C_1   0.994850 0.533089 0.533658 -0.194767
C11   C     C_3   0.179311 0.531159 0.982265 -0.153043
C12   C     C_3   0.820689 0.468841 0.017735 -0.153043
C13   C     C_3   0.078739 0.549609 0.078192 -0.186055
C14   C     C_3   0.921261 0.450391 0.921808 -0.186055
C15   C     C_3   0.008370 0.438629 0.062996 -0.051124
C16   C     C_3   0.991629 0.561371 0.937004 -0.051125
C17   C     C_3   0.107426 0.420451 0.968280 0.211666
C18   C     C_3   0.892574 0.579549 0.031720 0.211666
C19   C     C_3   0.319320 0.026204 0.481420 -0.115694
C20   C     C_3   0.680680 0.973796 0.518579 -0.115694
C21   C     C_3   0.398146 0.916664 0.467603 -0.141458
C22   C     C_3   0.601854 0.083336 0.532397 -0.141458
H1    H     H_    0.314116 0.847445 0.441343 0.099497
H2    H     H_    0.685884 0.152555 0.558657 0.099497
H3    H     H_    0.170144 0.047929 0.465851 0.109232
H4    H     H_    0.829856 0.952071 0.534149 0.109232
C23   C     C_3   0.495691 0.938760 0.562721 -0.005222
C24   C     C_3   0.504309 0.061240 0.437279 -0.005222
C25   C     C_3   0.416842 0.047478 0.577341 -0.142697
C26   C     C_3   0.583158 0.952522 0.422659 -0.142697
C27   C     C_1   0.504926 0.033115 0.033647 -0.190352
C28   C     C_1   0.495074 0.966885 0.966352 -0.190352
H5    H     H_    0.142102 0.590541 0.142794 0.112312
H6    H     H_    0.857898 0.409459 0.857206 0.112312
H7    H     H_    0.327380 0.555857 0.967169 0.122131
H8    H     H_    0.672620 0.444143 0.032831 0.122132
C29   C     C_3   0.231499 0.329539 0.931829 -0.813395
H9    H     H_    0.283298 0.336216 0.861416 0.206057
H10   H     H_    0.357283 0.326423 0.977828 0.207550
H11   H     H_    0.145459 0.259049 0.929361 0.203529
C30   C     C_3   0.768501 0.670460 0.068171 -0.813395
H12   H     H_    0.716701 0.663784 0.138584 0.206057
H13   H     H_    0.854541 0.740951 0.070639 0.203529
H14   H     H_    0.642717 0.673577 0.022171 0.207550
H15   H     H_    0.348488 0.086232 0.641608 0.101604
H16   H     H_    0.651512 0.913768 0.358392 0.101604

loop_
_geom_bond_atom_site_label_1
_geom_bond_atom_site_label_2
_ccdc_geom_bond_type
C4    C28   S    
C27   C28   T    
O13   V3    S    
C12   C18   S    
C17   C29   S    
O4    C2    A    
V1    O19   S    
C15   C17   S    
C7    C9    S    
O9    V1    S    
C11   C13   S    
O7    V1    S    
C1    C24   S    
O3    C1    A    
C19   C24   S    
C21   C23   S    
O12   V4    S    
C22   C24   S    
C11   H7    S    
O9    C5    A    
C13   C18   S    
C29   H10   S    
O7    C3    A    
C6    C16   S    
C14   H6    S    
C19   C25   S    
O6    C8    A    
O8    V2    S    
C30   H13   S    
C18   C30   S    
O3    V1    S    
O14   V4    S    
V4    O20   S    
C16   C18   S    
C8    C10   S    
C2    O12   A    
O5    C7    A    
C11   C17   S    
C24   C26   S    
O11   V3    S    
C21   H1    S    
O17   V3    S    
C22   H2    S    
C14   C17   S    
O8    C4    A    
C19   H3    S    
C20   C22   S    
C25   H15   S    
O15   V3    S    
C23   C25   S    
C29   H11   S    
C26   H16   S    
C30   H14   S    
O10   V2    S    
O1    V3    S    
C9    C10   T    
C19   C21   S    
C2    C23   S    
C20   C23   S    
C21   C26   S    
O18   V4    S    
O15   C5    A    
O16   C6    A    
O1    C3    A    
V2    O20   S    
C20   H4    S    
O16   V4    S    
C12   C15   S    
C12   H8    S    
O5    V1    S    
O17   C7    A    
O6    V2    S    
O10   C6    A    
O18   C8    A    
O2    V4    S    
C12   C14   S    
C11   C16   S    
V3    O19   S    
C14   C16   S    
C5    C15   S    
C22   C25   S    
C1    O11   A    
O13   V1    S    
O14   V2    S    
C29   H9    S    
O2    C4    A    
O4    V2    S    
C20   C26   S    
C13   C15   S    
C30   H12   S    
C13   H5    S    
C3    C27   S    
