data_mof_unit_2173.cif
_audit_creation_date              2012-12-10T21:10:45-0500
_audit_creation_method            fapswitch 2.2
_symmetry_space_group_name_H-M    P1
_symmetry_Int_Tables_number       1
_space_group_crystal_system       triclinic
_cell_length_a                    17.569014
_cell_length_b                    16.75786
_cell_length_c                    10.717041
_cell_angle_alpha                 89.972635
_cell_angle_beta                  90.854513
_cell_angle_gamma                 89.962405
_cell_volume                      3154.94935557

loop_
_atom_site_label
_atom_site_type_symbol
_atom_type_description
_atom_site_fract_x
_atom_site_fract_y
_atom_site_fract_z
_atom_type_partial_charge
C1    C     C_R   0.353195 0.500096 0.499695 0.876857
C2    C     C_R   0.646789 0.500023 0.498782 0.877316
C3    C     C_R   0.729125 0.500123 0.490292 -0.029171
C4    C     C_R   0.270657 0.500381 0.494118 -0.030718
C5    C     C_R   0.767765 0.429133 0.462638 -0.207493
C6    C     C_R   0.230268 0.429501 0.514394 -0.207086
C7    C     C_R   0.846280 0.429618 0.452063 -0.168035
C8    C     C_R   0.151548 0.429316 0.503892 -0.166598
C9    C     C_R   0.885859 0.500956 0.468620 0.170189
C10   C     C_R   0.113500 0.499877 0.473516 0.169546
C11   C     C_1   0.965902 0.500519 0.465415 -0.075182
C12   C     C_1   0.033439 0.500149 0.467042 -0.075424
C13   C     C_R   0.431806 0.832355 0.487697 -0.282818
C14   C     C_R   0.568224 0.832234 0.512312 -0.281948
C15   C     C_R   0.433000 0.748278 0.488114 -0.032248
C16   C     C_R   0.567005 0.748165 0.511934 -0.032285
C17   C     C_R   0.500025 0.875337 0.500010 0.154997
C18   C     C_1   0.500050 0.962750 0.500040 -0.047162
C19   C     C_1   0.500073 0.035639 0.500054 0.006882
C20   C     C_R   0.508035 0.500392 0.259855 0.909621
C21   C     C_R   0.491853 0.500358 0.740088 0.910455
C22   C     C_R   0.442831 0.166866 0.435549 -0.138130
C23   C     C_R   0.557308 0.166811 0.564423 -0.137955
C24   C     C_R   0.444543 0.251918 0.435097 0.245165
C25   C     C_R   0.555536 0.251869 0.564820 0.245250
C26   C     C_R   0.500068 0.123770 0.500032 -0.025812
C27   C     C_R   0.546837 0.647520 0.106456 0.186498
C28   C     C_R   0.451567 0.647205 0.892923 0.186576
C29   C     C_R   0.524920 0.720594 0.050528 0.104069
C30   C     C_R   0.472863 0.720421 0.948851 0.103054
C31   C     C_R   0.483090 0.574928 0.940190 -0.025703
C32   C     C_R   0.515734 0.575059 0.059548 -0.025872
C33   C     C_R   0.515805 0.501840 0.125961 -0.078121
C34   C     C_R   0.483833 0.501713 0.873914 -0.079232
C35   C     C_R   0.507232 0.429545 0.062944 -0.236288
C36   C     C_R   0.493039 0.429487 0.937062 -0.236400
C37   C     C_R   0.848078 0.571973 0.495143 -0.169429
C38   C     C_R   0.152935 0.570867 0.454594 -0.168522
C39   C     C_R   0.769576 0.571676 0.505909 -0.219282
C40   C     C_R   0.231643 0.571234 0.464941 -0.214972
H1    H     H_    0.511392 0.372910 0.110811 0.169456
H2    H     H_    0.489496 0.372818 0.889275 0.169712
H3    H     H_    0.879320 0.627117 0.508746 0.131125
H4    H     H_    0.122896 0.625659 0.432143 0.130554
H5    H     H_    0.740749 0.627098 0.526880 0.146225
H6    H     H_    0.261816 0.626520 0.448818 0.145808
H7    H     H_    0.737471 0.373586 0.448286 0.141720
H8    H     H_    0.259312 0.374580 0.538872 0.140349
H9    H     H_    0.876101 0.374560 0.432010 0.128906
H10   H     H_    0.120400 0.374553 0.520021 0.128897
H11   H     H_    0.378009 0.863489 0.477874 0.151655
H12   H     H_    0.622030 0.863270 0.522150 0.151489
H13   H     H_    0.379976 0.716206 0.478440 0.134222
H14   H     H_    0.620023 0.716008 0.521668 0.134447
N1    N     N_R   0.500000 0.707230 0.500000 -0.089320
N2    N     N_R   0.500000 0.292770 0.500000 -0.125164
O1    O     O_R   0.389110 0.566570 0.499990 -0.631561
O2    O     O_R   0.610890 0.566570 0.500010 -0.631360
O3    O     O_R   0.389090 0.433480 0.499980 -0.609870
O4    O     O_R   0.610910 0.433480 0.500020 -0.610864
O5    O     O_R   0.500000 0.566560 0.316760 -0.601066
O6    O     O_R   0.500000 0.566560 0.683240 -0.600312
O7    O     O_R   0.499970 0.433470 0.316760 -0.609299
O8    O     O_R   0.500030 0.433470 0.683240 -0.609139
Zn1   Zn    Zn3+2 0.500000 0.588860 0.500000 0.948604
Zn2   Zn    Zn3+2 0.500000 0.411140 0.500000 0.966623
C41   C     C_R   0.381749 0.123040 0.367718 0.171615
C42   C     C_R   0.306787 0.124382 0.411176 -0.172078
C43   C     C_R   0.249659 0.081739 0.348156 -0.144041
C44   C     C_R   0.267098 0.037272 0.241986 -0.116035
C45   C     C_R   0.341696 0.035417 0.198543 -0.154952
C46   C     C_R   0.398914 0.078180 0.261023 -0.145599
H15   H     H_    0.292796 0.157959 0.494068 0.112779
H16   H     H_    0.191914 0.082916 0.381899 0.125720
H17   H     H_    0.222838 0.004141 0.193533 0.121863
H18   H     H_    0.355205 0.000792 0.116547 0.125020
H19   H     H_    0.456543 0.076324 0.226601 0.124417
C47   C     C_R   0.618517 0.122925 0.632044 0.171946
C48   C     C_R   0.693442 0.124391 0.588436 -0.171729
C49   C     C_R   0.750700 0.081706 0.651260 -0.144149
C50   C     C_R   0.733431 0.037082 0.757395 -0.115903
C51   C     C_R   0.658873 0.035116 0.801002 -0.154956
C52   C     C_R   0.601523 0.077913 0.738706 -0.145970
H20   H     H_    0.707305 0.158099 0.505579 0.112619
H21   H     H_    0.808415 0.082972 0.617394 0.125851
H22   H     H_    0.777791 0.003922 0.805701 0.121987
H23   H     H_    0.645497 0.000376 0.882975 0.125030
H24   H     H_    0.543927 0.075970 0.773253 0.124460
N3    N     N_2   0.387914 0.295804 0.368382 -0.247962
H25   H     H_    0.334139 0.290791 0.404568 0.204736
C53   C     C_3   0.389039 0.289905 0.233617 -0.744416
H26   H     H_    0.378677 0.349843 0.192797 0.246963
H27   H     H_    0.343110 0.249384 0.200013 0.227199
H28   H     H_    0.444535 0.266913 0.200375 0.220071
N4    N     N_2   0.612220 0.295728 0.631274 -0.248246
H29   H     H_    0.665891 0.291181 0.594487 0.204665
C54   C     C_3   0.611534 0.289589 0.766042 -0.746250
H30   H     H_    0.621823 0.349478 0.806946 0.246335
H31   H     H_    0.657696 0.249115 0.799147 0.227586
H32   H     H_    0.556214 0.266432 0.799685 0.220514
N5    N     N_2   0.605391 0.646052 0.200623 -0.268577
H33   H     H_    0.612970 0.698000 0.250541 0.256438
C55   C     C_3   0.676750 0.611373 0.162227 -0.801191
H34   H     H_    0.717381 0.610559 0.242564 0.242865
H35   H     H_    0.701601 0.647376 0.085853 0.240282
H36   H     H_    0.668467 0.548950 0.130173 0.243654
N6    N     N_2   0.393665 0.645475 0.797671 -0.267780
H37   H     H_    0.385802 0.697531 0.748034 0.256939
C56   C     C_3   0.322468 0.609561 0.833946 -0.803053
H38   H     H_    0.282749 0.608164 0.752372 0.240118
H39   H     H_    0.296223 0.645056 0.909593 0.240980
H40   H     H_    0.331379 0.547245 0.866185 0.242664
N7    N     N_2   0.557787 0.793341 0.093919 -0.316441
H41   H     H_    0.571802 0.833603 0.025539 0.235982
C57   C     C_3   0.519863 0.829919 0.197904 -0.810461
H42   H     H_    0.558631 0.874072 0.242515 0.249134
H43   H     H_    0.504533 0.784123 0.267458 0.269478
H44   H     H_    0.467414 0.861339 0.166617 0.228117
N8    N     N_2   0.439568 0.792976 0.905209 -0.316603
H45   H     H_    0.424964 0.833077 0.973454 0.235614
C58   C     C_3   0.477404 0.829935 0.801427 -0.810474
H46   H     H_    0.437776 0.872602 0.755112 0.249475
H47   H     H_    0.494739 0.784187 0.733088 0.269463
H48   H     H_    0.528602 0.863201 0.833376 0.227860

loop_
_geom_bond_atom_site_label_1
_geom_bond_atom_site_label_2
_ccdc_geom_bond_type
N5    H33   S    
C27   C29   A    
C36   H2    S    
N4    H29   S    
C25   N2    A    
C24   N3    S    
C54   H30   S    
C40   H6    S    
C5    H7    S    
C29   C30   A    
C6    H8    S    
C15   H13   S    
C18   C19   T    
C56   H39   S    
O3    Zn2   S    
C48   H20   S    
C2    O4    A    
C30   N8    S    
C28   N6    S    
C51   H23   S    
C41   C46   A    
C23   C26   A    
C20   O5    A    
C19   C26   S    
C21   O8    A    
C46   H19   S    
C54   H31   S    
C13   H11   S    
C47   C52   A    
C14   H12   S    
C4    C40   A    
C42   C43   A    
C58   H48   S    
N6    H37   S    
C44   C45   A    
N3    C53   S    
C34   C36   A    
C50   H22   S    
C39   H5    S    
C52   H24   S    
O7    Zn2   S    
O4    Zn2   S    
N5    C55   S    
N6    C56   S    
C14   C17   A    
N1    Zn1   S    
C50   C51   A    
N8    C58   S    
C41   C42   A    
C7    H9    S    
C4    C6    A    
C56   H40   S    
C53   H26   S    
C5    C7    A    
C47   C48   A    
C6    C8    A    
C21   C34   S    
C57   H43   S    
C42   H15   S    
C27   N5    S    
C35   C36   A    
C15   N1    A    
C37   H3    S    
C38   H4    S    
C49   H21   S    
C1    O1    A    
C53   H27   S    
O2    Zn1   S    
C31   C32   A    
N8    H45   S    
C57   H44   S    
C9    C37   A    
C17   C18   S    
C21   O6    A    
C31   C34   A    
C43   H16   S    
C55   H35   S    
C9    C11   S    
C58   H46   S    
C10   C12   S    
C20   C33   S    
C25   N4    S    
C13   C15   A    
C22   C24   A    
C8    H10   S    
C44   H17   S    
C54   H32   S    
N7    H41   S    
C7    C9    A    
C29   N7    S    
N4    C54   S    
O6    Zn1   S    
C27   C32   A    
C28   C31   A    
O1    Zn1   S    
C49   C50   A    
C3    C5    A    
C11   C12   T    
C2    O2    A    
C24   N2    A    
C13   C17   A    
C10   C38   A    
C1    C4    S    
C32   C33   A    
C20   O7    A    
C1    O3    A    
C2    C3    S    
C16   N1    A    
C45   C46   A    
C37   C39   A    
C56   H38   S    
C53   H28   S    
C38   C40   A    
C45   H18   S    
N2    Zn2   S    
C28   C30   A    
C33   C35   A    
C55   H36   S    
C14   C16   A    
C23   C25   A    
C23   C47   S    
C43   C44   A    
C35   H1    S    
C16   H14   S    
C22   C41   S    
C58   H47   S    
C3    C39   A    
C48   C49   A    
O5    Zn1   S    
C8    C10   A    
C51   C52   A    
C22   C26   A    
C55   H34   S    
N3    H25   S    
C57   H42   S    
O8    Zn2   S    
N7    C57   S    
