data_mof_unit_4158.cif
_audit_creation_date              2012-12-10T17:36:19-0500
_audit_creation_method            fapswitch 2.2
_symmetry_space_group_name_H-M    P1
_symmetry_Int_Tables_number       1
_space_group_crystal_system       triclinic
_cell_length_a                    12.374193
_cell_length_b                    13.225534
_cell_length_c                    15.857232
_cell_angle_alpha                 77.331446
_cell_angle_beta                  101.168154
_cell_angle_gamma                 116.870946
_cell_volume                      2245.18835327

loop_
_atom_site_label
_atom_site_type_symbol
_atom_type_description
_atom_site_fract_x
_atom_site_fract_y
_atom_site_fract_z
_atom_type_partial_charge
C1    C     C_R   0.854871 0.286730 0.507523 0.769504
C2    C     C_3   0.072007 0.433142 0.071359 0.271827
C3    C     C_3   0.999144 0.498540 0.082961 0.189329
C4    C     C_3   0.054337 0.623203 0.034407 -0.402689
C5    C     C_3   0.057137 0.623118 0.937261 -0.359917
C6    C     C_1   0.999241 0.498845 0.175215 -0.020853
C7    C     C_1   0.998889 0.499049 0.824754 -0.034284
C8    C     C_1   0.999192 0.499403 0.749145 -0.168927
C9    C     C_R   0.276680 0.022360 0.385290 -0.190037
C10   C     C_R   0.228203 0.834632 0.469948 -0.050728
C11   C     C_R   0.814377 0.085057 0.564217 -0.187898
C12   C     C_R   0.999680 0.499688 0.659491 0.814983
C13   C     C_R   0.735205 0.970104 0.581527 -0.144498
C14   C     C_R   0.612208 0.932594 0.551346 -0.171153
C15   C     C_R   0.566157 0.009619 0.499732 0.076700
C16   C     C_R   0.649999 0.124164 0.473756 0.081489
C17   C     C_R   0.439909 0.976458 0.472154 0.068412
C18   C     C_R   0.400948 0.054129 0.413031 0.161376
C19   C     C_R   0.486527 0.161474 0.380416 -0.239128
C20   C     C_R   0.609267 0.195319 0.409084 -0.197693
C21   C     C_R   0.350782 0.868458 0.502004 -0.216304
C22   C     C_R   0.190620 0.912663 0.413133 -0.196753
C23   C     C_R   0.145063 0.713289 0.487482 0.794046
C24   C     C_R   0.772695 0.163693 0.512444 -0.103836
C25   C     C_R   0.331278 0.309540 0.626042 0.304321
C26   C     C_R   0.758789 0.642058 0.380741 0.082098
C27   C     C_R   0.658102 0.664679 0.349011 -0.288746
C28   C     C_R   0.553176 0.606678 0.391337 -0.119648
C29   C     C_R   0.549159 0.528703 0.469016 0.041354
C30   C     C_R   0.652059 0.503309 0.495566 0.269511
C31   C     C_R   0.445080 0.470284 0.518158 -0.095402
C32   C     C_R   0.438593 0.375832 0.583691 -0.010145
C33   C     C_R   0.541041 0.352834 0.608095 -0.253842
C34   C     C_R   0.000122 0.500062 0.340489 0.806986
C35   C     C_R   0.645535 0.416506 0.566342 -0.160485
C36   C     C_R   0.348160 0.503325 0.506263 0.505610
C37   C     C_R   0.236991 0.343633 0.607430 -0.013947
C38   C     C_3   0.073485 0.435455 0.973025 -0.542647
C39   C     C_3   0.865475 0.435728 0.942357 0.395290
C40   C     C_3   0.866658 0.437346 0.040528 -0.505013
C41   C     C_1   0.999772 0.499366 0.250827 -0.170373
C42   C     C_3   0.998296 0.498473 0.917035 0.199532
Cu1   Cu    Cu3+1 0.098280 0.475420 0.519630 0.948052
Cu2   Cu    Cu3+1 0.901720 0.524580 0.480370 0.926162
H1    H     H_    0.024215 0.341982 0.101100 0.133094
H2    H     H_    0.168523 0.478351 0.955270 0.204643
H3    H     H_    0.998490 0.667589 0.039655 0.182357
H4    H     H_    0.095832 0.887474 0.387521 0.150194
H5    H     H_    0.458541 0.219654 0.332287 0.151121
H6    H     H_    0.246523 0.081256 0.340037 0.139929
H7    H     H_    0.374103 0.807718 0.549681 0.163025
H8    H     H_    0.908050 0.112834 0.593305 0.158660
H9    H     H_    0.556450 0.842271 0.567994 0.152053
H10   H     H_    0.768680 0.910059 0.620966 0.151556
H11   H     H_    0.034414 0.345971 0.959061 0.149540
H12   H     H_    0.671588 0.276898 0.377821 0.176789
H13   H     H_    0.154573 0.293407 0.638972 0.163157
H14   H     H_    0.543833 0.287530 0.662023 0.153070
H15   H     H_    0.839496 0.685824 0.346870 0.127580
H16   H     H_    0.475169 0.620437 0.358712 0.188934
H17   H     H_    0.660164 0.725014 0.290172 0.149308
H18   H     H_    0.718737 0.392942 0.590928 0.201263
H19   H     H_    0.829586 0.344533 0.931978 0.050673
H20   H     H_    0.822731 0.347736 0.074328 0.122665
H21   H     H_    0.811860 0.481585 0.048315 0.212169
H22   H     H_    0.153217 0.667546 0.921616 0.157490
H23   H     H_    0.007994 0.672384 0.896085 0.210297
H24   H     H_    0.147770 0.673270 0.064498 0.168749
N1    N     N_R   0.246300 0.438200 0.549400 -0.248112
N2    N     N_R   0.754300 0.561180 0.451130 -0.208221
O1    O     O_R   0.972520 0.318130 0.524690 -0.583861
O2    O     O_R   0.806530 0.359650 0.491530 -0.604097
O3    O     O_R   0.083030 0.479240 0.637150 -0.571349
O4    O     O_R   0.917040 0.520750 0.603990 -0.585900
O5    O     O_R   0.193470 0.640350 0.508470 -0.551696
O6    O     O_R   0.027480 0.681870 0.475310 -0.588496
O7    O     O_R   0.082960 0.479250 0.396010 -0.589536
O8    O     O_R   0.916970 0.520760 0.362850 -0.589238
O9    O     O_3   0.190717 0.475988 0.115097 -0.721729
H25   H     H_    0.239213 0.552920 0.083851 0.330292
O10   O     O_3   0.313884 0.211063 0.684825 -0.741927
H26   H     H_    0.355131 0.171157 0.667312 0.324967
O11   O     O_3   0.363153 0.608222 0.459734 -0.747188
H27   H     H_    0.291752 0.594736 0.415825 0.349618
O12   O     O_3   0.794704 0.491266 0.890575 -0.565506
C43   C     C_3   0.673025 0.411094 0.873368 -0.305155
H28   H     H_    0.632402 0.360771 0.934495 0.155722
H29   H     H_    0.667392 0.352909 0.829913 0.158649
H30   H     H_    0.618392 0.458210 0.839118 0.202809

loop_
_geom_bond_atom_site_label_1
_geom_bond_atom_site_label_2
_ccdc_geom_bond_type
Cu1   O3    S    
C22   H4    S    
C5    C42   S    
C33   H14   S    
C12   O4    A    
C19   C20   A    
C23   O6    A    
C5    H23   S    
C3    C6    S    
O10   H26   S    
C7    C8    T    
O12   C43   S    
C10   C22   A    
C26   C27   A    
C1    O1    A    
C30   C35   A    
C28   C29   A    
C38   C42   S    
C37   N1    A    
C34   O7    A    
C43   H29   S    
C9    C22   A    
C36   O11   S    
C15   C16   A    
C11   C24   A    
C18   C19   A    
C7    C42   S    
Cu2   O6    S    
C2    C38   S    
C2    O9    S    
C27   H17   S    
C25   C37   A    
C38   H11   S    
O11   H27   S    
C6    C41   T    
Cu2   N2    S    
C11   H8    S    
C26   H15   S    
C16   C20   A    
C25   C32   A    
C16   C24   A    
C13   C14   A    
C25   O10   S    
C34   C41   S    
C30   N2    A    
C39   C42   S    
C28   H16   S    
C10   C21   A    
Cu1   O5    S    
C1    O2    A    
C39   C40   S    
C4    H24   S    
C43   H28   S    
C4    C5    S    
C17   C21   A    
Cu1   Cu2   S    
C29   C30   A    
C19   H5    S    
C31   C32   A    
C8    C12   S    
C17   C18   A    
Cu2   O4    S    
C3    C40   S    
C40   H21   S    
C26   N2    A    
C39   O12   S    
C3    C4    S    
C21   H7    S    
C36   N1    A    
C13   H10   S    
C15   C17   A    
Cu1   O1    S    
C14   C15   A    
C9    H6    S    
C23   O5    A    
C5    H22   S    
C43   H30   S    
C10   C23   S    
Cu1   O7    S    
C39   H19   S    
C40   H20   S    
C32   C33   A    
Cu2   O8    S    
C2    C3    S    
C29   C31   A    
C34   O8    A    
C11   C13   A    
C33   C35   A    
Cu2   O2    S    
C35   H18   S    
C20   H12   S    
C38   H2    S    
C2    H1    S    
O9    H25   S    
C9    C18   A    
C14   H9    S    
C1    C24   S    
Cu1   N1    S    
C27   C28   A    
C31   C36   A    
C12   O3    A    
C37   H13   S    
C4    H3    S    
