data_mof_unit_4567.cif
_audit_creation_date              2012-12-11T15:46:55-0500
_audit_creation_method            fapswitch 2.2
_symmetry_space_group_name_H-M    P1
_symmetry_Int_Tables_number       1
_space_group_crystal_system       triclinic
_cell_length_a                    11.553759
_cell_length_b                    11.529012
_cell_length_c                    19.605016
_cell_angle_alpha                 90.153484
_cell_angle_beta                  89.942443
_cell_angle_gamma                 60.069122
_cell_volume                      2263.14384535

loop_
_atom_site_label
_atom_site_type_symbol
_atom_type_description
_atom_site_fract_x
_atom_site_fract_y
_atom_site_fract_z
_atom_type_partial_charge
C1    C     C_R   0.640199 0.116813 0.599457 0.541998
C2    C     C_1   0.652952 0.148890 0.668795 0.003900
C3    C     C_R   0.678450 0.636443 0.197905 -0.040897
C4    C     C_R   0.612189 0.746217 0.598750 0.537905
C5    C     C_R   0.561481 0.663748 0.230280 0.036937
C6    C     C_R   0.548789 0.685571 0.298381 0.040556
C7    C     C_R   0.783065 0.617772 0.308634 -0.049030
C8    C     C_R   0.793264 0.602620 0.237247 -0.124577
C9    C     C_3   0.420327 0.765888 0.214075 0.232850
C10   C     C_3   0.408831 0.802026 0.289643 0.121342
C11   C     C_R   0.655110 0.670402 0.338571 -0.043781
C12   C     C_1   0.640739 0.704125 0.668117 0.005632
C13   C     C_R   0.125708 0.200937 0.196086 0.015088
C14   C     C_R   0.167718 0.280524 0.228250 0.056102
C15   C     C_R   0.194788 0.266678 0.296492 0.019714
C16   C     C_R   0.241374 0.144871 0.598344 0.539012
C17   C     C_R   0.117264 0.108991 0.307756 -0.070389
C18   C     C_R   0.094495 0.117081 0.237303 0.206902
C19   C     C_3   0.285042 0.298918 0.212523 0.192449
C20   C     C_3   0.314578 0.283271 0.288360 -0.149415
C21   C     C_R   0.176822 0.176736 0.336737 0.002768
C22   C     C_R   0.679978 0.194006 0.197144 0.012571
C23   C     C_1   0.126230 0.199642 0.859186 0.008817
C24   C     C_R   0.763347 0.070421 0.226371 0.176339
C25   C     C_R   0.761627 0.050420 0.294798 -0.032073
C26   C     C_R   0.601943 0.285318 0.311783 -0.038259
C27   C     C_R   0.605787 0.304289 0.240798 -0.134887
C28   C     C_R   0.646360 0.113931 0.403594 0.519698
C29   C     C_3   0.786881 0.934258 0.208842 0.418014
C30   C     C_3   0.785885 0.911008 0.284933 -0.142288
C31   C     C_R   0.674291 0.153412 0.338109 -0.049545
C32   C     C_R   0.081319 0.231624 0.928442 0.548875
C33   C     C_R   0.684114 0.604284 0.929413 0.550153
C34   C     C_1   0.171886 0.169878 0.727809 -0.028905
C35   C     C_R   0.708729 0.207055 0.929945 0.539277
C36   C     C_R   0.079338 0.236598 0.126430 0.549989
C37   C     C_R   0.686682 0.604804 0.127135 0.560604
C38   C     C_R   0.709073 0.212391 0.127510 0.543555
C39   C     C_R   0.618687 0.735191 0.404158 0.539255
C40   C     C_R   0.240853 0.143178 0.402767 0.570181
C41   C     C_1   0.670713 0.646292 0.860022 0.008540
C42   C     C_1   0.654435 0.683798 0.728474 -0.029372
C43   C     C_1   0.663520 0.666588 0.799647 -0.028445
C44   C     C_2   0.903390 0.582407 0.350069 0.220733
C45   C     C_1   0.149986 0.182748 0.798955 -0.027811
C46   C     C_2   0.522297 0.402010 0.356910 0.220820
C47   C     C_2   0.404821 0.871343 0.163129 0.275301
C48   C     C_2   0.251976 0.434721 0.185766 0.306086
C49   C     C_1   0.195894 0.160042 0.667557 0.005515
C50   C     C_1   0.678893 0.191809 0.860603 0.007316
C51   C     C_1   0.658711 0.166690 0.729056 -0.029031
C52   C     C_1   0.665988 0.181025 0.800274 -0.027612
Cr1   Cr    Cr6+3 0.404720 0.198220 0.499960 1.038889
Cr2   Cr    Cr6+3 0.698290 0.897110 0.500380 1.033664
Cr3   Cr    Cr6+3 0.396970 0.904720 0.499610 1.055658
Cr4   Cr    Cr6+3 0.926290 0.152010 0.028150 1.100214
Cr5   Cr    Cr6+3 0.921440 0.451830 0.027490 1.075723
Cr6   Cr    Cr6+3 0.626370 0.446880 0.028730 1.083038
H1    H     H_    0.408978 0.190647 0.301587 0.170038
H2    H     H_    0.351324 0.201511 0.127394 0.334149
H3    H     H_    0.540104 0.394395 0.411449 0.124867
H4    H     H_    0.921521 0.762806 0.174068 0.369816
H5    H     H_    0.685551 0.960354 0.126192 0.350767
H6    H     H_    0.252229 0.767549 0.205360 0.355368
H7    H     H_    0.455913 0.927553 0.170621 0.166494
H8    H     H_    0.484193 0.923116 0.286519 0.318944
H9    H     H_    0.100577 0.990664 0.171547 0.377569
H10   H     H_    0.330698 0.459291 0.180797 0.156128
H11   H     H_    0.299405 0.375501 0.314452 0.179821
H12   H     H_    0.553271 0.404472 0.219968 0.189631
H13   H     H_    0.700144 0.900208 0.302069 0.133122
H14   H     H_    0.884609 0.835249 0.305423 0.182862
H15   H     H_    0.889576 0.564375 0.212723 0.210615
H16   H     H_    0.331967 0.790309 0.318031 0.202449
H17   H     H_    0.100321 0.040431 0.338126 0.146851
H18   H     H_    0.901418 0.571358 0.404902 0.123833
O1    O     O_R   0.267750 0.231960 0.575440 -0.505549
O2    O     O_R   0.596230 0.579400 0.952760 -0.489922
O3    O     O_R   0.639160 0.321170 0.958690 -0.496412
O4    O     O_R   0.527290 0.186640 0.570530 -0.497138
O5    O     O_R   0.821370 0.124220 0.104400 -0.460440
O6    O     O_R   0.037020 0.167050 0.097880 -0.473663
O7    O     O_R   0.056310 0.349620 0.102920 -0.488813
O8    O     O_R   0.797790 0.564880 0.097980 -0.502781
O9    O     O_R   0.596000 0.584270 0.104310 -0.458748
O10   O     O_R   0.638950 0.325690 0.099180 -0.512999
O11   O     O_3   0.824700 0.350240 0.028120 -0.287874
O12   O     O_R   0.685950 0.784660 0.430010 -0.521868
O13   O     O_R   0.728110 0.003450 0.576380 -0.502842
O14   O     O_R   0.682980 0.789190 0.570500 -0.497701
O15   O     O_R   0.499300 0.771880 0.575540 -0.507364
O16   O     O_R   0.285350 0.030870 0.569740 -0.500051
O17   O     O_R   0.270960 0.227070 0.423890 -0.518556
O18   O     O_R   0.530270 0.182120 0.430040 -0.516398
O19   O     O_R   0.731320 0.998570 0.424830 -0.508064
O20   O     O_2   0.006443 0.564945 0.323425 -0.509529
O21   O     O_3   0.385448 0.192748 0.174636 -0.724572
O22   O     O_2   0.435191 0.508014 0.333728 -0.522330
O23   O     O_R   0.502510 0.767000 0.423980 -0.476886
O24   O     O_3   0.911424 0.853191 0.177796 -0.634513
O25   O     O_3   0.680209 0.935416 0.174008 -0.725052
O26   O     O_3   0.347647 0.702354 0.196379 -0.645568
O27   O     O_2   0.337074 0.892181 0.112016 -0.488352
O28   O     O_3   0.401125 0.925986 0.302219 -0.730243
O29   O     O_3   0.044609 0.040091 0.211226 -0.671829
O30   O     O_2   0.138311 0.517449 0.169484 -0.487191
O31   O     O_R   0.288320 0.026340 0.429250 -0.465037
O32   O     O_3   0.499990 0.000020 0.499980 -0.254124
O33   O     O_R   0.821590 0.119350 0.952850 -0.502044
O34   O     O_R   0.037230 0.162540 0.957390 -0.486410
O35   O     O_R   0.056530 0.344750 0.951370 -0.503296
O36   O     O_R   0.798000 0.560370 0.957490 -0.494831

loop_
_geom_bond_atom_site_label_1
_geom_bond_atom_site_label_2
_ccdc_geom_bond_type
C25   C31   A    
C23   C45   T    
C32   O35   A    
Cr1   O1    S    
C19   C20   S    
C40   O17   A    
H5    O25   S    
Cr6   O11   S    
C30   H13   S    
C19   O21   S    
C7    C8    A    
C7    C11   A    
Cr4   O6    S    
C26   C27   A    
Cr3   O16   S    
C32   O34   A    
C13   C18   A    
C38   O10   A    
C28   O19   A    
C37   O9    A    
Cr2   O14   S    
C5    C6    A    
C33   O2    A    
Cr5   O36   S    
C36   O7    A    
C22   C38   S    
C28   O18   A    
C16   O1    A    
C44   H18   S    
C24   C29   S    
Cr3   O15   S    
H2    O21   S    
C48   O30   D    
C36   O6    A    
C9    O26   S    
C50   C52   T    
Cr5   O7    S    
C37   O8    A    
C4    C12   S    
C9    C10   S    
C35   O33   A    
C4    O15   A    
C46   O22   D    
C26   C31   A    
C13   C14   A    
C41   C43   T    
C12   C42   T    
C39   O12   A    
Cr6   O10   S    
Cr4   O34   S    
C4    O14   A    
C15   C20   S    
C47   O27   D    
C46   H3    S    
Cr1   O17   S    
C51   C52   S    
H8    O28   S    
Cr4   O5    S    
Cr1   O4    S    
C16   C49   S    
C13   C36   S    
C3    C8    A    
C6    C11   A    
C34   C45   S    
Cr6   O2    S    
C19   C48   S    
H9    O29   S    
Cr4   O11   S    
C3    C5    A    
C17   C21   A    
Cr5   O11   S    
Cr3   O31   S    
H6    O26   S    
C5    C9    S    
C29   C30   S    
C44   O20   D    
C39   O23   A    
C35   C50   S    
C17   C18   A    
Cr5   O8    S    
C29   O25   S    
C33   O36   A    
C7    C44   S    
C24   C25   A    
C20   H1    S    
C11   C39   S    
Cr2   O19   S    
C27   H12   S    
Cr6   O3    S    
Cr2   O13   S    
C40   O31   A    
H4    O24   S    
C9    C47   S    
C22   C27   A    
C38   O5    A    
C22   C24   A    
C20   H11   S    
C42   C43   S    
Cr6   O9    S    
Cr4   O33   S    
C25   C30   S    
C34   C49   T    
C1    O13   A    
C29   O24   S    
Cr1   O18   S    
C14   C19   S    
C28   C31   S    
C48   H10   S    
C6    C10   S    
C30   H14   S    
C16   O16   A    
Cr2   O32   S    
Cr3   O32   S    
C33   C41   S    
C23   C32   S    
C10   O28   S    
C18   O29   S    
Cr2   O12   S    
C10   H16   S    
Cr1   O32   S    
Cr5   O35   S    
C21   C40   S    
C1    C2    S    
C35   O3    A    
C8    H15   S    
C2    C51   T    
C26   C46   S    
C15   C21   A    
C3    C37   S    
Cr3   O23   S    
C17   H17   S    
C1    O4    A    
C14   C15   A    
C47   H7    S    
