data_mof_unit_513.cif
_audit_creation_date              2012-12-11T15:33:37-0500
_audit_creation_method            fapswitch 2.2
_symmetry_space_group_name_H-M    P1
_symmetry_Int_Tables_number       1
_space_group_crystal_system       triclinic
_cell_length_a                    27.118887
_cell_length_b                    7.203244
_cell_length_c                    22.746115
_cell_angle_alpha                 90.000084
_cell_angle_beta                  101.141884
_cell_angle_gamma                 89.999493
_cell_volume                      4359.56707099

loop_
_atom_site_label
_atom_site_type_symbol
_atom_type_description
_atom_site_fract_x
_atom_site_fract_y
_atom_site_fract_z
_atom_type_partial_charge
O1    O     O_R   0.207310 0.594030 0.676830 -0.532046
O2    O     O_R   0.792690 0.405970 0.323170 -0.531719
O3    O     O_R   0.292690 0.094030 0.823170 -0.532047
O4    O     O_R   0.707310 0.905970 0.176830 -0.531721
O5    O     O_R   0.197320 0.262370 0.795700 -0.540069
O6    O     O_R   0.802680 0.737630 0.204300 -0.539905
O7    O     O_R   0.302680 0.762370 0.704300 -0.540069
O8    O     O_R   0.697320 0.237630 0.295700 -0.539905
C1    C     C_R   0.184673 0.432508 0.811954 0.673230
C2    C     C_R   0.815327 0.567492 0.188046 0.673234
C3    C     C_R   0.315327 0.932507 0.688046 0.673232
C4    C     C_R   0.684673 0.067493 0.311953 0.673238
O9    O     O_R   0.201410 0.264250 0.675590 -0.533839
O10   O     O_R   0.798590 0.735750 0.324410 -0.534560
O11   O     O_R   0.298590 0.764250 0.824410 -0.533840
O12   O     O_R   0.701410 0.235750 0.175590 -0.534561
O13   O     O_R   0.296810 0.094940 0.702210 -0.538356
O14   O     O_R   0.703190 0.905060 0.297790 -0.538376
O15   O     O_R   0.203190 0.594940 0.797790 -0.538357
O16   O     O_R   0.796810 0.405060 0.202210 -0.538376
C5    C     C_R   0.189769 0.432519 0.653463 0.700252
C6    C     C_R   0.810227 0.567488 0.346542 0.700402
C7    C     C_R   0.310231 0.932518 0.846537 0.700251
C8    C     C_R   0.689773 0.067489 0.153458 0.700399
O17   O     O_3   0.281300 0.427390 0.758870 -0.372722
O18   O     O_3   0.718700 0.572610 0.241130 -0.372744
O19   O     O_3   0.218700 0.927390 0.741130 -0.372721
O20   O     O_3   0.781300 0.072610 0.258870 -0.372742
V1    V     V_3+5 0.244190 0.152150 0.748350 1.411744
V2    V     V_3+5 0.755810 0.847850 0.251650 1.410603
V3    V     V_3+5 0.255810 0.652150 0.751650 1.411744
V4    V     V_3+5 0.744190 0.347850 0.248350 1.410602
C9    C     C_R   0.655004 0.062678 0.094924 -0.072255
C10   C     C_R   0.345002 0.937462 0.905065 -0.072391
C11   C     C_R   0.844996 0.562665 0.405075 -0.072246
C12   C     C_R   0.154998 0.437474 0.594935 -0.072381
C13   C     C_R   0.640081 0.127139 0.988140 0.211544
C14   C     C_R   0.359724 0.876759 0.012069 0.212998
C15   C     C_R   0.859910 0.626982 0.511868 0.211549
C16   C     C_R   0.140285 0.376917 0.487922 0.213001
C17   C     C_R   0.672604 0.116647 0.043922 -0.198242
C18   C     C_R   0.327306 0.885215 0.956167 -0.196173
C19   C     C_R   0.827390 0.616539 0.456083 -0.198245
C20   C     C_R   0.172700 0.385323 0.543828 -0.196184
C21   C     C_R   0.603995 0.018858 0.090587 -0.219055
C22   C     C_R   0.396020 0.981061 0.909381 -0.217913
C23   C     C_R   0.896007 0.518897 0.409409 -0.219050
C24   C     C_R   0.103977 0.481023 0.590622 -0.217912
C25   C     C_R   0.569332 0.030351 0.034917 0.043454
C26   C     C_R   0.430644 0.970305 0.965095 0.044367
C27   C     C_R   0.930668 0.530340 0.465082 0.043458
C28   C     C_R   0.069356 0.470315 0.534905 0.044368
C29   C     C_R   0.588435 0.084664 0.983462 0.117651
C30   C     C_R   0.411473 0.917309 0.016630 0.118496
C31   C     C_R   0.911559 0.584551 0.516544 0.117649
C32   C     C_R   0.088534 0.417422 0.483364 0.118494
C33   C     C_R   0.516423 0.992066 0.028694 0.075355
C34   C     C_R   0.483581 0.007994 0.971281 0.075618
C35   C     C_R   0.983579 0.492098 0.471303 0.075355
C36   C     C_R   0.016417 0.507961 0.528721 0.075616
C37   C     C_R   0.504809 0.060343 0.921875 -0.201443
C38   C     C_R   0.495237 0.938804 0.078042 -0.200802
C39   C     C_R   0.995183 0.560205 0.578133 -0.201441
C40   C     C_R   0.004771 0.438941 0.421949 -0.200800
C41   C     C_R   0.555740 0.097029 0.927881 -0.176920
C42   C     C_R   0.444276 0.902745 0.072077 -0.175363
C43   C     C_R   0.944250 0.596854 0.572130 -0.176921
C44   C     C_R   0.055733 0.402919 0.427913 -0.175363
H1    H     H_    0.569336 0.136475 0.887912 0.163913
H2    H     H_    0.430770 0.861497 0.111935 0.162613
H3    H     H_    0.930649 0.636219 0.612103 0.163912
H4    H     H_    0.069245 0.361752 0.388050 0.162614
H5    H     H_    0.407375 0.018330 0.868133 0.104815
H6    H     H_    0.592680 0.980745 0.131787 0.104946
H7    H     H_    0.092619 0.518223 0.631875 0.104807
H8    H     H_    0.907326 0.480852 0.368206 0.104938
H9    H     H_    0.287900 0.850726 0.952340 0.106439
H10   H     H_    0.711911 0.152812 0.047832 0.107492
H11   H     H_    0.212109 0.350877 0.547652 0.106434
H12   H     H_    0.788080 0.652661 0.452176 0.107486
H13   H     H_    0.483039 0.075082 0.877283 0.128125
H14   H     H_    0.517068 0.922803 0.122554 0.127628
H15   H     H_    0.016949 0.574886 0.622730 0.128124
H16   H     H_    0.982943 0.422998 0.377433 0.127628
C45   C     C_R   0.629719 0.881873 0.367904 -0.159929
C46   C     C_R   0.370281 0.118126 0.632096 -0.159875
C47   C     C_R   0.870280 0.381871 0.132094 -0.159931
C48   C     C_R   0.129719 0.618128 0.867906 -0.159878
H17   H     H_    0.645037 0.754319 0.353731 0.124815
H18   H     H_    0.354965 0.245681 0.646272 0.124654
H19   H     H_    0.854962 0.254317 0.146266 0.124815
H20   H     H_    0.145035 0.745683 0.853730 0.124654
C49   C     C_R   0.593818 0.868914 0.404431 -0.138611
C50   C     C_R   0.406181 0.131085 0.595567 -0.138975
C51   C     C_R   0.906182 0.368912 0.095567 -0.138609
C52   C     C_R   0.093819 0.631087 0.904434 -0.138975
H21   H     H_    0.582796 0.732297 0.417009 0.134206
H22   H     H_    0.417204 0.267701 0.582990 0.134060
H23   H     H_    0.917203 0.232296 0.082988 0.134207
H24   H     H_    0.082796 0.767703 0.917012 0.134061
C53   C     C_R   0.572630 0.029386 0.424543 0.020165
C54   C     C_R   0.427366 0.970611 0.575452 0.020331
C55   C     C_R   0.927370 0.529385 0.075457 0.020165
C56   C     C_R   0.072634 0.470613 0.924548 0.020331
C57   C     C_R   0.588303 0.203606 0.406759 -0.132360
C58   C     C_R   0.411691 0.796392 0.593234 -0.132729
C59   C     C_R   0.911697 0.703604 0.093242 -0.132362
C60   C     C_R   0.088308 0.296394 0.906765 -0.132731
H25   H     H_    0.572864 0.330427 0.421285 0.139319
H26   H     H_    0.427128 0.669571 0.578705 0.139287
H27   H     H_    0.927136 0.830425 0.078717 0.139319
H28   H     H_    0.072871 0.169573 0.921293 0.139287
C61   C     C_R   0.624304 0.216709 0.370089 -0.158825
C62   C     C_R   0.375692 0.783290 0.629905 -0.159417
C63   C     C_R   0.875696 0.716707 0.129912 -0.158825
C64   C     C_R   0.124308 0.283292 0.870093 -0.159417
H29   H     H_    0.635502 0.353196 0.357620 0.120972
H30   H     H_    0.364492 0.646803 0.642373 0.120863
H31   H     H_    0.864498 0.853194 0.142382 0.120974
H32   H     H_    0.135507 0.146805 0.857625 0.120864
C65   C     C_R   0.645661 0.055878 0.350189 -0.047203
C66   C     C_R   0.354338 0.944121 0.649809 -0.046922
C67   C     C_R   0.854339 0.555876 0.149811 -0.047205
C68   C     C_R   0.145662 0.444123 0.850191 -0.046923
N1    N     N_R   0.514062 0.168477 0.483790 -0.278382
N2    N     N_R   0.485932 0.831520 0.516203 -0.278396
N3    N     N_R   0.985937 0.668477 0.016211 -0.278382
N4    N     N_R   0.014067 0.331521 0.983796 -0.278397
N5    N     N_R   0.480214 0.154481 0.519044 -0.283820
N6    N     N_R   0.519781 0.845516 0.480949 -0.283693
N7    N     N_R   0.019786 0.654482 0.980957 -0.283819
N8    N     N_R   0.980218 0.345516 0.019049 -0.283692
C69   C     C_R   0.465350 0.985728 0.536098 0.514631
C70   C     C_R   0.534645 0.014269 0.463895 0.514779
C71   C     C_R   0.034650 0.485729 0.963902 0.514631
C72   C     C_R   0.965354 0.514269 0.036105 0.514779
N9    N     N_3   0.659263 0.183885 0.936216 -0.671157
H33   H     H_    0.646690 0.319314 0.925747 0.228524
H34   H     H_    0.698533 0.189623 0.945894 0.235964
N10   N     N_3   0.340322 0.824410 0.064273 -0.673632
H35   H     H_    0.340161 0.943550 0.090491 0.227225
H36   H     H_    0.302936 0.780886 0.052300 0.234111
N11   N     N_3   0.840721 0.683623 0.563799 -0.671157
H37   H     H_    0.853288 0.819045 0.574291 0.228524
H38   H     H_    0.801451 0.689341 0.554119 0.235963
N12   N     N_3   0.159693 0.324673 0.435713 -0.673631
H39   H     H_    0.159850 0.443857 0.409514 0.227227
H40   H     H_    0.197080 0.281166 0.447682 0.234111

loop_
_geom_bond_atom_site_label_1
_geom_bond_atom_site_label_2
_ccdc_geom_bond_type
N1    C70   A    
O17   V3    S    
C48   C52   A    
O1    C5    A    
C56   C71   S    
C47   H19   S    
O19   V1    S    
C9    C21   A    
O3    C7    A    
C10   C18   A    
C48   C68   A    
O15   V3    S    
C25   C33   A    
C33   C38   A    
C5    C12   S    
C53   C70   S    
O7    C3    A    
C6    C11   S    
N9    H34   S    
C35   C40   A    
C26   C30   A    
C58   C62   A    
C36   C39   A    
C40   C44   A    
C57   C61   A    
N10   H36   S    
C23   H8    S    
C14   C18   A    
N7    C71   A    
C58   H26   S    
O4    C8    A    
C51   H23   S    
C44   H4    S    
C43   H3    S    
C50   H22   S    
N11   H37   S    
O1    V3    S    
C1    C68   S    
O13   V1    S    
O2    V4    S    
O3    V1    S    
C40   H16   S    
C46   C50   A    
C45   C49   A    
C1    O15   A    
C15   C31   A    
C4    C65   S    
C48   H20   S    
N2    C69   A    
C2    O16   A    
C16   C32   A    
C47   C51   A    
O2    C6    A    
C45   C65   A    
C10   C22   A    
C11   C19   A    
C16   C20   A    
O5    V1    S    
N8    C72   A    
C13   C29   A    
C34   C37   A    
O11   C7    A    
C38   H14   S    
C11   C23   A    
C35   C36   A    
O12   C8    A    
C13   N9    S    
C24   H7    S    
N6    C70   A    
O10   V2    S    
N4    N8    A    
C51   C55   A    
N12   H40   S    
C53   C57   A    
C39   C43   A    
O7    V3    S    
C38   C42   A    
C26   C34   A    
C63   C67   A    
N10   H35   S    
C2    C67   S    
C46   H18   S    
N4    C71   A    
C49   C53   A    
C17   H10   S    
C45   H17   S    
O18   V4    S    
C23   C27   A    
C19   H12   S    
C32   C44   A    
C64   H32   S    
C39   H15   S    
C21   H6    S    
O8    V4    S    
C55   C72   S    
O5    C1    A    
N1    N5    A    
C31   C43   A    
C14   C30   A    
C21   C25   A    
O8    C4    A    
C7    C10   S    
O9    C5    A    
N3    C72   A    
C59   C63   A    
C62   H30   S    
C61   H29   S    
O6    V2    S    
C15   N11   S    
C63   H31   S    
C52   C56   A    
O14   V2    S    
N5    C69   A    
C12   C20   A    
C3    C66   S    
C27   C35   A    
C49   H21   S    
C56   C60   A    
C29   C41   A    
N12   H39   S    
O16   V4    S    
O9    V1    S    
N11   H38   S    
C57   H25   S    
C3    O13   A    
C14   N10   S    
C64   C68   A    
C59   H27   S    
C20   H11   S    
O6    C2    A    
C15   C19   A    
O11   V3    S    
C30   C42   A    
O12   V4    S    
N9    H33   S    
C22   C26   A    
C8    C9    S    
C16   N12   S    
C9    C17   A    
O10   C6    A    
O20   V2    S    
C54   C69   S    
C37   H13   S    
C47   C67   A    
C60   C64   A    
C33   C34   A    
C42   H2    S    
C41   H1    S    
C52   H24   S    
C12   C24   A    
C27   C31   A    
C37   C41   A    
C13   C17   A    
C46   C66   A    
N3    N7    A    
C25   C29   A    
C62   C66   A    
C60   H28   S    
C24   C28   A    
C61   C65   A    
C50   C54   A    
C18   H9    S    
C28   C36   A    
C54   C58   A    
C4    O14   A    
N2    N6    A    
C55   C59   A    
C22   H5    S    
O4    V2    S    
C28   C32   A    
