data_mof_unit_2566.cif
_audit_creation_date              2012-12-10T19:25:54-0500
_audit_creation_method            fapswitch 2.2
_symmetry_space_group_name_H-M    P1
_symmetry_Int_Tables_number       1
_space_group_crystal_system       triclinic
_cell_length_a                    9.771585
_cell_length_b                    10.516817
_cell_length_c                    16.652814
_cell_angle_alpha                 90.507274
_cell_angle_beta                  85.455934
_cell_angle_gamma                 91.380623
_cell_volume                      1705.42667638

loop_
_atom_site_label
_atom_site_type_symbol
_atom_type_description
_atom_site_fract_x
_atom_site_fract_y
_atom_site_fract_z
_atom_type_partial_charge
Br1   Br    Br    0.868298 0.669871 0.646649 -0.314340
Br2   Br    Br    0.133527 0.334038 0.351849 -0.301816
C1    C     C_R   0.501929 0.742053 0.497787 1.006863
C2    C     C_3   0.624693 0.966037 0.469645 0.426291
C3    C     C_3   0.946441 0.566899 0.558615 0.376724
C4    C     C_3   0.053687 0.433198 0.441309 0.378437
C5    C     C_3   0.052971 0.614332 0.492856 -0.106400
C6    C     C_3   0.947100 0.385622 0.507055 -0.103857
C7    C     C_3   0.038707 0.453042 0.566303 -0.163420
C8    C     C_3   0.961323 0.547017 0.433693 -0.163711
C9    C     C_R   0.480993 0.501432 0.653413 0.932969
C10   C     C_R   0.519035 0.508278 0.347143 0.948975
C11   C     C_R   0.469090 0.520162 0.740387 -0.092573
C12   C     C_R   0.498093 0.257883 0.501791 1.021927
C13   C     C_R   0.531343 0.554621 0.264784 -0.085095
C14   C     C_R   0.587098 0.521802 0.782510 -0.107384
C15   C     C_R   0.421768 0.619904 0.236568 -0.138606
C16   C     C_R   0.579398 0.557226 0.862760 -0.135304
C17   C     C_R   0.434884 0.673701 0.160912 -0.145977
C18   C     C_R   0.453277 0.590583 0.902625 0.030253
C19   C     C_R   0.556158 0.659621 0.111125 0.045386
C20   C     C_R   0.332594 0.584645 0.861445 0.418468
C21   C     C_R   0.671438 0.604157 0.141642 0.384269
C22   C     C_R   0.341711 0.549042 0.780394 -0.170468
C23   C     C_3   0.403534 0.953546 0.452157 -0.386110
C24   C     C_R   0.657357 0.551077 0.218519 -0.209139
C25   C     C_2   0.446939 0.616355 0.989124 -0.173719
C26   C     C_2   0.549620 0.675570 0.024365 -0.143464
C27   C     C_3   0.596407 0.046203 0.546980 -0.383779
C28   C     C_3   0.524732 0.044208 0.425154 0.388089
C29   C     C_3   0.475096 0.955641 0.573971 0.388333
C30   C     C_3   0.495031 0.123249 0.501635 -0.368554
C31   C     C_3   0.504875 0.876607 0.497503 -0.361853
C32   C     C_3   0.375177 0.033755 0.529430 0.426034
H1    H     H_    0.685911 0.497070 0.753349 0.201542
H2    H     H_    0.672308 0.555874 0.893875 0.225768
H3    H     H_    0.325867 0.913145 0.413266 0.222018
H4    H     H_    0.674185 0.086431 0.585853 0.226474
H5    H     H_    0.101982 0.710528 0.487308 0.211936
H6    H     H_    0.898156 0.289396 0.512559 0.211689
H7    H     H_    0.163758 0.733939 0.019971 0.390540
H8    H     H_    0.778645 0.403421 0.038920 0.362579
H9    H     H_    0.602595 0.025548 0.207282 0.392030
H10   H     H_    0.391974 0.971562 0.791556 0.401297
H11   H     H_    0.026852 0.975905 0.620751 0.409755
H12   H     H_    0.325569 0.629710 0.272910 0.182454
H13   H     H_    0.972295 0.023514 0.377193 0.406786
H14   H     H_    0.075815 0.414343 0.622250 0.199328
H15   H     H_    0.924215 0.585819 0.377767 0.201402
H16   H     H_    0.743762 0.505173 0.241927 0.209331
H17   H     H_    0.249909 0.547141 0.747971 0.208521
H18   H     H_    0.636825 0.716353 0.988360 0.226239
H19   H     H_    0.361659 0.572976 0.025698 0.199387
H20   H     H_    0.346889 0.719175 0.138923 0.177555
N1    N     N_3   0.136700 0.499970 0.500060 -0.135386
N2    N     N_3   0.863300 0.500030 0.499940 -0.134325
O1    O     O_R   0.383390 0.686040 0.500000 -0.621486
O2    O     O_2   0.121449 0.515848 0.964082 -0.233123
O3    O     O_3   0.184222 0.758416 0.962907 -0.493939
O4    O     O_2   0.870803 0.716411 0.045641 -0.221651
O5    O     O_2   0.941034 0.550954 0.135080 -0.261414
O6    O     O_3   0.813397 0.481395 0.010415 -0.497462
O7    O     O_2   0.426724 0.171229 0.303721 -0.267300
O8    O     O_2   0.672357 0.199588 0.321866 -0.252641
O9    O     O_3   0.588236 0.985227 0.260907 -0.500856
O10   O     O_2   0.324234 0.801741 0.676277 -0.255451
O11   O     O_2   0.570245 0.825071 0.694941 -0.274642
O12   O     O_R   0.616610 0.313960 0.500000 -0.615938
O13   O     O_3   0.412463 0.013192 0.738696 -0.488743
O14   O     O_2   0.217772 0.168147 0.637798 -0.273718
O15   O     O_2   0.134793 0.137763 0.503405 -0.285556
O16   O     O_3   0.118317 0.945278 0.600426 -0.462996
O17   O     O_2   0.865742 0.862597 0.494876 -0.283769
O18   O     O_2   0.780726 0.830617 0.361131 -0.276947
O19   O     O_3   0.880536 0.054032 0.397031 -0.467111
O20   O     O_R   0.616650 0.686050 0.499970 -0.551004
O21   O     O_R   0.383350 0.313950 0.500030 -0.548483
O22   O     O_R   0.369590 0.500020 0.615820 -0.608750
O23   O     O_R   0.630410 0.499980 0.384180 -0.605546
O24   O     O_R   0.602840 0.500020 0.615790 -0.609374
O25   O     O_R   0.397160 0.499980 0.384210 -0.606887
O26   O     O_2   0.067100 0.640624 0.847996 -0.199522
S1    S     S_3+6 0.170245 0.623047 0.909089 0.104296
S2    S     S_3+6 0.830140 0.590537 0.083500 0.071842
S3    S     S_3+6 0.553492 0.105915 0.325622 0.086292
S4    S     S_3+6 0.445057 0.893119 0.673242 0.088377
S5    S     S_3+6 0.207236 0.076588 0.568652 0.094021
S6    S     S_3+6 0.792205 0.922952 0.429796 0.092109
Zn1   Zn    Zn3+2 0.344250 0.499990 0.500020 1.055242
Zn2   Zn    Zn3+2 0.655750 0.500010 0.499980 1.057764

loop_
_geom_bond_atom_site_label_1
_geom_bond_atom_site_label_2
_ccdc_geom_bond_type
C5    C8    S    
C9    C11   S    
C3    N2    S    
C5    N1    S    
C4    N1    S    
C6    N2    S    
O21   Zn1   S    
O1    Zn1   S    
Br1   C3    S    
C17   C19   A    
O3    S1    S    
O10   S4    D    
C27   C30   S    
C24   H16   S    
C14   H1    S    
C21   C24   A    
C1    C31   S    
C10   O23   A    
C12   O21   A    
O23   Zn2   S    
C23   H3    S    
C2    S6    S    
C6    C7    S    
C27   H4    S    
O12   Zn2   S    
C29   C31   S    
C7    N1    S    
C8    N2    S    
H8    O6    S    
C2    C27   S    
C23   C32   S    
O25   Zn1   S    
C22   H17   S    
N2    Zn2   S    
C29   S4    S    
O7    S3    D    
H11   O16   S    
Br2   C4    S    
O14   S5    D    
O22   Zn1   S    
C21   S2    S    
C15   H12   S    
H7    O3    S    
C3    C5    S    
C13   C24   A    
C4    C6    S    
C11   C22   A    
C30   C32   S    
O17   S6    D    
C3    C7    S    
C9    O22   A    
C10   C13   S    
H9    O9    S    
C29   C32   S    
H10   O13   S    
C28   S3    S    
C1    O20   A    
O15   S5    D    
C1    O1    A    
C17   H20   S    
C14   C16   A    
C19   C26   S    
C18   C20   A    
C19   C21   A    
C20   C22   A    
O8    S3    D    
O16   S5    S    
C23   C28   S    
C13   C15   A    
O6    S2    S    
C2    C31   S    
O11   S4    D    
C12   O12   A    
C12   C30   S    
O5    S2    D    
C4    C8    S    
C25   H19   S    
O9    S3    S    
C26   H18   S    
C18   C25   S    
C20   S1    S    
H13   O19   S    
C27   C29   S    
O2    S1    D    
C28   C30   S    
O4    S2    D    
C15   C17   A    
C10   O25   A    
C16   C18   A    
C32   S5    S    
O24   Zn2   S    
C9    O24   A    
O19   S6    S    
C7    H14   S    
N1    Zn1   S    
O26   S1    D    
C11   C14   A    
O20   Zn2   S    
C25   C26   D    
C5    H5    S    
C6    H6    S    
O18   S6    D    
C8    H15   S    
C16   H2    S    
C2    C28   S    
O13   S4    S    
C23   C31   S    
