data_mof_unit_1108.cif
_audit_creation_date              2012-12-10T19:22:06-0500
_audit_creation_method            fapswitch 2.2
_symmetry_space_group_name_H-M    P1
_symmetry_Int_Tables_number       1
_space_group_crystal_system       triclinic
_cell_length_a                    15.831899
_cell_length_b                    14.959207
_cell_length_c                    23.488645
_cell_angle_alpha                 89.611768
_cell_angle_beta                  90.231467
_cell_angle_gamma                 91.693192
_cell_volume                      5560.2805939

loop_
_atom_site_label
_atom_site_type_symbol
_atom_type_description
_atom_site_fract_x
_atom_site_fract_y
_atom_site_fract_z
_atom_type_partial_charge
C1    C     C_R   0.338083 0.498761 0.497599 0.913921
C2    C     C_R   0.331373 0.523646 0.969163 -0.184006
C3    C     C_R   0.328110 0.522638 0.028603 0.447099
C4    C     C_R   0.403877 0.508278 0.060263 -0.155477
C5    C     C_R   0.481058 0.498249 0.030402 -0.052717
C6    C     C_R   0.557738 0.488771 0.060336 -0.074449
C7    C     C_R   0.633429 0.477873 0.030925 -0.221892
C8    C     C_R   0.634335 0.473583 0.971709 0.493241
C9    C     C_R   0.407136 0.502926 0.120336 0.639320
C10   C     C_R   0.557309 0.490478 0.119486 0.627794
C11   C     C_R   0.498814 0.415049 0.239194 0.514262
C12   C     C_R   0.498336 0.500161 0.389111 0.897030
C13   C     C_R   0.504611 0.418983 0.298258 -0.336469
C14   C     C_R   0.491927 0.499482 0.327012 -0.240630
C15   C     C_R   0.470613 0.576802 0.295940 0.506954
C16   C     C_R   0.470734 0.574190 0.236834 -0.235115
C17   C     C_R   0.484189 0.494178 0.208472 0.090840
C18   C     C_R   0.447940 0.426770 0.761973 0.341503
C19   C     C_R   0.441038 0.433358 0.702371 0.183311
C20   C     C_R   0.490443 0.499540 0.673456 -0.413976
C21   C     C_R   0.533577 0.567109 0.704347 0.340712
C22   C     C_R   0.520179 0.573987 0.763006 0.337446
C23   C     C_R   0.662171 0.501306 0.498879 0.863436
C24   C     C_R   0.483129 0.500316 0.792064 -0.068937
C25   C     C_3   0.052801 0.594592 0.485764 0.103527
C26   C     C_3   0.049881 0.456157 0.551244 0.011679
C27   C     C_3   0.950688 0.467527 0.557732 0.575299
C28   C     C_3   0.954237 0.603510 0.475305 0.525550
C29   C     C_1   0.750726 0.504499 0.496642 -0.042066
C30   C     C_3   0.082991 0.492119 0.490765 -0.361835
C31   C     C_3   0.917172 0.506433 0.496044 -0.328691
C32   C     C_3   0.945264 0.436599 0.449203 -0.559435
C33   C     C_3   0.043702 0.432741 0.441076 0.686824
C34   C     C_1   0.825824 0.506504 0.495698 0.229739
C35   C     C_1   0.174567 0.492565 0.490823 0.281266
C36   C     C_R   0.497636 0.499705 0.611062 1.058723
C37   C     C_1   0.249630 0.495457 0.493401 0.024138
C38   C     C_3   0.401990 0.049702 0.489720 0.656020
C39   C     C_3   0.403703 0.941050 0.491872 0.653838
C40   C     C_3   0.536467 0.054082 0.550911 0.273610
C41   C     C_3   0.550161 0.951271 0.547489 0.222549
C42   C     C_3   0.497165 0.089866 0.494459 -0.281409
C43   C     C_3   0.500159 0.909819 0.495021 -0.322563
C44   C     C_3   0.544863 0.949836 0.439174 0.217359
C45   C     C_3   0.550944 0.056019 0.442200 0.150660
C46   C     C_1   0.499941 0.809228 0.497160 0.310941
C47   C     C_1   0.497790 0.190738 0.497150 0.324602
C48   C     C_R   0.556669 0.485246 0.881132 0.710575
C49   C     C_R   0.408908 0.513317 0.880650 0.713648
C50   C     C_R   0.406928 0.511572 0.940068 -0.103742
C51   C     C_R   0.482233 0.498515 0.970449 -0.072797
C52   C     C_R   0.558746 0.485859 0.940861 -0.134189
H1    H     H_    0.274057 0.534141 0.945102 0.237378
H2    H     H_    0.055922 0.616284 0.530298 0.170555
H3    H     H_    0.080993 0.505302 0.579611 0.160884
H4    H     H_    0.911468 0.441450 0.408733 0.254434
H5    H     H_    0.919646 0.370546 0.459999 0.266401
H6    H     H_    0.489340 0.066035 0.585021 0.067053
H7    H     H_    0.526510 0.923882 0.588081 -0.020227
H8    H     H_    0.519402 0.081129 0.403147 0.135909
H9    H     H_    0.502146 0.937260 0.402561 0.165560
H10   H     H_    0.692603 0.471513 0.053728 0.215040
H11   H     H_    0.518917 0.358790 0.321842 0.227733
H12   H     H_    0.458307 0.634353 0.212648 0.193718
N1    N     N_R   0.482779 0.499643 0.852804 -0.301404
N2    N     N_R   0.482781 0.494924 0.147821 -0.335911
N3    N     N_1   0.498630 0.731150 0.498860 -0.076524
N4    N     N_1   0.498630 0.268850 0.498860 -0.080211
O1    O     O_R   0.377210 0.574260 0.500060 -0.618914
O2    O     O_R   0.377210 0.425740 0.500060 -0.577671
O3    O     O_R   0.500050 0.574250 0.416220 -0.574251
O4    O     O_R   0.500050 0.425750 0.416220 -0.635157
O5    O     O_R   0.622930 0.574200 0.500060 -0.593990
O6    O     O_R   0.622930 0.425800 0.500060 -0.577324
O7    O     O_R   0.500100 0.574210 0.583900 -0.589397
O8    O     O_R   0.500100 0.425790 0.583900 -0.571713
O9    O     O_2   0.627159 0.469558 0.851116 -0.491151
O10   O     O_2   0.337900 0.529175 0.850661 -0.490893
O11   O     O_2   0.336309 0.503931 0.151756 -0.452465
O12   O     O_2   0.630722 0.487479 0.148827 -0.495863
Zn1   Zn    Zn3+2 0.500090 0.599130 0.500080 1.056122
Zn2   Zn    Zn3+2 0.500090 0.400870 0.500080 1.070969
S1    S     S_3+6 0.358728 0.374840 0.665225 0.122174
O13   O     O_2   0.393503 0.296353 0.634400 -0.230464
O14   O     O_2   0.288971 0.342475 0.704069 -0.175353
O15   O     O_3   0.317956 0.446305 0.617934 -0.553717
H13   H     H_    0.294475 0.494697 0.641104 0.338668
O16   O     O_3   0.589781 0.624855 0.676404 -0.580453
C53   C     C_3   0.673812 0.601788 0.690059 0.131829
H14   H     H_    0.717088 0.652628 0.670203 0.209180
H15   H     H_    0.686403 0.604320 0.736546 0.204224
C54   C     C_3   0.696464 0.509753 0.667485 -0.713478
H16   H     H_    0.762611 0.495934 0.678978 0.303571
H17   H     H_    0.656805 0.455639 0.687160 0.216603
H18   H     H_    0.688571 0.508235 0.620586 0.258580
S2    S     S_3+6 0.548591 0.674387 0.799510 0.053023
O17   O     O_2   0.629805 0.662550 0.831662 -0.279483
O18   O     O_2   0.559709 0.750857 0.758098 -0.260954
O19   O     O_3   0.472104 0.698864 0.845842 -0.538255
H19   H     H_    0.496373 0.748206 0.869219 0.392477
S3    S     S_3+6 0.915409 0.702455 0.513851 0.107525
O20   O     O_2   0.922049 0.784259 0.476361 -0.165509
O21   O     O_2   0.823486 0.689309 0.528225 -0.282726
O22   O     O_3   0.969983 0.730762 0.572541 -0.525219
H20   H     H_    0.939603 0.781324 0.589063 0.378471
S4    S     S_3+6 0.934862 0.539396 0.620512 0.057311
O23   O     O_2   0.856489 0.592066 0.614192 -0.289240
O24   O     O_2   0.924325 0.483223 0.673422 -0.217855
O25   O     O_3   0.017886 0.608595 0.634906 -0.567342
H21   H     H_    0.004623 0.636238 0.671899 0.404452
S5    S     S_3+6 0.098510 0.362440 0.587919 0.149938
O26   O     O_2   0.056033 0.273283 0.577561 -0.141119
O27   O     O_2   0.189612 0.355705 0.572270 -0.255581
O28   O     O_3   0.094422 0.381989 0.658319 -0.409574
H22   H     H_    0.135326 0.432222 0.665053 0.372206
S6    S     S_3+6 0.129032 0.682627 0.463821 0.061809
O29   O     O_2   0.189654 0.652660 0.419359 -0.294772
O30   O     O_2   0.087639 0.765729 0.443103 -0.217963
O31   O     O_3   0.187215 0.710327 0.521547 -0.584276
H23   H     H_    0.151164 0.749722 0.544151 0.382580
S7    S     S_3+6 0.889936 0.363357 0.578943 0.111383
O32   O     O_2   0.799789 0.386737 0.589487 -0.354699
O33   O     O_2   0.888744 0.288901 0.536645 -0.236645
O34   O     O_3   0.926030 0.320391 0.640544 -0.399463
H24   H     H_    0.883825 0.273249 0.651515 0.372177
S8    S     S_3+6 0.916703 0.632766 0.401789 0.156860
O35   O     O_2   0.966703 0.711115 0.378051 -0.105807
O36   O     O_2   0.915809 0.562477 0.356664 -0.269881
O37   O     O_3   0.816104 0.665827 0.406892 -0.473488
H25   H     H_    0.780137 0.613179 0.396362 0.343736
S9    S     S_3+6 0.079308 0.470548 0.370272 0.127522
O38   O     O_2   0.168790 0.442147 0.361932 -0.280825
O39   O     O_2   0.024514 0.425442 0.325877 -0.186776
O40   O     O_3   0.078686 0.580384 0.356993 -0.444292
H26   H     H_    0.099463 0.587430 0.317439 0.396113
S10   S     S_3+6 0.075874 0.314937 0.441131 0.094025
O41   O     O_2   0.164573 0.307170 0.462989 -0.334317
O42   O     O_2   0.018119 0.253967 0.474713 -0.218929
O43   O     O_3   0.074106 0.273935 0.374523 -0.448007
H27   H     H_    0.102322 0.215817 0.377306 0.376200
O44   O     O_3   0.347195 0.900709 0.533724 -0.652422
C55   C     C_3   0.374122 0.890674 0.590518 0.023162
H28   H     H_    0.395728 0.955507 0.608734 0.170227
H29   H     H_    0.421304 0.837633 0.593683 0.162414
C56   C     C_3   0.300352 0.855713 0.626598 -0.708566
H30   H     H_    0.275837 0.790853 0.609665 0.275652
H31   H     H_    0.322098 0.845041 0.671082 0.232764
H32   H     H_    0.248483 0.903828 0.627182 0.240306
O45   O     O_3   0.355234 0.083961 0.536617 -0.660428
C57   C     C_3   0.266267 0.069273 0.534116 0.029488
H33   H     H_    0.247185 0.008716 0.558289 0.203074
H34   H     H_    0.239894 0.062446 0.490705 0.160773
C58   C     C_3   0.224200 0.146751 0.562632 -0.558111
H35   H     H_    0.242451 0.209623 0.540266 0.295048
H36   H     H_    0.154531 0.136618 0.560748 0.243654
H37   H     H_    0.244492 0.151592 0.607859 0.279930
S11   S     S_3+6 0.228083 0.543480 0.059514 0.101360
O46   O     O_2   0.236641 0.621427 0.099427 -0.242497
O47   O     O_2   0.163940 0.564942 0.014439 -0.265536
O48   O     O_3   0.193667 0.451972 0.095529 -0.460322
H38   H     H_    0.142050 0.470589 0.115390 0.403738
O49   O     O_3   0.613839 0.101097 0.562895 -0.494627
C59   C     C_3   0.623354 0.117492 0.621731 0.119233
H39   H     H_    0.617673 0.054195 0.646787 0.130526
H40   H     H_    0.574996 0.164729 0.636308 0.163257
C60   C     C_3   0.710302 0.160021 0.632459 -0.658951
H41   H     H_    0.717063 0.223829 0.608267 0.295515
H42   H     H_    0.718578 0.173948 0.678549 0.195400
H43   H     H_    0.760081 0.114211 0.618627 0.263017
O50   O     O_3   0.638046 0.935501 0.542866 -0.482174
C61   C     C_3   0.666654 0.875136 0.584966 0.156021
H44   H     H_    0.643042 0.806120 0.575323 0.162473
H45   H     H_    0.646056 0.894041 0.628433 0.122137
C62   C     C_3   0.762709 0.877046 0.585586 -0.608552
H46   H     H_    0.787188 0.944816 0.597271 0.235892
H47   H     H_    0.785622 0.827872 0.617288 0.195814
H48   H     H_    0.787284 0.859981 0.543049 0.318717
S12   S     S_3+6 0.657022 0.107199 0.436481 0.153616
O51   O     O_2   0.656215 0.205346 0.449483 -0.278513
O52   O     O_2   0.718693 0.064296 0.476107 -0.127155
O53   O     O_3   0.691317 0.097793 0.369247 -0.458959
H49   H     H_    0.749855 0.123075 0.369712 0.402773
S13   S     S_3+6 0.633587 0.889357 0.410645 0.145474
O54   O     O_2   0.655294 0.926582 0.352819 -0.196727
O55   O     O_2   0.710970 0.893828 0.447632 -0.159779
O56   O     O_3   0.604777 0.781224 0.401714 -0.534698
H50   H     H_    0.654521 0.753386 0.384525 0.406240
O57   O     O_3   0.367498 0.075012 0.435157 -0.639764
C63   C     C_3   0.338729 0.163790 0.429147 0.082023
H51   H     H_    0.346336 0.205959 0.467454 0.180193
H52   H     H_    0.270001 0.160184 0.419499 0.189523
C64   C     C_3   0.381376 0.209944 0.378355 -0.722931
H53   H     H_    0.370179 0.169784 0.339314 0.289193
H54   H     H_    0.354751 0.277137 0.371842 0.238637
H55   H     H_    0.450382 0.218345 0.385449 0.237133
O58   O     O_3   0.374446 0.909814 0.437216 -0.643653
C65   C     C_3   0.288071 0.883294 0.433064 0.275052
H56   H     H_    0.246265 0.924166 0.459321 0.160645
H57   H     H_    0.280760 0.812149 0.446282 0.225293
C66   C     C_3   0.259613 0.892494 0.371485 -0.756810
H58   H     H_    0.302306 0.855853 0.343202 0.254731
H59   H     H_    0.194206 0.864766 0.366479 0.261263
H60   H     H_    0.261082 0.964163 0.358751 0.269654
O59   O     O_3   0.710644 0.463929 0.944286 -0.547881
C67   C     C_3   0.732429 0.373114 0.947031 0.106637
H61   H     H_    0.680545 0.328769 0.929939 0.164918
H62   H     H_    0.746941 0.352916 0.991637 0.147131
C68   C     C_3   0.810744 0.359895 0.911128 -0.630318
H63   H     H_    0.864170 0.402257 0.927484 0.266530
H64   H     H_    0.828619 0.288707 0.913004 0.204390
H65   H     H_    0.797899 0.378482 0.866120 0.276696
S14   S     S_3+6 0.509998 0.310853 0.205197 0.072227
O60   O     O_2   0.600460 0.302360 0.187395 -0.236509
O61   O     O_2   0.486830 0.235779 0.245592 -0.274952
O62   O     O_3   0.447073 0.303885 0.147439 -0.541003
H66   H     H_    0.466944 0.251678 0.126104 0.392072
O63   O     O_3   0.452549 0.656391 0.322334 -0.576889
C69   C     C_3   0.366835 0.654274 0.339630 0.164328
H67   H     H_    0.360487 0.704278 0.373947 0.198641
H68   H     H_    0.345697 0.588598 0.358266 0.138761
C70   C     C_3   0.308242 0.679710 0.290660 -0.786456
H69   H     H_    0.303395 0.624846 0.259131 0.274932
H70   H     H_    0.244031 0.691511 0.307323 0.260073
H71   H     H_    0.332604 0.741586 0.269241 0.266212
S15   S     S_3+6 0.417041 0.326651 0.798981 0.097710
O64   O     O_2   0.328861 0.335386 0.821334 -0.213442
O65   O     O_2   0.419500 0.247612 0.759905 -0.223408
O66   O     O_3   0.482720 0.308261 0.853984 -0.589955
H72   H     H_    0.454561 0.260006 0.876649 0.387811

loop_
_geom_bond_atom_site_label_1
_geom_bond_atom_site_label_2
_ccdc_geom_bond_type
C61   H44   S    
C45   H8    S    
S8    O35   D    
C18   S15   S    
C65   C66   S    
C19   C20   A    
S13   O54   D    
S9    O40   S    
C26   H3    S    
O28   H22   S    
C27   S7    S    
O45   C57   S    
C7    C8    A    
O53   H49   S    
S6    O29   D    
C25   C28   S    
C61   H45   S    
C17   N2    S    
S3    O20   D    
C49   N1    A    
C30   C35   S    
C18   C24   A    
C23   C29   S    
C59   H40   S    
O6    Zn2   S    
C38   C42   S    
C70   H71   S    
S13   O55   D    
C5    C6    A    
O50   C61   S    
C15   C16   A    
S2    O19   S    
S15   O66   S    
S11   O48   S    
C49   O10   S    
C63   H52   S    
C18   C19   A    
C9    O11   S    
C65   H57   S    
C9    N2    A    
O66   H72   S    
S7    O34   S    
C2    C50   A    
C62   H46   S    
C59   H39   S    
O44   C55   S    
C28   S3    S    
S11   O46   D    
C58   H35   S    
C39   O44   S    
C66   H58   S    
C57   C58   S    
S2    O18   D    
C64   H53   S    
C48   N1    A    
C58   H36   S    
C36   O8    A    
C8    C52   A    
C38   O45   S    
C30   C33   S    
C1    C37   S    
O16   C53   S    
C33   S9    S    
C40   C42   S    
C12   O4    A    
C21   O16   S    
S11   O47   D    
C13   C14   A    
C60   H42   S    
O59   C67   S    
C41   C43   S    
C55   C56   S    
C63   H51   S    
C32   H5    S    
C23   O5    A    
S10   O43   S    
C19   S1    S    
O5    Zn1   S    
O22   H20   S    
C56   H31   S    
C28   S8    S    
C56   H30   S    
C10   N2    A    
C61   C62   S    
O34   H24   S    
C40   H6    S    
C27   C31   S    
C51   C52   A    
C64   H55   S    
S12   O51   D    
C8    O59   S    
C59   C60   S    
C25   H2    S    
C41   H7    S    
S10   O42   D    
C25   S6    S    
C68   H63   S    
C10   O12   S    
O15   H13   S    
C16   C17   A    
C39   C43   S    
C27   S4    S    
O63   C69   S    
C67   H61   S    
C29   C34   T    
C54   H18   S    
C1    O1    A    
O57   C63   S    
C53   C54   S    
C42   C45   S    
C64   H54   S    
C48   O9    S    
C63   C64   S    
O62   H66   S    
C7    H10   S    
C40   O49   S    
C70   H69   S    
C36   O7    A    
C11   S14   S    
C69   H68   S    
S1    O13   D    
C13   H11   S    
S14   O62   S    
C48   C52   A    
O31   H23   S    
S2    O17   D    
C54   H17   S    
C50   C51   A    
C26   C27   S    
C31   C34   S    
C57   H34   S    
S5    O27   D    
C20   C21   A    
C58   H37   S    
C44   S13   S    
S7    O32   D    
O40   H26   S    
C62   H48   S    
C45   S12   S    
O56   H50   S    
C24   N1    S    
C68   H64   S    
C40   C41   S    
S1    O14   D    
C12   O3    A    
C12   C14   S    
C26   C30   S    
S3    O22   S    
C28   C31   S    
C43   C44   S    
C60   H41   S    
C49   C50   A    
C55   H29   S    
S13   O56   S    
C15   O63   S    
C23   O6    A    
O8    Zn2   S    
C3    C4    A    
C47   N4    T    
C56   H32   S    
C44   C45   S    
C69   C70   S    
O37   H25   S    
C41   O50   S    
C67   C68   S    
C25   C30   S    
C11   C17   A    
S8    O36   D    
S5    O26   D    
C35   C37   T    
C55   H28   S    
C22   S2    S    
C31   C32   S    
O7    Zn1   S    
C5    C51   A    
S14   O61   D    
O58   C65   S    
S9    O39   D    
C2    H1    S    
C6    C10   A    
S12   O52   D    
O43   H27   S    
N3    Zn1   S    
C6    C7    A    
C44   H9    S    
O49   C59   S    
C39   O58   S    
C1    O2    A    
S8    O37   S    
S6    O31   S    
C66   H60   S    
N4    Zn2   S    
C32   C33   S    
C2    C3    A    
C53   H14   S    
C46   N3    T    
C70   H70   S    
O19   H19   S    
O48   H38   S    
C11   C13   A    
C33   S10   S    
C69   H67   S    
C38   C39   S    
S4    O24   D    
C68   H65   S    
C38   O57   S    
C54   H16   S    
S15   O65   D    
S6    O30   D    
S5    O28   S    
C22   C24   A    
C42   C47   S    
C65   H56   S    
O2    Zn2   S    
C43   C46   S    
C62   H47   S    
S7    O33   D    
S12   O53   S    
O1    Zn1   S    
C20   C36   S    
C4    C5    A    
S1    O15   S    
S14   O60   D    
C60   H43   S    
S3    O21   D    
C53   H15   S    
S4    O23   D    
O25   H21   S    
C3    S11   S    
C14   C15   A    
S10   O41   D    
C16   H12   S    
O3    Zn1   S    
C4    C9    A    
C21   C22   A    
C67   H62   S    
C26   S5    S    
C32   H4    S    
C66   H59   S    
O4    Zn2   S    
S9    O38   D    
C57   H33   S    
S15   O64   D    
S4    O25   S    
