data_mof_unit_3536.cif
_audit_creation_date              2012-12-10T17:26:23-0500
_audit_creation_method            fapswitch 2.2
_symmetry_space_group_name_H-M    P1
_symmetry_Int_Tables_number       1
_space_group_crystal_system       triclinic
_cell_length_a                    10.095008
_cell_length_b                    10.582263
_cell_length_c                    27.547121
_cell_angle_alpha                 89.628925
_cell_angle_beta                  81.968511
_cell_angle_gamma                 95.537724
_cell_volume                      2899.74542974

loop_
_atom_site_label
_atom_site_type_symbol
_atom_type_description
_atom_site_fract_x
_atom_site_fract_y
_atom_site_fract_z
_atom_type_partial_charge
C1    C     C_R   0.556764 0.734538 0.498349 0.823288
C2    C     C_R   0.600226 0.638651 0.122239 -0.218324
C3    C     C_R   0.506831 0.497448 0.646788 -0.051798
C4    C     C_R   0.497035 0.506677 0.352874 -0.067718
C5    C     C_R   0.631830 0.620381 0.018544 -0.071626
C6    C     C_R   0.513604 0.401562 0.976552 -0.057004
C7    C     C_R   0.477080 0.425364 0.026834 0.093782
C8    C     C_R   0.629675 0.616740 0.967157 0.081030
C9    C     C_R   0.543442 0.530654 0.048266 0.075453
C10   C     C_R   0.575831 0.504282 0.946301 0.071316
C11   C     C_R   0.715354 0.711333 0.041264 -0.011697
C12   C     C_R   0.443405 0.265416 0.504710 0.819176
C13   C     C_R   0.492751 0.280100 0.955251 -0.042394
C14   C     C_R   0.690602 0.728720 0.092307 0.491903
C15   C     C_R   0.507439 0.269786 0.903727 0.431328
C16   C     C_R   0.501473 0.500022 0.594035 0.850790
C17   C     C_R   0.498714 0.499864 0.405900 0.913499
C18   C     C_R   0.668618 0.724777 0.936562 -0.198029
C19   C     C_R   0.370835 0.352111 0.055623 -0.231041
C20   C     C_2   0.589942 0.869787 0.504518 0.231754
C21   C     C_2   0.411028 0.129845 0.514129 0.237574
C22   C     C_2   0.497803 0.931084 0.532631 -0.217099
C23   C     C_R   0.576574 0.497246 0.895245 -0.109493
C24   C     C_2   0.504079 0.067974 0.532286 -0.205906
C25   C     C_2   0.927715 0.511402 0.503754 -0.118554
C26   C     C_2   0.072719 0.490609 0.495508 -0.105361
C27   C     C_R   0.606890 0.602168 0.815672 0.528169
C28   C     C_R   0.410355 0.466578 0.179155 0.528584
C29   C     C_R   0.510087 0.386892 0.824717 0.581128
C30   C     C_R   0.590391 0.632017 0.174014 0.585953
C31   C     C_R   0.613224 0.422856 0.713596 -0.084458
C32   C     C_R   0.401116 0.590442 0.284893 -0.064771
C33   C     C_R   0.600108 0.424637 0.664218 -0.238476
C34   C     C_R   0.522842 0.543594 0.099589 -0.107328
C35   C     C_R   0.401372 0.575995 0.335021 -0.210072
C36   C     C_R   0.424814 0.568740 0.679705 0.080410
C37   C     C_R   0.591699 0.448782 0.319695 0.089499
C38   C     C_R   0.439043 0.565869 0.729572 -0.111987
C39   C     C_R   0.590494 0.464732 0.269342 -0.113839
C40   C     C_R   0.533670 0.494023 0.746200 0.262155
C41   C     C_R   0.496263 0.535702 0.252185 0.264972
C42   C     C_R   0.618117 0.606726 0.865530 -0.005212
C43   C     C_R   0.424769 0.459655 0.128289 0.013587
C44   C     C_R   0.664269 0.719610 0.886493 -0.069132
C45   C     C_R   0.345175 0.368742 0.105740 -0.107633
C46   C     C_R   0.531172 0.382491 0.874224 -0.195114
H1    H     H_    0.108580 0.423220 0.468423 0.186886
H2    H     H_    0.663332 0.368927 0.639522 0.177393
H3    H     H_    0.327625 0.644556 0.271406 0.167198
H4    H     H_    0.686248 0.367181 0.726573 0.166180
H5    H     H_    0.692354 0.816788 0.951172 0.169215
H6    H     H_    0.304396 0.283690 0.039574 0.159047
H7    H     H_    0.595886 0.118799 0.541409 0.198794
H8    H     H_    0.406149 0.880060 0.551433 0.195826
H9    H     H_    0.387348 0.721539 0.641673 0.187026
H10   H     H_    0.274239 0.686889 0.691706 0.203073
H11   H     H_    0.632524 0.290597 0.353539 0.218187
H12   H     H_    0.892179 0.580350 0.530254 0.170024
H13   H     H_    0.753176 0.343076 0.307798 0.211068
H14   H     H_    0.110554 0.186961 0.501898 0.374748
H15   H     H_    0.887680 0.810039 0.462209 0.377218
H16   H     H_    0.856391 0.055499 0.088872 0.386770
H17   H     H_    0.657469 0.038819 0.915823 0.347935
H18   H     H_    0.833333 0.853064 0.999857 0.237496
H19   H     H_    0.880271 0.703974 0.988645 0.197450
H20   H     H_    0.373041 0.132640 0.991408 0.220943
H21   H     H_    0.516516 0.177508 0.017137 0.217871
H22   H     H_    0.120274 0.614564 0.545425 0.194455
H23   H     H_    0.879386 0.383890 0.455171 0.209484
H24   H     H_    0.378273 0.620565 0.755516 0.152270
H25   H     H_    0.661902 0.421240 0.243185 0.145162
H26   H     H_    0.693061 0.805743 0.864533 0.218909
H27   H     H_    0.265002 0.307689 0.126867 0.200599
H28   H     H_    0.328159 0.621149 0.359853 0.191002
N1    N     N_R   0.550725 0.494410 0.796741 -0.362739
N2    N     N_R   0.495774 0.548397 0.200679 -0.362704
N3    N     N_2   0.842700 0.448890 0.480020 -0.175503
N4    N     N_2   0.157300 0.551110 0.519980 -0.179233
N5    N     N_3   0.331300 0.646357 0.662307 -0.415511
N6    N     N_3   0.686631 0.372745 0.337092 -0.395037
N7    N     N_3   0.842659 0.765240 0.015664 -0.385039
N8    N     N_3   0.475020 0.165254 0.984597 -0.383910
O1    O     O_R   0.431060 0.692470 0.504020 -0.597040
O2    O     O_2   0.315852 0.388315 0.207132 -0.530683
O3    O     O_2   0.678633 0.701964 0.197800 -0.442379
O4    O     O_2   0.442700 0.288262 0.805128 -0.456623
O5    O     O_2   0.292166 0.950862 0.461747 -0.232208
O6    O     O_2   0.177450 0.989667 0.543573 -0.302840
O7    O     O_3   0.169169 0.154668 0.473776 -0.497940
O8    O     O_2   0.709707 0.050306 0.439921 -0.240906
O9    O     O_2   0.823751 0.008899 0.510123 -0.290345
O10   O     O_3   0.832294 0.846052 0.439585 -0.479154
O11   O     O_2   0.667779 0.922657 0.155266 -0.239359
O12   O     O_R   0.568940 0.307530 0.495980 -0.600672
O13   O     O_2   0.888626 0.840475 0.137705 -0.225760
O14   O     O_3   0.811898 0.983755 0.072344 -0.574578
O15   O     O_2   0.370745 0.069630 0.867923 -0.199486
O16   O     O_2   0.603769 0.121523 0.829594 -0.256908
O17   O     O_3   0.561770 0.009841 0.914486 -0.536816
O18   O     O_R   0.651120 0.659650 0.491200 -0.585948
O19   O     O_R   0.348880 0.340350 0.508800 -0.586627
O20   O     O_R   0.389980 0.516390 0.577660 -0.589031
O21   O     O_R   0.610020 0.483610 0.422340 -0.567188
O22   O     O_R   0.610040 0.483570 0.564830 -0.628174
O23   O     O_R   0.389960 0.516430 0.435170 -0.607365
O24   O     O_2   0.649504 0.705022 0.786357 -0.525234
S1    S     S_3+6 0.259445 0.051766 0.498420 0.067121
S2    S     S_3+6 0.741930 0.948231 0.473341 0.072479
S3    S     S_3+6 0.766093 0.870527 0.116212 0.084486
S4    S     S_3+6 0.510210 0.115840 0.877273 0.087051
Zn1   Zn    Zn3+2 0.353060 0.521910 0.508560 1.007773
Zn2   Zn    Zn3+2 0.646940 0.478090 0.491440 1.010517

loop_
_geom_bond_atom_site_label_1
_geom_bond_atom_site_label_2
_ccdc_geom_bond_type
C14   S3    S    
C38   H24   S    
C35   H28   S    
O16   S4    D    
H16   O14   S    
C28   O2    S    
H23   N3    S    
C15   S4    S    
C39   C41   A    
H14   O7    S    
C11   N7    S    
C26   N4    D    
H10   N5    S    
C25   N3    D    
C5    C11   A    
C17   O23   A    
C11   C14   A    
C3    C33   A    
C30   N2    A    
C31   C40   A    
C45   H27   S    
H17   O17   S    
H19   N7    S    
C19   H6    S    
C16   O22   A    
C32   C41   A    
C31   C33   A    
N4    Zn1   S    
H15   O10   S    
C2    C34   A    
O23   Zn1   S    
C4    C35   A    
C23   C46   A    
H11   N6    S    
C12   O12   A    
O20   Zn1   S    
C42   C44   A    
C27   N1    A    
C1    O18   A    
O10   S2    S    
C18   H5    S    
H22   N4    S    
H18   N7    S    
C37   N6    S    
C32   C35   A    
C22   H8    S    
O13   S3    D    
O22   Zn2   S    
O6    S1    D    
C27   O24   S    
C24   H7    S    
O17   S4    S    
C13   N8    S    
C8    C18   A    
O21   Zn2   S    
N3    Zn2   S    
C5    C9    A    
C18   C44   A    
H20   N8    S    
H9    N5    S    
C23   C42   A    
O7    S1    S    
C30   O3    S    
C43   C45   A    
C29   O4    S    
C21   S1    S    
C26   H1    S    
C4    C17   S    
C16   O20   A    
C20   C22   D    
O18   Zn2   S    
C7    C19   A    
C13   C15   A    
C9    C34   A    
O1    Zn1   S    
C1    O1    A    
C25   H12   S    
C31   H4    S    
C28   N2    A    
C7    C9    A    
C1    C20   S    
O9    S2    D    
C34   C43   A    
C36   N5    S    
H13   N6    S    
C6    C10   A    
C5    C8    A    
C19   C45   A    
C6    C7    A    
C29   N1    A    
C10   C23   A    
O19   Zn1   S    
O14   S3    S    
C28   C43   A    
C40   N1    S    
C29   C46   A    
C2    C30   A    
C36   C38   A    
C25   C26   S    
O8    S2    D    
C12   O19   A    
C37   C39   A    
C6    C13   A    
C38   C40   A    
O15   S4    D    
C27   C42   A    
C3    C36   A    
C12   C21   S    
O12   Zn2   S    
C44   H26   S    
C22   C24   S    
C17   O21   A    
C2    C14   A    
C32   H3    S    
O5    S1    D    
C4    C37   A    
H21   N8    S    
C8    C10   A    
C21   C24   D    
C33   H2    S    
C39   H25   S    
C15   C46   A    
C20   S2    S    
C3    C16   S    
O11   S3    D    
C41   N2    S    
