data_mof_unit_973.cif
_audit_creation_date              2013-03-05T15:42:21-0500
_audit_creation_method            fapswitch 2.2
_symmetry_space_group_name_H-M    P1
_symmetry_Int_Tables_number       1
_space_group_crystal_system       triclinic
_cell_length_a                    17.184982
_cell_length_b                    16.699575
_cell_length_c                    19.418614
_cell_angle_alpha                 117.39724
_cell_angle_beta                  61.937422
_cell_angle_gamma                 100.768014
_cell_volume                      4362.92329015

loop_
_atom_site_label
_atom_site_type_symbol
_atom_site_description
_atom_site_fract_x
_atom_site_fract_y
_atom_site_fract_z
_atom_type_partial_charge
C1    C     C_R   0.039366 0.759650 0.010272 -0.017507
N1    N     N_R   0.036080 0.671900 0.995420 -0.056142
C2    C     C_R   0.762410 0.423038 0.166891 -0.063358
H1    H     H_    0.719347 0.376940 0.141418 0.115213
N2    N     N_R   0.834710 0.454650 0.119760 -0.050237
C3    C     C_R   0.807957 0.548035 0.946521 -0.052082
H2    H     H_    0.821031 0.581863 0.906617 0.128392
N3    N     N_R   0.867430 0.509300 0.948100 -0.055026
C4    C     C_R   0.955259 0.673090 0.249423 -0.066667
N4    N     N_R   0.003360 0.617250 0.167070 -0.045332
C5    C     C_R   0.738853 0.471585 0.027332 -0.053109
H3    H     H_    0.689276 0.437431 0.063512 0.130069
N5    N     N_R   0.825450 0.461270 0.995400 -0.063547
C6    C     C_R   0.026869 0.752768 0.173236 -0.048347
H4    H     H_    0.054631 0.806724 0.154499 0.129744
N6    N     N_R   0.045340 0.665280 0.119770 -0.053521
C7    C     C_R   0.840698 0.490597 0.241874 -0.112039
H5    H     H_    0.870276 0.504567 0.284349 0.135692
N7    N     N_R   0.883740 0.497640 0.167070 -0.042380
C8    C     C_R   0.960332 0.690216 0.936422 -0.068310
N8    N     N_R   0.987050 0.628910 0.948110 -0.050812
C9    C     C_R   0.987970 0.774247 0.978424 0.055814
C10   C     C_R   0.764297 0.444116 0.244058 0.058197
C11   C     C_R   0.727169 0.527803 0.998323 0.105505
C12   C     C_R   0.966554 0.759763 0.254987 0.033396
C13   C     C_R   0.245053 0.574185 0.017822 0.233543
N9    N     N_R   0.174550 0.538730 0.004600 -0.114487
C14   C     C_R   0.920254 0.263057 0.835573 -0.163113
N10   N     N_R   0.954660 0.334720 0.880230 -0.067309
C15   C     C_R   0.171786 0.446920 0.752574 -0.009302
N11   N     N_R   0.116260 0.502360 0.832930 -0.055242
C16   C     C_R   0.053603 0.306259 0.047450 -0.063321
H6    H     H_    0.095823 0.317529 0.077873 0.164808
N12   N     N_R   0.012950 0.371090 0.051890 -0.048631
C17   C     C_R   0.976166 0.238668 0.971975 -0.113543
H7    H     H_    0.946740 0.188390 0.932416 0.142022
N13   N     N_R   0.963920 0.328100 0.004580 -0.052514
C18   C     C_R   0.248990 0.514184 0.828928 -0.062753
N14   N     N_R   0.165290 0.545350 0.880240 -0.040671
C19   C     C_R   0.179870 0.491702 0.090717 0.270067
N15   N     N_R   0.132570 0.490700 0.051900 -0.114083
C20   C     C_R   0.978955 0.348627 0.765021 0.314631
N16   N     N_R   0.996640 0.382750 0.832930 -0.094132
Ni1   Ni    Ni4+2 0.104370 0.604370 0.000010 0.302012
Ni2   Ni    Ni4+2 0.895630 0.395630 0.999990 0.247497
Ni3   Ni    Ni4+2 0.991920 0.505780 0.891500 0.310069
Ni4   Ni    Ni4+2 0.008080 0.494220 0.108500 0.287819
C21   C     C_R   0.250224 0.544979 0.071301 -0.224097
C22   C     C_R   0.934447 0.269738 0.762049 -0.049990
C23   C     C_R   0.256028 0.451029 0.747882 0.027581
C24   C     C_R   0.032517 0.221727 0.997378 0.059016
C25   C     C_R   0.939431 0.217061 0.618705 -0.060134
C26   C     C_R   0.903335 0.209959 0.696906 0.093671
C27   C     C_R   0.846300 0.140399 0.707982 -0.142169
C28   C     C_R   0.832464 0.072418 0.638309 -0.025021
C29   C     C_R   0.875546 0.077330 0.557688 0.001397
C30   C     C_R   0.924421 0.153206 0.549458 -0.064603
C31   C     C_R   0.784934 0.994932 0.644364 0.325098
C32   C     C_R   0.792722 0.918833 0.568268 -0.286292
C33   C     C_R   0.843023 0.920807 0.487775 0.088420
C34   C     C_R   0.878809 0.002153 0.483104 0.049015
C35   C     C_R   0.926808 0.005205 0.402375 0.053153
C36   C     C_R   0.962521 0.085469 0.396987 -0.251457
C37   C     C_R   0.963479 0.159403 0.469752 0.328407
C38   C     C_R   0.864884 0.841264 0.411646 -0.177532
C39   C     C_R   0.923675 0.843016 0.331999 0.094279
C40   C     C_R   0.947757 0.925836 0.327545 -0.093819
H8    H     H_    0.985850 0.268236 0.608890 0.192520
H9    H     H_    0.761752 0.857122 0.571731 0.183660
H10   H     H_    0.841725 0.778005 0.415684 0.124453
H11   H     H_    0.990606 0.928995 0.266850 0.181282
C41   C     C_R   0.343048 0.342990 0.589448 0.294937
C42   C     C_R   0.339722 0.405448 0.671090 -0.010419
C43   C     C_R   0.419213 0.436984 0.676843 -0.257137
C44   C     C_R   0.497184 0.425822 0.603252 0.130899
C45   C     C_R   0.497539 0.377556 0.521677 0.008602
C46   C     C_R   0.422280 0.331158 0.513742 -0.048060
C47   C     C_R   0.572504 0.470153 0.610866 -0.157950
C48   C     C_R   0.645178 0.474060 0.538725 -0.162146
C49   C     C_R   0.643430 0.432702 0.458336 0.119608
C50   C     C_R   0.571562 0.380365 0.448686 0.064741
C51   C     C_R   0.570897 0.336579 0.367352 0.125864
C52   C     C_R   0.500717 0.282124 0.357934 -0.179606
C53   C     C_R   0.427497 0.278371 0.430301 -0.074807
C54   C     C_R   0.709200 0.448379 0.389184 -0.224551
C55   C     C_R   0.704042 0.412867 0.310443 0.092992
C56   C     C_R   0.637703 0.352408 0.298265 -0.220505
H12   H     H_    0.760673 0.493545 0.399466 0.131432
H13   H     H_    0.500687 0.245491 0.295157 0.161422
H14   H     H_    0.373928 0.237231 0.420245 0.196229
C57   C     C_R   0.645826 0.542899 0.003344 -0.055653
C58   C     C_R   0.328044 0.547687 0.080459 0.209059
C59   C     C_R   0.411245 0.601531 0.162583 -0.125183
C60   C     C_R   0.330434 0.592280 0.160224 -0.044190
C61   C     C_R   0.403576 0.512880 0.003673 -0.172266
C62   C     C_R   0.483941 0.526138 0.004667 0.150156
C63   C     C_R   0.488923 0.567994 0.084722 -0.008222
C64   C     C_R   0.571526 0.575214 0.083763 0.287012
C65   C     C_R   0.640332 0.508765 0.925386 -0.175523
C66   C     C_R   0.559136 0.499160 0.925965 -0.156396
H15   H     H_    0.698494 0.483195 0.863834 0.182503
H16   H     H_    0.412526 0.637052 0.224715 0.187207
H17   H     H_    0.555007 0.468925 0.865014 0.139299
C67   C     C_R   0.809662 0.163410 0.114079 0.060886
C68   C     C_R   0.961383 0.861101 0.989648 -0.037625
C69   C     C_R   0.906335 0.935919 0.938201 -0.094330
C70   C     C_R   0.946589 0.861469 0.924642 -0.198067
C71   C     C_R   0.941001 0.940608 0.067613 0.347479
C72   C     C_R   0.900458 0.016841 0.081606 -0.019210
C73   C     C_R   0.878218 0.012528 0.018074 -0.042165
C74   C     C_R   0.828886 0.085424 0.036556 0.257584
C75   C     C_R   0.835449 0.169513 0.174208 -0.235090
C76   C     C_R   0.878727 0.096345 0.159281 -0.090383
H18   H     H_    0.897425 0.932294 0.885359 0.184767
H19   H     H_    0.894792 0.102653 0.209111 0.191968
H20   H     H_    0.964437 0.802648 0.863177 0.159746
H21   H     H_    0.081077 0.808371 0.035586 0.147762
H22   H     H_    0.876278 0.218199 0.861573 0.169196
H23   H     H_    0.151315 0.404981 0.702859 0.188669
H24   H     H_    0.299764 0.532388 0.850439 0.122481
N17   N     N_R   0.145179 0.470627 0.163275 0.231551
O1    O     O_R   0.197885 0.449419 0.183725 -0.367377
O2    O     O_R   0.060369 0.473566 0.210062 -0.423389
N18   N     N_R   0.964632 0.407835 0.736413 0.219831
O3    O     O_R   0.890356 0.407160 0.733483 -0.417368
O4    O     O_R   0.015299 0.475569 0.732916 -0.405408
H25   H     H_    0.819371 0.135066 0.768275 0.177761
N19   N     N_R   0.732105 0.990881 0.726121 0.247601
O5    O     O_R   0.679191 0.058539 0.791558 -0.345646
O6    O     O_R   0.726332 0.915100 0.731760 -0.340585
H26   H     H_    0.997190 0.088207 0.334868 0.204672
N20   N     N_R   0.009000 0.237547 0.460069 0.244888
O7    O     O_R   0.986829 0.276758 0.427105 -0.338483
O8    O     O_R   0.084228 0.255485 0.463947 -0.319597
N21   N     N_R   0.267279 0.292573 0.583549 0.211733
O9    O     O_R   0.231132 0.300798 0.541267 -0.366326
O10   O     O_R   0.229554 0.244516 0.627079 -0.402974
H27   H     H_    0.420302 0.478747 0.738381 0.139916
H28   H     H_    0.573124 0.506536 0.673409 0.146445
H29   H     H_    0.700772 0.513114 0.546625 0.153959
H30   H     H_    0.634811 0.321240 0.236872 0.142338
N22   N     N_R   0.580639 0.611345 0.162557 0.227213
O11   O     O_R   0.638188 0.672305 0.174805 -0.362117
O12   O     O_R   0.539932 0.575244 0.216734 -0.392233
H31   H     H_    0.270743 0.621269 0.219505 0.152627
H32   H     H_    0.399685 0.479489 0.942361 0.107630
N23   N     N_R   0.793185 0.080608 0.980982 0.229213
O13   O     O_R   0.759036 0.006537 0.944292 -0.336046
O14   O     O_R   0.775430 0.154785 0.983780 -0.426462
H33   H     H_    0.913793 0.652196 0.300111 0.105443
H34   H     H_    0.819616 0.230511 0.233699 0.165919
N24   N     N_R   0.953506 0.941217 0.135601 0.199748
O15   O     O_R   0.898170 0.900983 0.182391 -0.419966
O16   O     O_R   0.016229 0.987246 0.154580 -0.446548
H35   H     H_    0.927086 0.675306 0.896922 0.120213
N25   N     N_R   0.286093 0.652752 0.005164 0.239404
O17   O     O_R   0.253900 0.693296 0.980251 -0.407397
O18   O     O_R   0.349782 0.689647 0.026631 -0.367012

loop_
_geom_bond_atom_site_label_1
_geom_bond_atom_site_label_2
_geom_bond_distance
_ccdc_geom_bond_type
C28   C29   1.418001 A    
C31   N19   1.438440 S    
C59   C60   1.388432 A    
C8    H35   1.077116 S    
N12   N13   1.401650 A    
C5    N5    1.325931 A    
C42   C43   1.405883 A    
C2    C10   1.387956 A    
C61   C62   1.365142 A    
N19   O5    1.301386 A    
C50   C51   1.407230 A    
C20   N18   1.439411 S    
N21   O9    1.301703 A    
C54   C55   1.403871 A    
C71   C72   1.419484 A    
C19   N17   1.432529 S    
C43   H27   1.078842 S    
C13   N9    1.330109 A    
C49   C54   1.390762 A    
C35   C40   1.382556 A    
C69   H18   1.080385 S    
C14   N10   1.340403 A    
C17   N13   1.340695 A    
C15   N11   1.342454 A    
N7    Ni4   1.887302 S    
C69   C70   1.393679 A    
C51   C56   1.396979 A    
C5    C11   1.379345 A    
C29   C30   1.413837 A    
N21   O10   1.301222 A    
C1    N1    1.352476 A    
C73   C74   1.423632 A    
C41   C46   1.415646 A    
C71   N24   1.429343 S    
C13   N25   1.437772 S    
N9    Ni1   1.830053 S    
N23   O13   1.301209 A    
N1    Ni1   1.828225 S    
N20   O7    1.300828 A    
N11   Ni3   1.887301 S    
C21   C58   1.419835 S    
C36   H26   1.084664 S    
C4    N4    1.334955 A    
N6    Ni1   1.860354 S    
C40   H11   1.077166 S    
C25   H8    1.074748 S    
C72   C76   1.410521 A    
C18   H24   1.074795 S    
C60   H31   1.083243 S    
C39   C40   1.397899 A    
C15   C23   1.397633 A    
C32   C33   1.398918 A    
C6    C12   1.390884 A    
N10   N16   1.358591 A    
C61   H32   1.087618 S    
C53   H14   1.080244 S    
C75   C76   1.393174 A    
C44   C47   1.402346 A    
C63   C64   1.393990 A    
C52   H13   1.083720 S    
C68   C71   1.415113 A    
C4    H33   1.077785 S    
C43   C44   1.385233 A    
C4    C12   1.383872 A    
C37   N20   1.433971 S    
C45   C46   1.414205 A    
C23   C42   1.489374 S    
C67   C75   1.389447 A    
C55   C56   1.406700 A    
C41   C42   1.421199 A    
C41   N21   1.435053 S    
C3    N3    1.326162 A    
C46   C53   1.410273 A    
C31   C32   1.402035 A    
C26   C27   1.400874 A    
N2    Ni2   1.860557 S    
C10   C55   1.472273 S    
C66   H17   1.084659 S    
C36   C37   1.389232 A    
N10   Ni2   1.860354 S    
C33   C34   1.407313 A    
C17   H7    1.078911 S    
C16   N12   1.344500 A    
C59   H16   1.081423 S    
C44   C45   1.405949 A    
C16   C24   1.395222 A    
C35   C36   1.394809 A    
C74   N23   1.439463 S    
C68   C70   1.402803 A    
C14   C22   1.385332 A    
N9    N15   1.358589 A    
C52   C53   1.396373 A    
C3    C11   1.370055 A    
C62   C63   1.419649 A    
C8    N8    1.340893 A    
N1    N8    1.401650 A    
C58   C60   1.393667 A    
C7    H5    1.079874 S    
N15   Ni4   1.887732 S    
C75   H34   1.082142 S    
C7    C10   1.387538 A    
C56   H30   1.081517 S    
N17   O1    1.300459 A    
C3    H2    1.077807 S    
C32   H9    1.083961 S    
N2    N7    1.401650 A    
C19   N15   1.337532 A    
C65   H15   1.084311 S    
C8    C9    1.386398 A    
C33   C38   1.395626 A    
C38   C39   1.405019 A    
C17   C24   1.393339 A    
C6    N6    1.334348 A    
C20   N16   1.332990 A    
N13   Ni2   1.828224 S    
C2    H1    1.079839 S    
C11   C57   1.417015 S    
C59   C63   1.408086 A    
C25   C26   1.398878 A    
C30   C37   1.414518 A    
N18   O4    1.299713 A    
N8    Ni3   1.827831 S    
C69   C73   1.405546 A    
C54   H12   1.081420 S    
C19   C21   1.368711 A    
C27   C28   1.401457 A    
N25   O17   1.300678 A    
N23   O14   1.301610 A    
C29   C34   1.397635 A    
C47   H28   1.083943 S    
C12   C39   1.464532 S    
N24   O16   1.300760 A    
C49   C50   1.409975 A    
C2    N2    1.337799 A    
N19   O6    1.301427 A    
C45   C50   1.404223 A    
C67   C74   1.399997 A    
C5    H3    1.081103 S    
N14   Ni1   1.860557 S    
C18   C23   1.394562 A    
C13   C21   1.375998 A    
C9    C68   1.490972 S    
C27   H25   1.078730 S    
C65   C66   1.369723 A    
C16   H6    1.077395 S    
N25   O18   1.300867 A    
C14   H22   1.079236 S    
C72   C73   1.422979 A    
N5    Ni2   1.830055 S    
C47   C48   1.390701 A    
C18   N14   1.336654 A    
C22   C26   1.468796 S    
C62   C66   1.390763 A    
C7    N7    1.335961 A    
N11   N14   1.401650 A    
C48   H29   1.083788 S    
N22   O12   1.301274 A    
C58   C61   1.381770 A    
C57   C64   1.402161 A    
C34   C35   1.407731 A    
N16   Ni3   1.829276 S    
N3    Ni3   1.887730 S    
C70   H20   1.082916 S    
N17   O2    1.300721 A    
C25   C30   1.384098 A    
C20   C22   1.385268 A    
C48   C49   1.399599 A    
N3    N5    1.358592 A    
C1    C9    1.398256 A    
N24   O15   1.300555 A    
N20   O8    1.301100 A    
C51   C52   1.399863 A    
C15   H23   1.073079 S    
C28   C31   1.417779 A    
N4    Ni4   1.829276 S    
N22   O11   1.301246 A    
C6    H4    1.072218 S    
N4    N6    1.358591 A    
N12   Ni4   1.827831 S    
C57   C65   1.394902 A    
C1    H21   1.078391 S    
C64   N22   1.438824 S    
C38   H10   1.081803 S    
N18   O3    1.301925 A    
C76   H19   1.081794 S    
