data_mof_unit_4503.cif
_audit_creation_date              2013-03-05T15:46:21-0500
_audit_creation_method            fapswitch 2.2
_symmetry_space_group_name_H-M    P1
_symmetry_Int_Tables_number       1
_space_group_crystal_system       triclinic
_cell_length_a                    11.010358
_cell_length_b                    10.975268
_cell_length_c                    18.715413
_cell_angle_alpha                 90.432064
_cell_angle_beta                  90.053333
_cell_angle_gamma                 59.725656
_cell_volume                      1953.10066461

loop_
_atom_site_label
_atom_site_type_symbol
_atom_site_description
_atom_site_fract_x
_atom_site_fract_y
_atom_site_fract_z
_atom_type_partial_charge
O1    O     O_R   0.748800 0.497470 0.428000 -0.513581
O2    O     O_R   0.476420 0.724060 0.429470 -0.483693
C1    C     C_R   0.360313 0.770797 0.397539 0.560895
O3    O     O_R   0.264580 0.744340 0.416750 -0.520627
O4    O     O_R   0.309380 0.472470 0.418200 -0.510526
C2    C     C_R   0.379597 0.349821 0.390985 0.566357
O5    O     O_R   0.501710 0.260430 0.414300 -0.465301
O6    O     O_R   0.728090 0.305600 0.428960 -0.508028
C3    C     C_R   0.782684 0.375695 0.404710 0.532290
O7    O     O_R   0.738760 0.495930 0.588610 -0.463394
O8    O     O_R   0.467110 0.722640 0.578360 -0.502456
C4    C     C_R   0.346723 0.763774 0.606305 0.544137
O9    O     O_R   0.254530 0.742800 0.577360 -0.519078
O10   O     O_R   0.300070 0.471040 0.567100 -0.479088
C5    C     C_R   0.368289 0.349590 0.595159 0.556715
O11   O     O_R   0.491670 0.258900 0.574910 -0.523250
O12   O     O_R   0.718780 0.304180 0.577850 -0.525457
C6    C     C_R   0.769329 0.373143 0.607935 0.577426
Cr1   Cr    Cr6+3 0.601770 0.606860 0.505860 1.067381
Cr2   Cr    Cr6+3 0.291380 0.601660 0.495070 1.043815
Cr3   Cr    Cr6+3 0.606880 0.291510 0.499120 1.038908
O13   O     O_3   0.500010 0.500010 0.500020 -0.276897
C7    C     C_R   0.861197 0.916347 0.132240 -0.110585
C8    C     C_R   0.829352 0.037543 0.171344 -0.099445
C9    C     C_R   0.693694 0.125499 0.197436 -0.083869
C10   C     C_R   0.587435 0.095259 0.184332 0.082243
C11   C     C_R   0.342541 0.308386 0.172310 -0.046214
C12   C     C_R   0.424297 0.193742 0.287528 0.177144
C13   C     C_R   0.444657 0.193344 0.213448 -0.046851
C14   C     C_R   0.074236 0.701607 0.289462 -0.070323
C15   C     C_R   0.967496 0.822999 0.322864 -0.065950
C16   C     C_R   0.621982 0.969235 0.148970 0.033648
C17   C     C_R   0.756972 0.881792 0.121101 -0.068510
C18   C     C_R   0.233386 0.426112 0.207126 -0.168267
C19   C     C_R   0.228507 0.437171 0.281417 -0.066556
C20   C     C_R   0.895706 0.811680 0.381510 -0.046610
C21   C     C_R   0.929149 0.678909 0.406475 -0.069547
C22   C     C_R   0.035829 0.557258 0.373438 -0.033947
C23   C     C_R   0.110890 0.567030 0.314992 0.067439
C24   C     C_R   0.333468 0.323223 0.321592 -0.015566
H1    H     H_    0.781134 0.786750 0.091821 0.163936
H2    H     H_    0.941423 0.926168 0.303978 0.110191
H3    H     H_    0.966620 0.848247 0.111984 0.124223
H4    H     H_    0.909376 0.062801 0.182613 0.123673
H5    H     H_    0.669935 0.215786 0.229662 0.102073
H6    H     H_    0.130402 0.712832 0.244892 0.105579
H7    H     H_    0.544014 0.940333 0.143392 0.174996
H8    H     H_    0.150375 0.509934 0.176216 0.154720
H9    H     H_    0.814211 0.905904 0.407667 0.152181
H10   H     H_    0.873629 0.670213 0.452053 0.143602
H11   H     H_    0.062998 0.455715 0.395059 0.114055
C25   C     C_R   0.980989 0.288913 0.318264 -0.144898
H12   H     H_    0.057015 0.256427 0.361051 0.121669
C26   C     C_R   0.025240 0.275902 0.247378 -0.153971
H13   H     H_    0.135636 0.233226 0.235592 0.115208
C27   C     C_R   0.927549 0.311886 0.192005 0.041239
C28   C     C_R   0.785390 0.367687 0.207285 -0.056676
H14   H     H_    0.709278 0.396389 0.164677 0.173858
C29   C     C_R   0.740630 0.386196 0.277646 -0.120823
H15   H     H_    0.629362 0.432061 0.288991 0.094780
C30   C     C_R   0.838275 0.343965 0.333004 0.035976
C31   C     C_R   0.477204 0.754910 0.283573 -0.059478
H16   H     H_    0.577379 0.679771 0.306703 0.177121
C32   C     C_R   0.467821 0.773913 0.209658 0.173518
C33   C     C_R   0.335103 0.867425 0.180884 0.004497
C34   C     C_R   0.218303 0.941466 0.226285 -0.190107
H17   H     H_    0.117568 0.016538 0.205306 0.129399
C35   C     C_R   0.227586 0.918789 0.298394 -0.147019
H18   H     H_    0.134198 0.972415 0.331522 0.128650
C36   C     C_R   0.355685 0.822174 0.326767 0.037543
C37   C     C_R   0.321408 0.207094 0.681970 -0.098655
H19   H     H_    0.345908 0.125834 0.642081 0.130905
C38   C     C_R   0.293649 0.186937 0.752249 -0.164661
H20   H     H_    0.294553 0.091229 0.766204 0.113251
C39   C     C_R   0.272746 0.286819 0.805139 0.009340
C40   C     C_R   0.264991 0.413634 0.786509 -0.103386
H21   H     H_    0.248446 0.492169 0.826691 0.131861
C41   C     C_R   0.288440 0.435420 0.716324 -0.085618
H22   H     H_    0.291243 0.529462 0.703310 0.125403
C42   C     C_R   0.320472 0.331159 0.664321 0.075899
C43   C     C_R   0.897811 0.391708 0.711272 0.194932
C44   C     C_R   0.907350 0.386104 0.784726 -0.136889
H23   H     H_    0.958803 0.437549 0.809489 0.176420
C45   C     C_R   0.858720 0.311338 0.825691 -0.024346
C46   C     C_R   0.803538 0.234864 0.790111 -0.048282
C47   C     C_R   0.791447 0.244437 0.716259 -0.176734
H24   H     H_    0.745917 0.189596 0.688809 0.153620
C48   C     C_R   0.831000 0.327392 0.677554 0.005784
C49   C     C_R   0.221439 0.795543 0.719574 -0.143434
H25   H     H_    0.140020 0.785412 0.692387 0.162322
C50   C     C_R   0.221662 0.795608 0.793274 -0.156175
H26   H     H_    0.141867 0.785073 0.821021 0.121906
C51   C     C_R   0.318616 0.818171 0.830229 0.025111
C52   C     C_R   0.433676 0.809669 0.793605 -0.140992
H27   H     H_    0.514799 0.818166 0.821757 0.124906
C53   C     C_R   0.438814 0.801323 0.719661 -0.145828
H28   H     H_    0.527640 0.796813 0.692266 0.151946
C54   C     C_R   0.329804 0.799032 0.681955 0.017836
O14   O     O_R   0.186690 0.923650 0.086970 -0.541157
O15   O     O_R   0.957250 0.194250 0.084630 -0.512978
C55   C     C_R   0.972680 0.290479 0.118177 0.540666
O16   O     O_R   0.934970 0.407490 0.085330 -0.446161
O17   O     O_R   0.203780 0.365190 0.067090 -0.514375
C56   C     C_R   0.325239 0.288956 0.095856 0.555009
O18   O     O_R   0.417600 0.174890 0.067840 -0.519071
O19   O     O_R   0.375320 0.946260 0.070860 -0.495832
C57   C     C_R   0.306457 0.900462 0.105717 0.589552
O20   O     O_R   0.160600 0.919630 0.926660 -0.545477
O21   O     O_R   0.933060 0.190520 0.936020 -0.496192
C58   C     C_R   0.888775 0.306026 0.902314 0.562790
O22   O     O_R   0.908880 0.403460 0.925020 -0.520473
O23   O     O_R   0.179600 0.361450 0.918490 -0.507572
C59   C     C_R   0.268800 0.254455 0.879964 0.541234
O24   O     O_R   0.391510 0.170860 0.907530 -0.506482
O25   O     O_R   0.351130 0.942530 0.922260 -0.514330
C60   C     C_R   0.279905 0.887573 0.899843 0.547062
Cr4   Cr    Cr6+3 0.062440 0.063090 0.008210 1.000069
Cr5   Cr    Cr6+3 0.062880 0.375170 0.998920 1.028763
Cr6   Cr    Cr6+3 0.374700 0.061720 0.992470 1.021428
O26   O     O_3   0.166667 0.166667 0.999870 -0.298198
N1    N     N_R   0.494453 0.065586 0.329009 0.080792
O27   O     O_R   0.608504 0.954428 0.306485 -0.354373
O28   O     O_R   0.434354 0.054655 0.386555 -0.350990
N2    N     N_R   0.590975 0.694990 0.165922 0.031029
O29   O     O_R   0.714627 0.656991 0.191934 -0.348561
O30   O     O_R   0.581447 0.658635 0.100737 -0.355328
N3    N     N_R   0.953835 0.464797 0.671937 0.088618
O31   O     O_R   0.954132 0.573552 0.699955 -0.368231
O32   O     O_R   0.013592 0.417152 0.610019 -0.349646
C61   C     C_R   0.771027 0.132188 0.823353 0.031099
C62   C     C_R   0.881359 0.009827 0.851732 -0.062716
C63   C     C_R   0.866025 0.895932 0.871601 -0.113595
C64   C     C_R   0.741083 0.898624 0.856440 -0.088582
C65   C     C_R   0.633057 0.015410 0.822143 -0.063601
C66   C     C_R   0.645398 0.133834 0.807733 -0.074737
H29   H     H_    0.981401 0.001576 0.851766 0.167457
H30   H     H_    0.953263 0.802735 0.894711 0.113461
H31   H     H_    0.730212 0.808357 0.868650 0.117430
H32   H     H_    0.540614 0.012976 0.806047 0.123198
H33   H     H_    0.561553 0.222425 0.780030 0.118070

loop_
_geom_bond_atom_site_label_1
_geom_bond_atom_site_label_2
_geom_bond_distance
_ccdc_geom_bond_type
O6    C3    1.277173 A    
C34   C35   1.368509 A    
C10   C16   1.397122 A    
C51   C52   1.401745 A    
C15   H2    1.080537 S    
O19   Cr6   1.943588 S    
C11   C13   1.425752 A    
C38   H20   1.079488 S    
C61   C66   1.404711 A    
C43   C44   1.378093 A    
O21   Cr4   1.956214 S    
O4    Cr2   1.950861 S    
C46   C47   1.388122 A    
O8    Cr1   1.931883 S    
C55   O16   1.293574 A    
O22   Cr5   2.087011 S    
C3    C30   1.441000 S    
C20   C21   1.395068 A    
C40   C41   1.384490 A    
C27   C55   1.445674 S    
C25   C30   1.396876 A    
C15   C20   1.395566 A    
C14   C15   1.398967 A    
C41   C42   1.399278 A    
C28   C29   1.383631 A    
O14   Cr4   2.075011 S    
O19   C57   1.281883 A    
C12   C24   1.407352 A    
C5    O11   1.269529 A    
C11   C56   1.471395 S    
C7    H3    1.082345 S    
C27   C28   1.392273 A    
C31   C36   1.409167 A    
C18   C19   1.393497 A    
C58   O22   1.266797 A    
C56   O18   1.258488 A    
C31   C32   1.396494 A    
C45   C46   1.421970 A    
C63   C64   1.390045 A    
C7    C17   1.393325 A    
C53   C54   1.402779 A    
C7    C8    1.394063 A    
N3    O31   1.301613 A    
C39   C59   1.453376 S    
C49   C50   1.379319 A    
C4    C54   1.452086 S    
O24   Cr6   2.061308 S    
O16   Cr5   2.053400 S    
C34   H17   1.070446 S    
C29   H15   1.084631 S    
Cr3   O13   1.976331 S    
C43   N3    1.440348 S    
C38   C39   1.401502 A    
C37   C42   1.398543 A    
C25   C26   1.394989 A    
O6    Cr3   1.934827 S    
C11   C18   1.400527 A    
C66   H33   1.080790 S    
C26   C27   1.400950 A    
C29   C30   1.395279 A    
O1    Cr1   2.050319 S    
O10   Cr2   1.942224 S    
C1    C36   1.434256 S    
O1    C3    1.266574 A    
C40   H21   1.083434 S    
C62   H29   1.058735 S    
Cr4   O26   1.987943 S    
C65   H32   1.074314 S    
C37   C38   1.394880 A    
C47   H24   1.084704 S    
C35   H18   1.083316 S    
C22   H11   1.079679 S    
C63   H30   1.082221 S    
C32   N2    1.437383 S    
C45   C58   1.466389 S    
C51   C60   1.455338 S    
C22   C23   1.408485 A    
C19   C23   1.493383 S    
C39   C40   1.397669 A    
N3    O32   1.301757 A    
C21   C22   1.397223 A    
C46   C61   1.484177 S    
C50   C51   1.393496 A    
C61   C62   1.387790 A    
C5    C42   1.451248 S    
O7    Cr1   2.080451 S    
Cr6   O26   1.982530 S    
C53   H28   1.083310 S    
Cr1   O13   1.991270 S    
C31   H16   1.082296 S    
O12   C6    1.271778 A    
C8    C9    1.393473 A    
C52   C53   1.385550 A    
N1    O27   1.300579 A    
C65   C66   1.401407 A    
Cr2   O13   1.986725 S    
C44   H23   1.082883 S    
O25   Cr6   1.954721 S    
C64   C65   1.394070 A    
C8    H4    1.068972 S    
C16   H7    1.059421 S    
C2    C24   1.473900 S    
O17   Cr5   1.968134 S    
C18   H8    1.084257 S    
C1    O3    1.278864 A    
C9    H5    1.069588 S    
C50   H26   1.076626 S    
C25   H12   1.082217 S    
N2    O30   1.301200 A    
C59   O24   1.299742 A    
C26   H13   1.081851 S    
C12   C13   1.404272 A    
O9    Cr2   2.065801 S    
O2    Cr1   1.958932 S    
C12   N1    1.448312 S    
O20   Cr4   2.056118 S    
C14   H6    1.082928 S    
O8    C4    1.276196 A    
O11   Cr3   2.053763 S    
C2    O5    1.279056 A    
O14   C57   1.260517 A    
O23   C59   1.299660 A    
C44   C45   1.414593 A    
C49   C54   1.403132 A    
C17   H1    1.082127 S    
C16   C17   1.399215 A    
O20   C60   1.278190 A    
C19   C24   1.421348 A    
C9    C10   1.388824 A    
C37   H19   1.083152 S    
O5    Cr3   2.088986 S    
O21   C58   1.277109 A    
C32   C33   1.404773 A    
O23   Cr5   1.935243 S    
C21   H10   1.082339 S    
C41   H22   1.077731 S    
C28   H14   1.083410 S    
O4    C2    1.268943 A    
O7    C6    1.268838 A    
O15   C55   1.307368 A    
C14   C23   1.407843 A    
O2    C1    1.263539 A    
C47   C48   1.397722 A    
C52   H27   1.080032 S    
Cr5   O26   1.976550 S    
N1    O28   1.302119 A    
C43   C48   1.397710 A    
C6    C48   1.440594 S    
O3    Cr2   2.062942 S    
C64   H31   1.082167 S    
C4    O9    1.268668 A    
C10   C13   1.487795 S    
C35   C36   1.376511 A    
C33   C34   1.405025 A    
O17   C56   1.286682 A    
O10   C5    1.271626 A    
O18   Cr6   2.078334 S    
O15   Cr4   1.936531 S    
O25   C60   1.275659 A    
C49   H25   1.083366 S    
C33   C57   1.449666 S    
C20   H9    1.082495 S    
C62   C63   1.396168 A    
N2    O29   1.301470 A    
O12   Cr3   1.968422 S    
