data_mof_unit_3071.cif
_audit_creation_date              2012-12-10T17:49:31-0500
_audit_creation_method            fapswitch 2.2
_symmetry_space_group_name_H-M    P1
_symmetry_Int_Tables_number       1
_space_group_crystal_system       triclinic
_cell_length_a                    14.70866
_cell_length_b                    14.697895
_cell_length_c                    15.87281
_cell_angle_alpha                 77.094713
_cell_angle_beta                  102.957458
_cell_angle_gamma                 114.942657
_cell_volume                      2999.82973874

loop_
_atom_site_label
_atom_site_type_symbol
_atom_type_description
_atom_site_fract_x
_atom_site_fract_y
_atom_site_fract_z
_atom_type_partial_charge
C1    C     C_R   0.880205 0.312223 0.513230 0.788870
C2    C     C_3   0.050096 0.426321 0.076812 -0.411160
C3    C     C_3   0.008484 0.504766 0.084354 0.254235
C4    C     C_3   0.076532 0.613533 0.043464 -0.159937
C5    C     C_3   0.082295 0.613295 0.945069 -0.152334
C6    C     C_1   0.003439 0.501626 0.176037 -0.079684
C7    C     C_1   0.005583 0.503591 0.825047 -0.107750
C8    C     C_1   0.001717 0.502418 0.749031 -0.182278
C9    C     C_R   0.812332 0.204924 0.512782 -0.052465
C10   C     C_R   0.187344 0.795234 0.469166 -0.050881
C11   C     C_R   0.782936 0.030341 0.511635 -0.203435
C12   C     C_R   0.000158 0.500486 0.659591 0.832857
C13   C     C_R   0.849868 0.130050 0.519541 -0.199742
C14   C     C_R   0.707634 0.178860 0.499096 -0.252922
C15   C     C_R   0.638688 0.080085 0.486750 0.088924
C16   C     C_R   0.677870 0.004805 0.495316 0.163376
C17   C     C_R   0.532113 0.053874 0.467981 0.064405
C18   C     C_R   0.465804 0.950099 0.468388 0.065035
C19   C     C_R   0.507822 0.877628 0.474814 -0.232181
C20   C     C_R   0.611938 0.904960 0.487288 -0.233306
C21   C     C_R   0.489697 0.128017 0.447282 -0.225742
C22   C     C_R   0.385625 0.100777 0.433873 -0.229450
C23   C     C_R   0.119760 0.687714 0.484006 0.798092
C24   C     C_R   0.320183 0.999054 0.442788 0.164283
C25   C     C_R   0.359559 0.922574 0.461334 0.082705
C26   C     C_R   0.215507 0.972982 0.434340 -0.202581
C27   C     C_R   0.149370 0.871608 0.447000 -0.201147
C28   C     C_R   0.291543 0.821088 0.476031 -0.261783
C29   C     C_R   0.715836 0.669091 0.356534 -0.328560
C30   C     C_R   0.797287 0.639345 0.379061 0.076257
C31   C     C_R   0.714468 0.508739 0.487657 0.005802
C32   C     C_R   0.628608 0.535009 0.467733 -0.023189
C33   C     C_R   0.631556 0.617615 0.400758 0.169137
C34   C     C_R   0.000032 0.499682 0.340492 0.830320
C35   C     C_R   0.541226 0.483525 0.511835 0.075494
C36   C     C_R   0.458688 0.516549 0.488148 0.079816
C37   C     C_R   0.466361 0.599840 0.421271 -0.240684
C38   C     C_R   0.550926 0.648905 0.378609 -0.215557
C39   C     C_R   0.533517 0.400195 0.578666 -0.238856
C40   C     C_R   0.449198 0.351437 0.621660 -0.200246
C41   C     C_R   0.368582 0.382736 0.599568 0.166465
C42   C     C_R   0.371381 0.465119 0.532354 -0.024901
C43   C     C_R   0.284372 0.331342 0.643924 -0.325485
C44   C     C_R   0.202737 0.360761 0.621051 0.081781
C45   C     C_3   0.037035 0.414737 0.979218 -0.121572
C46   C     C_R   0.285486 0.491276 0.512380 0.008109
C47   C     C_3   0.902854 0.484972 0.933347 -0.449980
C48   C     C_3   0.899863 0.476309 0.031881 -0.426859
C49   C     C_1   0.001134 0.500241 0.251225 -0.173920
C50   C     C_3   0.011476 0.504690 0.918251 0.227088
Cu1   Cu    Cu3+1 0.081750 0.475690 0.522550 0.937822
Cu2   Cu    Cu3+1 0.918250 0.524310 0.477450 0.933812
H1    H     H_    0.007688 0.351251 0.113570 0.155991
H2    H     H_    0.128863 0.448955 0.109892 0.162517
H3    H     H_    0.032152 0.660538 0.038930 0.107568
H4    H     H_    0.640988 0.847115 0.491796 0.152798
H5    H     H_    0.318433 0.760726 0.495929 0.153038
H6    H     H_    0.068893 0.853175 0.440662 0.152525
H7    H     H_    0.813322 0.973277 0.517451 0.133530
H8    H     H_    0.930681 0.148659 0.529934 0.153219
H9    H     H_    0.681613 0.237052 0.499536 0.146819
H10   H     H_    0.965691 0.345513 0.972137 0.136041
H11   H     H_    0.462081 0.799288 0.467797 0.141152
H12   H     H_    0.534816 0.208333 0.438383 0.146936
H13   H     H_    0.184937 0.031158 0.419017 0.133493
H14   H     H_    0.553430 0.712552 0.327761 0.134504
H15   H     H_    0.280052 0.551560 0.461430 0.125865
H16   H     H_    0.136950 0.320331 0.654061 0.119457
H17   H     H_    0.446921 0.287972 0.672694 0.138281
H18   H     H_    0.718976 0.732404 0.305162 0.134583
H19   H     H_    0.862773 0.679580 0.345504 0.122815
H20   H     H_    0.719806 0.448359 0.538516 0.122213
H21   H     H_    0.408118 0.629554 0.400197 0.132682
H22   H     H_    0.281299 0.268205 0.695478 0.129861
H23   H     H_    0.845832 0.413941 0.908859 0.172109
H24   H     H_    0.850812 0.397330 0.056662 0.179262
H25   H     H_    0.864905 0.526910 0.040771 0.169329
H26   H     H_    0.042757 0.662678 0.905591 0.117278
N1    N     N_R   0.795410 0.560790 0.443550 -0.175460
N2    N     N_R   0.204590 0.439170 0.556520 -0.176772
O1    O     O_R   0.977910 0.338120 0.529720 -0.591543
O2    O     O_R   0.839850 0.379180 0.491640 -0.589718
O3    O     O_R   0.069060 0.479460 0.639610 -0.574404
O4    O     O_R   0.931000 0.520530 0.601530 -0.577665
O5    O     O_R   0.160150 0.620820 0.508360 -0.588967
O6    O     O_R   0.022090 0.661880 0.470280 -0.590557
O7    O     O_R   0.069000 0.479470 0.398470 -0.574770
O8    O     O_R   0.930940 0.520540 0.360390 -0.580499
C51   C     C_R   0.112859 0.382979 0.953496 0.095577
C52   C     C_R   0.212509 0.402987 0.998031 -0.140341
C53   C     C_R   0.277150 0.371194 0.970888 -0.142364
C54   C     C_R   0.243338 0.317016 0.900509 -0.114786
C55   C     C_R   0.144414 0.293762 0.857400 -0.124371
C56   C     C_R   0.079805 0.326222 0.883529 -0.151471
H27   H     H_    0.242687 0.443095 0.053264 0.110361
H28   H     H_    0.353657 0.388183 0.004984 0.126564
H29   H     H_    0.293446 0.292126 0.879973 0.118614
H30   H     H_    0.117346 0.249775 0.804062 0.110966
H31   H     H_    0.003083 0.306240 0.849204 0.117267
H32   H     H_    0.356300 0.159942 0.418312 0.148072
H33   H     H_    0.879033 0.547009 0.896057 0.175891
H34   H     H_    0.591604 0.370245 0.599553 0.130498
C57   C     C_R   0.187714 0.670770 0.916570 0.104092
C58   C     C_R   0.237531 0.775040 0.924084 -0.135499
C59   C     C_R   0.333160 0.832439 0.898839 -0.125900
C60   C     C_R   0.380071 0.787572 0.863698 -0.114353
C61   C     C_R   0.330782 0.685630 0.852813 -0.142319
C62   C     C_R   0.235150 0.627926 0.878116 -0.132398
H35   H     H_    0.202218 0.811965 0.950312 0.119776
H36   H     H_    0.370668 0.911924 0.906216 0.123392
H37   H     H_    0.454017 0.832092 0.843869 0.124781
H38   H     H_    0.366271 0.651319 0.823818 0.137226
H39   H     H_    0.199212 0.551319 0.864958 0.162745
C63   C     C_R   0.175728 0.664054 0.103628 0.128431
C64   C     C_R   0.261908 0.641990 0.112001 -0.107356
C65   C     C_R   0.348636 0.685859 0.170828 -0.142879
C66   C     C_R   0.350672 0.752217 0.222537 -0.124965
C67   C     C_R   0.266225 0.775326 0.215096 -0.126755
C68   C     C_R   0.179625 0.732035 0.156015 -0.172163
H40   H     H_    0.263544 0.593153 0.071696 0.122938
H41   H     H_    0.414443 0.668471 0.176165 0.127720
H42   H     H_    0.417697 0.785981 0.268210 0.122384
H43   H     H_    0.267649 0.826538 0.255415 0.137361
H44   H     H_    0.114723 0.750346 0.152443 0.113661

loop_
_geom_bond_atom_site_label_1
_geom_bond_atom_site_label_2
_ccdc_geom_bond_type
C10   C27   A    
C48   H25   S    
C59   H36   S    
C5    C57   S    
C55   C56   A    
C47   H33   S    
C41   C42   A    
C3    C48   S    
C36   C42   A    
C35   C36   A    
C9    C14   A    
C3    C6    S    
Cu1   O5    S    
C30   H19   S    
C52   H27   S    
C13   H8    S    
C28   H5    S    
C25   C28   A    
C26   C27   A    
C29   C30   A    
C45   C50   S    
C4    C63   S    
C36   C37   A    
C24   C26   A    
C58   H35   S    
C60   C61   A    
C1    O1    A    
C15   C16   A    
C29   C33   A    
C45   H10   S    
C65   C66   A    
C12   O4    A    
C18   C19   A    
C42   C46   A    
C51   C56   A    
Cu2   O4    S    
C9    C13   A    
C67   C68   A    
C21   H12   S    
C53   H28   S    
Cu1   N2    S    
C38   H14   S    
C19   H11   S    
C23   O6    A    
C61   C62   A    
C57   C62   A    
Cu2   N1    S    
C45   C51   S    
Cu1   O1    S    
C63   C68   A    
C20   H4    S    
C67   H43   S    
C43   H22   S    
C21   C22   A    
C41   C43   A    
C18   C25   A    
C11   H7    S    
C58   C59   A    
C54   H29   S    
C63   C64   A    
C47   C50   S    
C60   H37   S    
C2    C45   S    
C22   H32   S    
C40   H17   S    
Cu1   Cu2   S    
C32   C35   A    
C7    C8    T    
C1    C9    S    
C24   C25   A    
C2    H2    S    
Cu1   O7    S    
C53   C54   A    
C34   O8    A    
C1    O2    A    
C68   H44   S    
C14   H9    S    
C27   H6    S    
C17   C21   A    
C12   O3    A    
C62   H39   S    
C35   C39   A    
C66   H42   S    
C37   C38   A    
C11   C16   A    
C47   C48   S    
Cu2   O8    S    
C8    C12   S    
C17   C18   A    
C61   H38   S    
C16   C20   A    
Cu2   O2    S    
C30   N1    A    
C31   H20   S    
C4    H3    S    
C22   C24   A    
C5    C50   S    
C44   H16   S    
C3    C4    S    
Cu1   O3    S    
C39   C40   A    
C39   H34   S    
C29   H18   S    
C10   C28   A    
C15   C17   A    
C37   H21   S    
C40   C41   A    
C34   C49   S    
C26   H13   S    
C31   C32   A    
C7    C50   S    
C4    C5    S    
C2    H1    S    
C31   N1    A    
C10   C23   S    
C59   C60   A    
C33   C38   A    
C32   C33   A    
C19   C20   A    
Cu2   O6    S    
C2    C3    S    
C51   C52   A    
C47   H23   S    
C46   H15   S    
C66   C67   A    
C44   N2    A    
C46   N2    A    
C11   C13   A    
C52   C53   A    
C56   H31   S    
C43   C44   A    
C54   C55   A    
C34   O7    A    
C6    C49   T    
C48   H24   S    
C64   H40   S    
C23   O5    A    
C57   C58   A    
C14   C15   A    
C65   H41   S    
C5    H26   S    
C55   H30   S    
C64   C65   A    
