data_mof_unit_262.cif
_audit_creation_date              2012-12-10T18:59:12-0500
_audit_creation_method            fapswitch 2.2
_symmetry_space_group_name_H-M    P1
_symmetry_Int_Tables_number       1
_space_group_crystal_system       triclinic
_cell_length_a                    9.913997
_cell_length_b                    10.782362
_cell_length_c                    16.62034
_cell_angle_alpha                 86.870555
_cell_angle_beta                  94.881646
_cell_angle_gamma                 88.547852
_cell_volume                      1766.76535243

loop_
_atom_site_label
_atom_site_type_symbol
_atom_type_description
_atom_site_fract_x
_atom_site_fract_y
_atom_site_fract_z
_atom_type_partial_charge
C1    C     C_R   0.501565 0.260013 0.499573 0.935244
C2    C     C_R   0.083049 0.431239 0.557701 -0.041314
C3    C     C_R   0.517238 0.517166 0.651937 0.923134
C4    C     C_R   0.482989 0.488448 0.346904 0.904608
C5    C     C_R   0.525717 0.559190 0.735697 -0.281011
C6    C     C_R   0.480418 0.452834 0.261773 -0.373584
C7    C     C_R   0.406528 0.600178 0.769994 -0.176536
C8    C     C_R   0.598330 0.392759 0.236566 -0.161393
C9    C     C_R   0.410940 0.611807 0.853734 0.443649
C10   C     C_R   0.622046 0.401435 0.154414 0.453966
C11   C     C_R   0.528331 0.575245 0.902498 0.083558
C12   C     C_R   0.498544 0.739887 0.501059 0.957699
C13   C     C_R   0.520366 0.450166 0.097710 0.019531
C14   C     C_R   0.649479 0.546830 0.868534 0.382764
C15   C     C_R   0.391839 0.483620 0.121086 0.465121
C16   C     C_R   0.651136 0.555601 0.784058 -0.164507
C17   C     C_R   0.371709 0.487552 0.203459 -0.127757
C18   C     C_R   0.379142 0.069189 0.493392 -0.321428
C19   C     C_R   0.621295 0.930346 0.509166 -0.301017
C20   C     C_2   0.691396 0.314936 0.295359 0.472795
C21   C     C_2   0.280747 0.641144 0.718972 0.440851
C22   C     C_3   0.834027 0.457971 0.130058 -0.123868
C23   C     C_R   0.373851 0.941585 0.498143 0.539323
C24   C     C_3   0.301534 0.775022 0.902488 -0.137712
C25   C     C_3   0.804042 0.397353 0.919792 -0.256253
C26   C     C_3   0.225885 0.412224 0.034487 -0.191833
C27   C     C_2   0.782818 0.577995 0.749946 0.499957
C28   C     C_2   0.234947 0.519369 0.226556 0.493013
C29   C     C_3   0.176289 0.911464 0.558058 -0.225896
C30   C     C_3   0.834399 0.078044 0.452439 -0.190002
C31   C     C_2   0.113299 0.643914 0.374511 0.494816
C32   C     C_2   0.884048 0.366733 0.628831 0.539584
C33   C     C_2   0.829941 0.648168 0.382777 0.461466
C34   C     C_R   0.626851 0.058174 0.504333 0.525548
C35   C     C_2   0.167887 0.351305 0.617647 0.455117
C36   C     C_R   0.496547 0.872390 0.502928 -0.219994
C37   C     C_R   0.503873 0.127304 0.498952 -0.217834
C38   C     C_R   0.059905 0.569860 0.442032 -0.034783
C39   C     C_R   0.939584 0.432707 0.559010 0.023397
C40   C     C_R   0.916338 0.569220 0.442615 -0.044004
H1    H     H_    0.284496 0.122449 0.484953 0.225284
H2    H     H_    0.207928 0.803996 0.929416 0.203262
H3    H     H_    0.898397 0.380137 0.960040 0.184427
H4    H     H_    0.824440 0.367087 0.859017 0.129133
H5    H     H_    0.724842 0.338650 0.944348 0.199068
H6    H     H_    0.183346 0.356839 0.084352 0.120543
H7    H     H_    0.297471 0.353646 0.003761 0.147488
H8    H     H_    0.140764 0.441501 0.989258 0.206997
H9    H     H_    0.876643 0.539973 0.780912 0.106372
H10   H     H_    0.195805 0.469421 0.277434 0.040454
H11   H     H_    0.240805 0.904259 0.616505 0.139250
H12   H     H_    0.715488 0.876536 0.518214 0.232946
H13   H     H_    0.095611 0.842564 0.562526 0.200365
H14   H     H_    0.125977 0.004903 0.548680 0.194455
H15   H     H_    0.911519 0.149481 0.444502 0.200026
H16   H     H_    0.777205 0.069319 0.392426 0.170949
H17   H     H_    0.889380 0.989347 0.472634 0.181617
H18   H     H_    0.054272 0.653753 0.316465 0.044674
H19   H     H_    0.934442 0.373174 0.688944 -0.032581
H20   H     H_    0.789012 0.610286 0.327046 0.058312
H21   H     H_    0.209849 0.388559 0.673295 0.087505
H22   H     H_    0.656745 0.281917 0.352463 0.065398
H23   H     H_    0.287133 0.682756 0.658625 0.077286
H24   H     H_    0.796886 0.536119 0.086718 0.188871
H25   H     H_    0.932528 0.423709 0.111583 0.181685
H26   H     H_    0.852943 0.492216 0.191890 0.151348
H27   H     H_    0.305791 0.831350 0.844621 0.125394
H28   H     H_    0.389031 0.795187 0.945800 0.144434
N1    N     N_2   0.520325 0.567613 0.986391 -0.083508
N2    N     N_2   0.545697 0.460308 0.015833 -0.125936
N3    N     N_R   0.857210 0.499970 0.500020 -0.114556
N4    N     N_R   0.142790 0.500030 0.499980 -0.120655
O1    O     O_R   0.614620 0.316750 0.500010 -0.541856
O2    O     O_2   0.168946 0.628969 0.743563 -0.547179
O3    O     O_3   0.743099 0.359224 0.128514 -0.573013
O4    O     O_3   0.295845 0.647083 0.889408 -0.527648
O5    O     O_3   0.767779 0.525147 0.918440 -0.601390
O6    O     O_3   0.287936 0.519625 0.062831 -0.518728
O7    O     O_2   0.789374 0.648462 0.690428 -0.557846
O8    O     O_2   0.162823 0.598380 0.187308 -0.546793
O9    O     O_3   0.249768 0.884785 0.491606 -0.558294
O10   O     O_3   0.750635 0.115850 0.511823 -0.561424
O11   O     O_2   0.216610 0.701440 0.382348 -0.469415
O12   O     O_R   0.385380 0.683250 0.499990 -0.538375
O13   O     O_2   0.789249 0.298044 0.620549 -0.496957
O14   O     O_2   0.811487 0.758199 0.393199 -0.591518
O15   O     O_2   0.184452 0.241074 0.607209 -0.605343
O16   O     O_R   0.385290 0.316780 0.500000 -0.614016
O17   O     O_R   0.614710 0.683220 0.500000 -0.591923
O18   O     O_R   0.627460 0.498830 0.616130 -0.554711
O19   O     O_R   0.372540 0.501170 0.383870 -0.605135
O20   O     O_R   0.398130 0.498850 0.616130 -0.673087
O21   O     O_R   0.601870 0.501150 0.383870 -0.657264
O22   O     O_2   0.805751 0.284521 0.280631 -0.563889
Zn1   Zn    Zn3+2 0.653130 0.499980 0.500000 1.038912
Zn2   Zn    Zn3+2 0.346870 0.500020 0.500000 1.002174

loop_
_geom_bond_atom_site_label_1
_geom_bond_atom_site_label_2
_ccdc_geom_bond_type
C2    C35   S    
O16   Zn2   S    
C30   O10   S    
C40   N3    A    
C34   C37   A    
C24   H2    S    
C25   H3    S    
O18   Zn1   S    
C26   O6    S    
C3    O18   A    
C25   O5    S    
C31   H18   S    
C18   C37   A    
C27   O7    D    
C19   C36   A    
C11   C14   A    
C14   O5    S    
C15   O6    S    
N3    Zn1   S    
C13   N2    S    
C30   H17   S    
O20   Zn2   S    
C31   O11   D    
C12   O12   A    
C7    C9    A    
O12   Zn2   S    
C32   C39   S    
C22   H26   S    
C5    C16   A    
C24   H27   S    
O19   Zn2   S    
C28   H10   S    
C19   H12   S    
C9    O4    S    
C12   C36   S    
C1    C37   S    
C4    O19   A    
C1    O16   A    
O21   Zn1   S    
C35   O15   D    
C22   O3    S    
C2    N4    A    
C2    C39   A    
C25   H4    S    
C38   N4    A    
C33   C40   S    
C18   C23   A    
C12   O17   A    
C4    C6    S    
C18   H1    S    
C5    C7    A    
C24   H28   S    
C24   O4    S    
C6    C8    A    
C7    C21   S    
C30   H16   S    
C21   O2    D    
C19   C34   A    
C3    O20   A    
O17   Zn1   S    
C33   O14   D    
C22   H25   S    
C29   O9    S    
C10   O3    S    
C35   H21   S    
C8    C20   S    
C9    C11   A    
C26   H7    S    
C33   H20   S    
C13   C15   A    
C14   C16   A    
O1    Zn1   S    
C25   H5    S    
C29   H11   S    
C15   C17   A    
C6    C17   A    
C20   O22   D    
C23   O9    S    
C17   C28   S    
C3    C5    S    
C10   C13   A    
C11   N1    S    
C26   H8    S    
C30   H15   S    
C31   C38   S    
C1    O1    A    
C38   C40   A    
C29   H13   S    
C16   C27   S    
C32   O13   D    
C20   H22   S    
N1    N2    D    
C28   O8    D    
C21   H23   S    
C26   H6    S    
C22   H24   S    
C4    O21   A    
N4    Zn2   S    
C8    C10   A    
C23   C36   A    
C29   H14   S    
C39   N3    A    
C34   O10   S    
C32   H19   S    
C27   H9    S    
