data_mof_unit_3873.cif
_audit_creation_date              2013-03-05T15:42:47-0500
_audit_creation_method            fapswitch 2.2
_symmetry_space_group_name_H-M    P1
_symmetry_Int_Tables_number       1
_space_group_crystal_system       triclinic
_cell_length_a                    6.946349
_cell_length_b                    14.786023
_cell_length_c                    16.218584
_cell_angle_alpha                 90.470715
_cell_angle_beta                  91.565257
_cell_angle_gamma                 89.005007
_cell_volume                      1664.86994614

loop_
_atom_site_label
_atom_site_type_symbol
_atom_site_description
_atom_site_fract_x
_atom_site_fract_y
_atom_site_fract_z
_atom_type_partial_charge
O1    O     O_R   0.494400 0.416610 0.413880 -0.505050
O2    O     O_R   0.823920 0.406790 0.585520 -0.539182
O3    O     O_R   0.994250 0.583390 0.586120 -0.549046
C1    C     C_R   0.659252 0.385692 0.613769 0.896705
O4    O     O_R   0.824110 0.405730 0.414490 -0.558966
O5    O     O_R   0.994440 0.582310 0.413870 -0.551670
C2    C     C_R   0.655283 0.383212 0.386650 0.810272
O6    O     O_R   0.494210 0.417690 0.586130 -0.530699
O7    O     O_3   0.660810 0.557940 0.500000 -0.297723
V1    V     V_3+5 0.935650 0.489250 0.500000 1.323443
O8    O     O_R   0.324160 0.593210 0.414480 -0.558324
C3    C     C_R   0.151900 0.614622 0.386896 0.897929
O9    O     O_R   0.323970 0.594270 0.585510 -0.559640
C4    C     C_R   0.156710 0.614503 0.615104 0.913586
V2    V     V_3+5 0.435660 0.510750 0.500000 1.303219
O10   O     O_3   0.160630 0.442060 0.500000 -0.230174
H1    H     H_    0.135628 0.915606 0.497004 0.124217
C5    C     C_R   0.192383 0.563836 0.790232 0.556446
C6    C     C_R   0.211254 0.539781 0.873085 0.698165
C7    C     C_R   0.198896 0.605061 0.934663 -0.099306
C8    C     C_R   0.166123 0.695247 0.914385 -0.140640
C9    C     C_R   0.147157 0.722722 0.831125 -0.048497
C10   C     C_R   0.161721 0.655829 0.767303 -0.126151
C11   C     C_R   0.113101 0.815249 0.811536 -0.054147
C12   C     C_R   0.097159 0.841406 0.726870 -0.048162
C13   C     C_R   0.131695 0.775635 0.663755 -0.017843
C14   C     C_R   0.150550 0.682659 0.683263 -0.065016
C15   C     C_R   0.049828 0.931661 0.701978 0.341913
C16   C     C_R   0.071759 0.957801 0.620078 0.008594
C17   C     C_R   0.122917 0.894885 0.560472 -0.099676
C18   C     C_R   0.145954 0.804380 0.581160 -0.071757
H2    H     H_    0.214721 0.585689 0.998754 0.192877
H3    H     H_    0.156204 0.743044 0.965002 0.102116
H4    H     H_    0.037542 0.026552 0.601495 0.162206
H5    H     H_    0.177613 0.757448 0.531630 0.041800
C19   C     C_2   0.053326 0.669142 0.249058 0.627507
C20   C     C_2   0.130552 0.685867 0.324776 -0.208103
H6    H     H_    0.173359 0.753126 0.343754 0.041857
C21   C     C_2   0.023867 0.739602 0.183451 0.176256
C22   C     C_2   0.140884 0.812411 0.175859 0.042794
C23   C     C_2   0.710092 0.257446 0.820990 0.249660
C24   C     C_2   0.593548 0.184117 0.819806 0.182530
C25   C     C_2   0.684881 0.333293 0.759781 0.260039
C26   C     C_2   0.666432 0.315229 0.677428 0.432340
C27   C     C_2   0.773115 0.209463 0.214062 -0.100531
C28   C     C_2   0.613345 0.189591 0.169417 0.535769
H7    H     H_    0.905211 0.171085 0.203751 0.093795
C29   C     C_2   0.786342 0.287263 0.272409 0.240776
C30   C     C_2   0.644232 0.308083 0.325905 0.469048
O11   O     O_R   0.770210 0.079270 0.910680 -0.505108
O12   O     O_R   0.440150 0.091160 0.082270 -0.515535
O13   O     O_R   0.269970 0.914530 0.082860 -0.526509
C31   C     C_R   0.609036 0.114651 0.109000 0.792092
O14   O     O_R   0.440480 0.090100 0.911240 -0.540892
O15   O     O_R   0.270310 0.913460 0.910610 -0.564484
C32   C     C_R   0.605263 0.113565 0.884575 0.903911
O16   O     O_R   0.769870 0.080340 0.082930 -0.593184
O17   O     O_3   0.603660 0.938980 0.996790 -0.256766
V3    V     V_3+5 0.328750 0.007610 0.996740 1.336286
O18   O     O_R   0.940600 0.902510 0.911180 -0.529951
C33   C     C_R   0.107402 0.883990 0.879950 0.843664
O19   O     O_R   0.940270 0.903570 0.082200 -0.543202
C34   C     C_R   0.112868 0.880406 0.109114 0.823880
V4    V     V_3+5 0.828770 0.986010 0.996670 1.315082
O20   O     O_3   0.103730 0.054750 0.996710 -0.246681
N1    N     N_R   0.876058 0.722403 0.121803 0.095775
O21   O     O_R   0.718259 0.770945 0.120222 -0.272184
O22   O     O_R   0.882905 0.648223 0.078257 -0.270990
N2    N     N_R   0.316733 0.819360 0.224618 0.067514
O23   O     O_R   0.435781 0.750630 0.230493 -0.310047
O24   O     O_R   0.371494 0.897897 0.252397 -0.336467
N3    N     N_R   0.853589 0.268327 0.885884 0.110982
O25   O     O_R   0.808087 0.260309 0.962773 -0.323488
O26   O     O_R   0.019791 0.301507 0.868895 -0.175124
N4    N     N_R   0.433474 0.178259 0.761772 0.115743
O27   O     O_R   0.394149 0.100964 0.726919 -0.276677
O28   O     O_R   0.313244 0.246034 0.751873 -0.261883
N5    N     N_R   0.686565 0.425137 0.791822 0.090292
O29   O     O_R   0.657321 0.440024 0.869703 -0.231674
O30   O     O_R   0.728334 0.493538 0.746019 -0.384078
F1    F     F_    0.688699 0.228731 0.649523 -0.663133
F2    F     F_    0.451744 0.242484 0.174941 -0.583573
N6    N     N_R   0.961242 0.337336 0.272297 0.087311
O31   O     O_R   0.006076 0.379797 0.205782 -0.188486
O32   O     O_R   0.095708 0.319631 0.327474 -0.246652
F3    F     F_    0.207715 0.496159 0.733607 -0.645280
F4    F     F_    0.486657 0.255013 0.328989 -0.610145
F5    F     F_    0.244178 0.452234 0.893983 -0.553352
N7    N     N_R   0.944031 0.991973 0.753596 0.062641
O33   O     O_R   0.996615 0.075659 0.761581 -0.288320
O34   O     O_R   0.767789 0.971334 0.769702 -0.364495
F6    F     F_    0.989432 0.584314 0.231915 -0.602367

loop_
_geom_bond_atom_site_label_1
_geom_bond_atom_site_label_2
_geom_bond_distance
_ccdc_geom_bond_type
N1    O22   1.300525 A    
C11   C33   1.499435 S    
O15   V3    2.002695 S    
O11   V4    1.998271 S    
C23   C24   1.364049 D    
C30   F4    1.360077 S    
C6    C7    1.386511 A    
C1    O6    1.302182 A    
C27   C28   1.343964 D    
C25   N5    1.450174 S    
C13   C14   1.416259 A    
C16   C17   1.385198 A    
C22   C34   1.489993 S    
C19   C20   1.349318 D    
O5    C3    1.289850 A    
C17   C18   1.387813 A    
N5    O30   1.301229 A    
C8    H3    1.081675 S    
V2    O10   2.179169 S    
C5    C6    1.394990 A    
C3    C20   1.466499 S    
N2    O24   1.301362 A    
O19   V4    1.986529 S    
C24   C32   1.486169 S    
C28   F2    1.361474 S    
O8    V2    1.986597 S    
C15   N7    1.426460 S    
O1    V2    2.008579 S    
C10   C14   1.422406 A    
C4    C14   1.490705 S    
N7    O34   1.300721 A    
O7    V1    2.146858 S    
C19   F6    1.361741 S    
N1    O21   1.299520 A    
C13   C18   1.415272 A    
O9    C4    1.298384 A    
H1    C17   1.082739 S    
C23   C25   1.508596 S    
O14   V3    2.032826 S    
C27   H7    1.086592 S    
O17   V4    1.722397 S    
O14   C32   1.288761 A    
C22   N2    1.441607 S    
C5    C10   1.423986 A    
C11   C12   1.430507 A    
C2    C30   1.480322 S    
N3    O26   1.299517 A    
C26   F1    1.360863 S    
C21   C22   1.368542 D    
O4    C2    1.293131 A    
C31   O16   1.298809 A    
N5    O29   1.301179 A    
C1    C26   1.472076 S    
O17   V3    2.146865 S    
C16   H4    1.083245 S    
O11   C32   1.306161 A    
O18   C33   1.301076 A    
C12   C15   1.427714 A    
O2    C1    1.288010 A    
N4    O27   1.300822 A    
C20   H6    1.082778 S    
O13   V3    2.023371 S    
N6    O31   1.300458 A    
O19   C34   1.305706 A    
C24   N4    1.440360 S    
C5    F3    1.357448 S    
N4    O28   1.301448 A    
O3    C4    1.300625 A    
C23   N3    1.439665 S    
C29   C30   1.361561 D    
N6    O32   1.300582 A    
C6    F5    1.354815 S    
O6    V2    1.997801 S    
O9    V2    2.011886 S    
C25   C26   1.362965 D    
C21   N1    1.437831 S    
C18   H5    1.081844 S    
O12   V3    1.998901 S    
O2    V1    2.032782 S    
O16   V4    2.012312 S    
C7    H2    1.082667 S    
C27   C29   1.486034 S    
C15   C16   1.399473 A    
O1    C2    1.300783 A    
C19   C21   1.502778 S    
N3    O25   1.301659 A    
O13   C34   1.294153 A    
O5    V1    2.023295 S    
O8    C3    1.300808 A    
C29   N6    1.433719 S    
O18   V4    2.011868 S    
V4    O20   2.179077 S    
C12   C13   1.428305 A    
O4    V1    1.998777 S    
O3    V1    2.002699 S    
V1    O10   1.700382 S    
V3    O20   1.700333 S    
O15   C33   1.304034 A    
C28   C31   1.473298 S    
C9    C11   1.421417 A    
O7    V2    1.723590 S    
N2    O23   1.301455 A    
C7    C8    1.389525 A    
C9    C10   1.430159 A    
O12   C31   1.291796 A    
N7    O33   1.300679 A    
C8    C9    1.415385 A    
