data_mof_unit_4870.cif
_audit_creation_date              2012-12-10T17:12:02-0500
_audit_creation_method            fapswitch 2.2
_symmetry_space_group_name_H-M    P1
_symmetry_Int_Tables_number       1
_space_group_crystal_system       triclinic
_cell_length_a                    11.744721
_cell_length_b                    12.967673
_cell_length_c                    15.781431
_cell_angle_alpha                 93.979817
_cell_angle_beta                  76.159856
_cell_angle_gamma                 100.74703
_cell_volume                      2292.04786317

loop_
_atom_site_label
_atom_site_type_symbol
_atom_type_description
_atom_site_fract_x
_atom_site_fract_y
_atom_site_fract_z
_atom_type_partial_charge
C1    C     C_R   0.521831 0.700905 0.500237 0.844413
C2    C     C_R   0.478137 0.299107 0.499891 0.847076
C3    C     C_R   0.360903 0.456703 0.083084 -0.105744
C4    C     C_R   0.639199 0.539441 0.916583 -0.121584
C5    C     C_R   0.276170 0.436470 0.033053 -0.074890
C6    C     C_R   0.723898 0.559856 0.966609 -0.087927
C7    C     C_R   0.464494 0.185654 0.503889 -0.020902
C8    C     C_R   0.535495 0.814401 0.496521 -0.016077
C9    C     C_R   0.655061 0.982010 0.448621 -0.155732
C10   C     C_R   0.345062 0.018145 0.552192 -0.167049
C11   C     C_R   0.644985 0.874284 0.456504 -0.080132
C12   C     C_R   0.355210 0.125898 0.544401 -0.120494
C13   C     C_R   0.435637 0.862300 0.528309 -0.204965
C14   C     C_R   0.564319 0.137734 0.472061 -0.202227
C15   C     C_R   0.444701 0.969884 0.520432 0.154648
C16   C     C_R   0.555324 0.030201 0.480146 0.152033
C17   C     C_R   0.953894 0.605453 0.574056 -0.316839
C18   C     C_R   0.045995 0.394409 0.426142 -0.290703
C19   C     C_R   0.834260 0.596912 0.569244 0.582980
C20   C     C_R   0.165949 0.403363 0.430405 0.645648
C21   C     C_R   0.853423 0.451865 0.469487 0.027961
C22   C     C_R   0.146392 0.547774 0.530895 0.010601
C23   C     C_R   0.428662 0.487173 0.666992 0.890747
C24   C     C_R   0.571323 0.512624 0.332976 0.890126
C25   C     C_R   0.974620 0.461221 0.473760 -0.014179
C26   C     C_R   0.025171 0.538395 0.526678 0.002848
C27   C     C_R   0.388426 0.466864 0.760858 -0.222743
C28   C     C_R   0.611515 0.532096 0.238988 -0.222809
C29   C     C_R   0.226387 0.425308 0.888216 0.457410
C30   C     C_R   0.773552 0.572484 0.111473 0.456738
C31   C     C_R   0.266811 0.450097 0.800231 -0.270226
C32   C     C_R   0.733134 0.548705 0.199645 -0.273074
C33   C     C_R   0.469274 0.453793 0.810467 0.357965
C34   C     C_R   0.530584 0.544090 0.189099 0.360786
C35   C     C_R   0.434160 0.466499 0.901856 -0.052292
C36   C     C_R   0.565800 0.530474 0.097801 -0.052909
C37   C     C_R   0.310191 0.442694 0.941977 -0.047312
C38   C     C_R   0.689781 0.554281 0.057702 -0.036358
C39   C     C_R   0.518812 0.499660 0.953903 0.131261
C40   C     C_R   0.481223 0.496812 0.045764 0.115011
Cu1   Cu    Cu3+1 0.386820 0.492450 0.493500 1.068968
Cu2   Cu    Cu3+1 0.613180 0.507550 0.506500 1.066987
H1    H     H_    0.184566 0.418308 0.067767 0.230204
H2    H     H_    0.815549 0.577874 0.931921 0.222273
H3    H     H_    0.993711 0.667277 0.613195 0.190931
H4    H     H_    0.006233 0.332742 0.386784 0.191837
H5    H     H_    0.797533 0.551656 0.239190 0.217183
H6    H     H_    0.202412 0.447732 0.760775 0.215874
H7    H     H_    0.330303 0.441865 0.151858 0.214517
H8    H     H_    0.669860 0.553907 0.847812 0.185170
H9    H     H_    0.649087 0.184302 0.441244 0.146230
H10   H     H_    0.350812 0.815686 0.558961 0.147021
H11   H     H_    0.278680 0.162937 0.571909 0.199104
H12   H     H_    0.721694 0.837360 0.429293 0.183677
H13   H     H_    0.740155 0.027320 0.417174 0.161369
H14   H     H_    0.260020 0.972883 0.583788 0.166796
H15   H     H_    0.183913 0.607681 0.572660 0.139355
H16   H     H_    0.815863 0.391851 0.427822 0.135734
N1    N     N_R   0.216750 0.481110 0.483710 -0.236650
N2    N     N_R   0.783250 0.518890 0.516290 -0.227278
O1    O     O_R   0.419950 0.645670 0.495380 -0.586367
O2    O     O_R   0.580050 0.354330 0.504620 -0.584750
O3    O     O_R   0.611110 0.658410 0.506370 -0.539507
O4    O     O_R   0.388890 0.341590 0.493630 -0.536643
O5    O     O_R   0.350820 0.490050 0.621260 -0.619822
O6    O     O_R   0.649180 0.509950 0.378740 -0.621767
O7    O     O_R   0.541970 0.502800 0.632250 -0.488786
O8    O     O_R   0.458030 0.497200 0.367750 -0.485833
S1    S     S_3+6 0.232206 0.298356 0.370381 0.033261
O9    O     O_2   0.175537 0.265889 0.294436 -0.297498
O10   O     O_2   0.363917 0.320559 0.334232 -0.281657
O11   O     O_3   0.198749 0.195883 0.436793 -0.555653
H17   H     H_    0.223753 0.136143 0.398830 0.382662
S2    S     S_3+6 0.768531 0.702889 0.627566 0.050171
O12   O     O_2   0.792426 0.791747 0.566075 -0.271804
O13   O     O_2   0.637801 0.679073 0.667604 -0.278424
O14   O     O_3   0.836165 0.746182 0.709317 -0.499075
H18   H     H_    0.816798 0.686561 0.749296 0.342740
S3    S     S_3+6 0.419722 0.623434 0.232748 0.019372
O15   O     O_2   0.306668 0.557616 0.281185 -0.300761
O16   O     O_2   0.465112 0.705374 0.294623 -0.287851
O17   O     O_3   0.390344 0.684238 0.151659 -0.509687
H19   H     H_    0.323469 0.720555 0.180219 0.386496
S4    S     S_3+6 0.579650 0.374202 0.766062 0.019469
O18   O     O_2   0.533559 0.292815 0.704088 -0.279720
O19   O     O_2   0.692726 0.439923 0.717532 -0.317861
O20   O     O_3   0.609276 0.312638 0.846628 -0.505426
H20   H     H_    0.675752 0.276052 0.817640 0.389130
S5    S     S_3+6 0.073446 0.367401 0.920306 0.049816
O21   O     O_2   0.039342 0.316979 0.007739 -0.254014
O22   O     O_2   0.998823 0.449627 0.920119 -0.251253
O23   O     O_3   0.045001 0.274454 0.844678 -0.510327
H21   H     H_    0.957106 0.254240 0.858117 0.387792
S6    S     S_3+6 0.926556 0.629979 0.078921 0.048143
O24   O     O_2   0.000934 0.547181 0.077648 -0.246157
O25   O     O_2   0.959739 0.681457 0.991957 -0.260371
O26   O     O_3   0.956378 0.721871 0.154969 -0.514622
H22   H     H_    0.044310 0.741821 0.140971 0.386194

loop_
_geom_bond_atom_site_label_1
_geom_bond_atom_site_label_2
_ccdc_geom_bond_type
O20   H20   S    
C8    C13   A    
C5    C37   A    
C1    C8    S    
Cu1   Cu2   S    
C2    C7    S    
S4    O20   S    
Cu1   O1    S    
C22   H15   S    
C29   S5    S    
O26   H22   S    
C3    H7    S    
O14   H18   S    
C27   C33   A    
S2    O13   D    
C17   C26   A    
C35   C37   A    
C9    C16   A    
S4    O19   D    
C10   C15   A    
C15   C16   A    
C18   H4    S    
C30   C38   A    
C23   O7    A    
S1    O10   D    
C33   C35   A    
C7    C14   A    
S2    O14   S    
C6    C38   A    
C9    H13   S    
C23   C27   S    
S5    O22   D    
C10   H14   S    
Cu2   O2    S    
C34   C36   A    
C12   H11   S    
C24   O6    A    
C5    H1    S    
C28   C34   A    
C6    H2    S    
S6    O24   D    
C18   C25   A    
C1    O3    A    
C2    O4    A    
Cu1   O8    S    
C7    C12   A    
S2    O12   D    
C27   C31   A    
C28   C32   A    
S4    O18   D    
Cu1   N1    S    
C21   N2    A    
C4    C6    A    
Cu2   N2    S    
C22   N1    A    
S3    O16   D    
Cu1   O5    S    
S6    O26   S    
C25   C26   A    
C4    H8    S    
S5    O23   S    
S1    O11   S    
C35   C39   A    
C34   S3    S    
C13   H10   S    
C14   H9    S    
C4    C39   A    
C36   C40   A    
C20   N1    A    
S6    O25   D    
C9    C11   A    
C11   H12   S    
C10   C12   A    
C3    C40   A    
C31   H6    S    
C13   C15   A    
Cu2   O7    S    
C32   H5    S    
C14   C16   A    
C20   S1    S    
C39   C40   A    
C21   C25   A    
C19   S2    S    
C24   C28   S    
C17   H3    S    
O11   H17   S    
C3    C5    A    
C1    O1    A    
S3    O17   S    
C19   N2    A    
C23   O5    A    
C36   C38   A    
C21   H16   S    
C30   S6    S    
C30   C32   A    
C8    C11   A    
O23   H21   S    
C17   C19   A    
C18   C20   A    
S1    O9    D    
C33   S4    S    
C24   O8    A    
S3    O15   D    
C29   C31   A    
O17   H19   S    
C22   C26   A    
C29   C37   A    
Cu2   O6    S    
Cu1   O4    S    
S5    O21   D    
Cu2   O3    S    
C2    O2    A    
