data_mof_unit_1563.cif
_audit_creation_date              2012-12-10T17:18:57-0500
_audit_creation_method            fapswitch 2.2
_symmetry_space_group_name_H-M    P1
_symmetry_Int_Tables_number       1
_space_group_crystal_system       triclinic
_cell_length_a                    9.654468
_cell_length_b                    10.773447
_cell_length_c                    13.445901
_cell_angle_alpha                 93.082768
_cell_angle_beta                  72.861413
_cell_angle_gamma                 89.506801
_cell_volume                      1334.05917585

loop_
_atom_site_label
_atom_site_type_symbol
_atom_type_description
_atom_site_fract_x
_atom_site_fract_y
_atom_site_fract_z
_atom_type_partial_charge
C1    C     C_R   0.499587 0.737063 0.499832 0.768986
C2    C     C_R   0.430525 0.535213 0.981549 0.082867
C3    C     C_R   0.469772 0.556257 0.873639 0.088955
C4    C     C_R   0.537391 0.549825 0.034962 0.063167
C5    C     C_R   0.677223 0.591758 0.982028 0.176100
C6    C     C_R   0.705728 0.628870 0.880561 -0.244369
C7    C     C_R   0.602224 0.614444 0.828109 -0.199103
C8    C     C_R   0.510665 0.520725 0.138867 -0.206915
C9    C     C_R   0.757718 0.564073 0.134535 -0.234136
C10   C     C_R   0.374739 0.519057 0.814892 -0.106082
C11   C     C_R   0.659650 0.854808 0.312031 -0.169754
C12   C     C_R   0.422042 0.508237 0.699897 0.776691
C13   C     C_R   0.732722 0.912081 0.221477 -0.138009
C14   C     C_R   0.729045 0.040997 0.219660 -0.140518
C15   C     C_R   0.654019 0.113174 0.308819 -0.182236
C16   C     C_R   0.580741 0.057305 0.401718 0.087363
C17   C     C_R   0.581657 0.926255 0.402811 0.095233
C18   C     C_R   0.501259 0.870377 0.493998 -0.083776
C19   C     C_R   0.420030 0.942321 0.581410 -0.213501
C20   C     C_R   0.421478 0.070638 0.581043 -0.185954
C21   C     C_R   0.503073 0.128309 0.492943 -0.088568
C22   C     C_R   0.900430 0.311824 0.388228 -0.137957
C23   C     C_R   0.501172 0.262693 0.497989 0.792512
C24   C     C_R   0.970545 0.196844 0.366684 -0.229619
C25   C     C_R   0.106039 0.184215 0.379322 -0.221084
C26   C     C_R   0.178063 0.291211 0.397207 0.029306
C27   C     C_R   0.095977 0.402133 0.446802 0.137354
C28   C     C_R   0.947521 0.406083 0.445527 0.194909
C29   C     C_R   0.904533 0.590857 0.551422 -0.052006
C30   C     C_R   0.052174 0.591336 0.550813 -0.059229
C31   C     C_R   0.577570 0.505825 0.300771 0.787016
C32   C     C_R   0.786214 0.598110 0.031941 -0.211582
C33   C     C_R   0.618740 0.526860 0.188907 -0.032893
C34   C     C_R   0.234216 0.481878 0.866883 -0.194590
C35   C     C_R   0.190128 0.474478 0.974085 -0.162571
C36   C     C_R   0.286993 0.498123 0.030907 -0.173124
Cu1   Cu    Cu3+1 0.359340 0.500010 0.500010 0.946279
Cu2   Cu    Cu3+1 0.640660 0.499990 0.499990 0.932485
H1    H     H_    0.842342 0.571318 0.172309 0.155066
H2    H     H_    0.663602 0.754601 0.309923 0.138906
H3    H     H_    0.791410 0.856236 0.152286 0.144528
H4    H     H_    0.784814 0.085361 0.149052 0.142531
H5    H     H_    0.652930 0.212689 0.303916 0.134564
H6    H     H_    0.359782 0.125434 0.650156 0.144827
H7    H     H_    0.832188 0.665674 0.593761 0.127279
H8    H     H_    0.810304 0.324928 0.359531 0.189893
H9    H     H_    0.926138 0.120175 0.331964 0.178415
H10   H     H_    0.165306 0.097004 0.350630 0.160562
H11   H     H_    0.808873 0.668520 0.841188 0.137825
H12   H     H_    0.088746 0.666190 0.592963 0.133110
H13   H     H_    0.893259 0.629877 0.991670 0.137735
H14   H     H_    0.405245 0.493019 0.183135 0.159280
H15   H     H_    0.158541 0.455516 0.824370 0.162545
H16   H     H_    0.244449 0.487354 0.113347 0.124497
H17   H     H_    0.081285 0.445896 0.013183 0.146448
H18   H     H_    0.627174 0.651649 0.752154 0.161687
H19   H     H_    0.357339 0.898782 0.650776 0.135862
N1    N     N_R   0.852480 0.498790 0.499000 -0.193105
N2    N     N_R   0.148360 0.498710 0.498970 -0.196042
O1    O     O_R   0.381190 0.680360 0.500010 -0.578556
O2    O     O_R   0.618760 0.680340 0.500000 -0.588507
O3    O     O_R   0.323240 0.499990 0.650990 -0.580230
O4    O     O_R   0.560820 0.499960 0.650980 -0.571346
O5    O     O_R   0.381240 0.319660 0.500000 -0.576964
O6    O     O_R   0.618810 0.319640 0.499990 -0.583580
O7    O     O_R   0.439180 0.500040 0.349020 -0.578578
O8    O     O_R   0.676760 0.500010 0.349010 -0.615721
C37   C     C_1   0.317793 0.288211 0.320574 0.296751
N3    N     N_1   0.426968 0.277315 0.255256 -0.341334

loop_
_geom_bond_atom_site_label_1
_geom_bond_atom_site_label_2
_ccdc_geom_bond_type
C31   O7    A    
C2    C4    A    
C31   C33   S    
C32   H13   S    
C29   C30   A    
C28   N1    A    
C12   O3    A    
C8    H14   S    
C35   C36   A    
Cu2   O6    S    
C4    C8    A    
C14   H4    S    
Cu2   O2    S    
C26   C37   S    
C30   N2    A    
C23   O6    A    
C13   H3    S    
C17   C18   A    
C30   H12   S    
C15   H5    S    
C10   C34   A    
C3    C10   A    
C27   N2    A    
C13   C14   A    
C29   N1    A    
C31   O8    A    
C11   C13   A    
C25   H10   S    
C1    C18   S    
C16   C21   A    
C10   C12   S    
C7    H18   S    
C9    C33   A    
C19   H19   S    
C5    C6    A    
C25   C26   A    
C23   O5    A    
C22   H8    S    
Cu1   Cu2   S    
C2    C3    A    
C6    C7    A    
C3    C7    A    
C8    C33   A    
C21   C23   S    
C6    H11   S    
C26   C27   A    
C11   H2    S    
C22   C24   A    
Cu1   O1    S    
C36   H16   S    
Cu1   O7    S    
Cu2   N1    S    
C15   C16   A    
Cu2   O8    S    
C9    H1    S    
Cu1   O5    S    
C24   C25   A    
C34   H15   S    
C34   C35   A    
C1    O1    A    
C2    C36   A    
C27   C28   A    
C12   O4    A    
Cu1   O3    S    
C14   C15   A    
C18   C19   A    
C22   C28   A    
C9    C32   A    
C20   H6    S    
C20   C21   A    
Cu2   O4    S    
C24   H9    S    
C35   H17   S    
C37   N3    T    
C5    C32   A    
C11   C17   A    
Cu1   N2    S    
C19   C20   A    
C16   C17   A    
C29   H7    S    
C4    C5    A    
C1    O2    A    
