data_mof_unit_312.cif
_audit_creation_date              2012-12-10T17:22:39-0500
_audit_creation_method            fapswitch 2.2
_symmetry_space_group_name_H-M    P1
_symmetry_Int_Tables_number       1
_space_group_crystal_system       triclinic
_cell_length_a                    10.652516
_cell_length_b                    10.835379
_cell_length_c                    9.685236
_cell_angle_alpha                 88.408747
_cell_angle_beta                  89.620951
_cell_angle_gamma                 95.865628
_cell_volume                      1111.57703102

loop_
_atom_site_label
_atom_site_type_symbol
_atom_type_description
_atom_site_fract_x
_atom_site_fract_y
_atom_site_fract_z
_atom_type_partial_charge
C1    C     C_R   0.502716 0.261573 0.502476 0.823365
C2    C     C_3   0.959166 0.490786 0.367916 -0.204954
C3    C     C_3   0.030121 0.391901 0.445954 -0.217473
C4    C     C_3   0.123206 0.497133 0.501001 -0.199091
C5    C     C_R   0.482390 0.097575 0.765432 -0.257070
C6    C     C_R   0.431875 0.028757 0.879884 0.682056
C7    C     C_R   0.368049 0.911423 0.864769 0.325502
C8    C     C_R   0.362743 0.858817 0.733254 0.283606
C9    C     C_R   0.428615 0.923529 0.619676 -0.084583
C10   C     C_R   0.470053 0.050889 0.630885 -0.081961
C11   C     C_R   0.497977 0.124282 0.507222 -0.286798
C12   C     C_R   0.259777 0.497749 0.500456 0.833944
C13   C     C_R   0.499864 0.064478 0.380036 0.697442
C14   C     C_R   0.472869 0.937384 0.373014 0.382047
C15   C     C_R   0.454510 0.865007 0.495515 -0.318958
C16   C     C_R   0.637555 0.701701 0.133869 0.373978
C17   C     C_R   0.661303 0.814856 0.060459 0.496253
C18   C     C_R   0.659826 0.816308 0.917926 0.141617
C19   C     C_R   0.636841 0.702620 0.852176 0.404939
C20   C     C_R   0.567837 0.598043 0.922088 -0.047638
C21   C     C_R   0.567632 0.597970 0.071158 -0.122048
C22   C     C_R   0.432356 0.410878 0.078021 0.789088
C23   C     C_R   0.483688 0.734623 0.498365 0.862997
C24   C     C_R   0.430153 0.411106 0.931631 0.391111
C25   C     C_R   0.740289 0.500909 0.499504 0.923704
C26   C     C_3   0.039521 0.506564 0.627918 0.340896
C27   C     C_3   0.945484 0.401020 0.576123 -0.277807
C28   C     C_3   0.877056 0.500524 0.498411 -0.255771
C29   C     C_3   0.970563 0.604722 0.552417 0.549577
C30   C     C_3   0.053527 0.594531 0.424306 0.534022
Cu1   Cu    Cu3+1 0.499990 0.499990 0.640660 1.029746
Cu2   Cu    Cu3+1 0.500010 0.500010 0.359340 1.096656
H1    H     H_    0.899272 0.322251 0.639854 0.197099
H2    H     H_    0.924405 0.485405 0.260218 0.210014
H3    H     H_    0.057342 0.304730 0.402205 0.218008
H4    H     H_    0.536685 0.183993 0.787032 0.221261
N1    N     N_R   0.501210 0.501210 0.147910 -0.255553
N2    N     N_R   0.501250 0.501290 0.852040 -0.245666
O1    O     O_R   0.499990 0.319640 0.618810 -0.635655
O2    O     O_R   0.500000 0.319660 0.381240 -0.473652
O3    O     O_R   0.316850 0.499960 0.618770 -0.558841
O4    O     O_R   0.316860 0.499980 0.381190 -0.547949
O5    O     O_R   0.500000 0.680340 0.618760 -0.524169
O6    O     O_R   0.500010 0.680360 0.381190 -0.544555
O7    O     O_R   0.683140 0.500020 0.618810 -0.525196
O8    O     O_R   0.683150 0.500040 0.381230 -0.524256
O9    O     O_3   0.312168 0.851359 0.980578 -0.637609
H5    H     H_    0.279121 0.765633 0.957984 0.376222
O10   O     O_3   0.284846 0.750416 0.716584 -0.662481
H6    H     H_    0.258386 0.746502 0.618795 0.346866
O11   O     O_3   0.460144 0.887875 0.244001 -0.591266
H7    H     H_    0.390731 0.819562 0.249233 0.364865
F1    F     F_    0.359752 0.320799 0.150066 -0.554403
O12   O     O_3   0.698925 0.688736 0.256357 -0.660415
H8    H     H_    0.752584 0.765491 0.279281 0.372914
F2    F     F_    0.706081 0.919098 0.126878 -0.601158
O13   O     O_3   0.699729 0.922698 0.840740 -0.714687
H9    H     H_    0.710460 0.995024 0.901451 0.398036
O14   O     O_3   0.701575 0.688582 0.732057 -0.627219
H10   H     H_    0.737792 0.769533 0.691837 0.402722
O15   O     O_3   0.350729 0.318910 0.874014 -0.661075
H11   H     H_    0.338660 0.340791 0.776552 0.374287
O16   O     O_3   0.083590 0.515431 0.763307 -0.635901
H12   H     H_    0.007615 0.521344 0.821421 0.352282
F3    F     F_    0.943261 0.715526 0.606440 -0.615920
F4    F     F_    0.111234 0.694084 0.347232 -0.624085
F5    F     F_    0.527652 0.128982 0.259655 -0.517573
F6    F     F_    0.442712 0.078216 0.006652 -0.503686

loop_
_geom_bond_atom_site_label_1
_geom_bond_atom_site_label_2
_ccdc_geom_bond_type
C24   N2    A    
C26   O16   S    
C6    C7    A    
C4    C12   S    
C29   C30   S    
C20   N2    A    
C9    C10   A    
O12   H8    S    
C18   O13   S    
C4    C26   S    
O9    H5    S    
C1    C11   S    
Cu1   N2    S    
C3    H3    S    
C2    C30   S    
C10   C11   A    
C2    H2    S    
C19   C20   A    
C15   C23   S    
C17   C18   A    
O13   H9    S    
C23   O5    A    
O14   H10   S    
C30   F4    S    
C13   C14   A    
C27   H1    S    
C25   C28   S    
C11   C13   A    
C17   F2    S    
C26   C27   S    
C16   C21   A    
Cu1   O5    S    
C26   C29   S    
C24   O15   S    
C29   F3    S    
C8    O10   S    
C6    F6    S    
C28   C29   S    
Cu1   O1    S    
C2    C3    S    
C22   F1    S    
C16   O12   S    
C3    C27   S    
Cu2   O2    S    
C14   O11   S    
Cu2   O6    S    
C5    C6    A    
C16   C17   A    
C22   C24   A    
C7    C8    A    
O15   H11   S    
C1    O1    A    
C12   O4    A    
O11   H7    S    
C5    H4    S    
C25   O7    A    
C5    C10   A    
C21   N1    A    
C20   C21   A    
C12   O3    A    
C13   F5    S    
C18   C19   A    
Cu1   O7    S    
C27   C28   S    
O10   H6    S    
Cu2   O4    S    
C14   C15   A    
C8    C9    A    
C2    C28   S    
Cu1   O3    S    
C1    O2    A    
C19   O14   S    
Cu2   N1    S    
C22   N1    A    
Cu2   O8    S    
C25   O8    A    
C4    C30   S    
C3    C4    S    
Cu1   Cu2   S    
C9    C15   A    
O16   H12   S    
C23   O6    A    
C7    O9    S    
