data_mof_unit_800.cif
_audit_creation_date              2012-12-11T16:48:33-0500
_audit_creation_method            fapswitch 2.2
_symmetry_space_group_name_H-M    P1
_symmetry_Int_Tables_number       1
_space_group_crystal_system       triclinic
_cell_length_a                    17.383644
_cell_length_b                    24.334395
_cell_length_c                    15.154196
_cell_angle_alpha                 90.13783
_cell_angle_beta                  126.072515
_cell_angle_gamma                 89.790476
_cell_volume                      5181.42377367

loop_
_atom_site_label
_atom_site_type_symbol
_atom_type_description
_atom_site_fract_x
_atom_site_fract_y
_atom_site_fract_z
_atom_type_partial_charge
C1    C     C_R   0.311546 0.374547 0.906797 -0.143606
C2    C     C_R   0.443086 0.496558 0.639613 -0.064743
C3    C     C_R   0.056989 0.848395 0.907037 -0.110671
C4    C     C_R   0.314222 0.358143 0.995596 0.063043
C5    C     C_R   0.617653 0.316288 0.997295 0.055706
C6    C     C_R   0.814352 0.858108 0.995830 0.063483
C7    C     C_R   0.117234 0.816206 0.997356 0.055222
C8    C     C_3   0.624774 0.616422 0.342516 0.265672
C9    C     C_3   0.660065 0.668266 0.411794 -0.912418
C10   C     C_3   0.356102 0.616568 0.635807 0.204696
C11   C     C_3   0.332608 0.671524 0.577407 -0.926614
C12   C     C_3   0.128049 0.115889 0.340837 0.268498
C13   C     C_R   0.009119 0.998554 0.330262 -0.024133
C14   C     C_3   0.167139 0.166980 0.412174 -0.918001
C15   C     C_3   0.854520 0.118284 0.637606 0.198178
C16   C     C_3   0.833445 0.174163 0.582830 -0.932314
C17   C     C_R   0.935866 0.998070 0.635653 -0.081753
C18   C     C_R   0.188483 0.498905 0.643300 0.153280
C19   C     C_R   0.823360 0.498789 0.268929 0.148001
C20   C     C_R   0.688200 0.998797 0.643619 0.154116
C21   C     C_R   0.323362 0.998780 0.268909 0.149156
C22   C     C_2   0.978482 0.454808 0.363123 -0.110828
C23   C     C_2   0.076049 0.458401 0.462709 -0.121003
C24   C     C_2   0.478487 0.954786 0.363169 -0.111421
C25   C     C_R   0.647049 0.347255 0.088790 -0.147729
C26   C     C_2   0.575971 0.958383 0.462896 -0.122430
C27   C     C_2   0.924734 0.499937 0.317914 -0.194795
C28   C     C_2   0.101932 0.500189 0.532944 -0.206057
C29   C     C_2   0.424759 0.999926 0.318001 -0.194514
C30   C     C_2   0.601535 0.000023 0.533358 -0.204957
C31   C     C_R   0.265851 0.691767 0.094938 0.142062
C32   C     C_R   0.618811 0.759438 0.893012 0.121406
C33   C     C_R   0.764734 0.190952 0.094735 0.140620
C34   C     C_R   0.119426 0.259148 0.893101 0.120415
C35   C     C_R   0.239280 0.668581 0.996310 0.044534
C36   C     C_R   0.811649 0.874434 0.906923 -0.142824
C37   C     C_R   0.642393 0.738621 0.992188 0.039282
C38   C     C_R   0.738763 0.168164 0.996049 0.044090
C39   C     C_R   0.142705 0.238610 0.992309 0.042302
C40   C     C_R   0.156002 0.686774 0.898175 -0.190306
C41   C     C_R   0.697242 0.771340 0.086222 -0.189790
C42   C     C_R   0.656036 0.186757 0.897808 -0.189446
C43   C     C_R   0.196929 0.271655 0.086039 -0.194267
C44   C     C_R   0.607696 0.232236 0.898163 -0.192502
C45   C     C_R   0.244769 0.317302 0.084454 -0.205117
C46   C     C_R   0.107206 0.732017 0.898547 -0.192581
C47   C     C_R   0.146836 0.847231 0.088820 -0.147356
C48   C     C_R   0.745487 0.816763 0.084876 -0.206256
C49   C     C_R   0.641549 0.259174 0.996891 0.043214
C50   C     C_R   0.238498 0.329013 0.989480 0.042102
C51   C     C_R   0.141264 0.759133 0.997175 0.042596
C52   C     C_R   0.738677 0.828902 0.989765 0.040380
C53   C     C_R   0.400498 0.625490 0.087998 -0.177427
C54   C     C_R   0.559587 0.649844 0.909079 -0.125924
C55   C     C_R   0.900358 0.125281 0.088058 -0.175569
C56   C     C_R   0.059634 0.149903 0.909262 -0.122760
C57   C     C_R   0.716423 0.236202 0.095169 0.141649
C58   C     C_R   0.311431 0.638817 0.995697 0.060872
C59   C     C_R   0.166713 0.303859 0.891628 0.164775
C60   C     C_R   0.217086 0.736692 0.095367 0.142669
C61   C     C_R   0.666324 0.804111 0.891738 0.165353
C62   C     C_3   0.710112 0.211673 0.180994 -0.499279
C63   C     C_3   0.169533 0.279683 0.802446 -0.534675
C64   C     C_3   0.212730 0.712412 0.182781 -0.498108
C65   C     C_3   0.668332 0.780162 0.801842 -0.534738
C66   C     C_3   0.266608 0.663722 0.182996 -0.500543
C67   C     C_3   0.616416 0.731322 0.803289 -0.461335
C68   C     C_3   0.763109 0.162586 0.180912 -0.493677
C69   C     C_R   0.622183 0.681514 0.998598 0.060336
C70   C     C_3   0.117856 0.230773 0.804113 -0.462718
C71   C     C_R   0.454016 0.443249 0.512035 0.138850
C72   C     C_R   0.477391 0.445062 0.440600 0.128189
C73   C     C_R   0.941648 0.946109 0.505401 0.161421
C74   C     C_R   0.972794 0.947384 0.440085 0.144950
C75   C     C_R   0.423470 0.491176 0.534090 0.059059
C76   C     C_R   0.471256 0.494525 0.391150 0.079085
C77   C     C_R   0.913750 0.994661 0.528178 0.050446
C78   C     C_R   0.976305 0.997360 0.397639 0.066622
C79   C     C_R   0.393392 0.536155 0.463231 -0.180510
C80   C     C_R   0.811249 0.138600 0.995692 0.061252
C81   C     C_R   0.418313 0.538001 0.391494 -0.176895
C82   C     C_R   0.902078 0.042673 0.470951 -0.179035
C83   C     C_R   0.935074 0.044333 0.407556 -0.171304
C84   C     C_3   0.560369 0.407153 0.506908 -0.503672
C85   C     C_3   0.535756 0.405208 0.587104 -0.481684
C86   C     C_3   0.913346 0.898745 0.375452 -0.520087
C87   C     C_3   0.879087 0.897682 0.446194 -0.499962
C88   C     C_R   0.519556 0.452632 0.283455 -0.248683
C89   C     C_R   0.454231 0.452216 0.701307 -0.244008
C90   C     C_R   0.019890 0.953113 0.284475 -0.243502
C91   C     C_R   0.122363 0.181526 0.998808 0.057761
C92   C     C_R   0.951605 0.953001 0.699000 -0.226229
C93   C     C_R   0.238109 0.544729 0.703217 -0.207102
C94   C     C_R   0.767749 0.544971 0.245524 -0.180848
C95   C     C_R   0.737810 0.044649 0.703425 -0.207488
C96   C     C_R   0.267754 0.044962 0.245504 -0.182539
C97   C     C_R   0.521114 0.544062 0.287299 0.473739
C98   C     C_R   0.456554 0.543483 0.699207 0.538607
C99   C     C_R   0.022446 0.044520 0.287763 0.471724
C100  C     C_R   0.952845 0.044261 0.698235 0.543181
C101  C     C_R   0.241856 0.453417 0.701500 -0.127241
C102  C     C_R   0.509140 0.497634 0.329774 -0.021861
C103  C     C_R   0.766915 0.453006 0.245266 -0.110324
C104  C     C_R   0.741762 0.953356 0.701687 -0.127262
C105  C     C_R   0.266910 0.953001 0.245242 -0.109322
C106  C     C_R   0.309754 0.625464 0.905640 -0.111037
C107  C     C_R   0.650416 0.651259 0.090592 -0.141423
C108  C     C_R   0.809723 0.125391 0.905670 -0.111446
C109  C     C_R   0.150548 0.151241 0.090709 -0.141917
C110  C     C_R   0.403719 0.370493 0.088996 -0.113752
C111  C     C_R   0.557240 0.348476 0.907011 -0.112714
C112  C     C_R   0.903740 0.870771 0.089264 -0.116934
H1    H     H_    0.252520 0.371944 0.822047 0.110624
H2    H     H_    0.712168 0.758633 0.163248 0.126912
H3    H     H_    0.633003 0.169465 0.820047 0.122287
H4    H     H_    0.211409 0.259149 0.162949 0.124883
H5    H     H_    0.548827 0.248337 0.820457 0.120349
H6    H     H_    0.294807 0.338696 0.160273 0.127908
H7    H     H_    0.047748 0.747822 0.820904 0.120753
H8    H     H_    0.796402 0.837432 0.160981 0.128712
H9    H     H_    0.751826 0.235341 0.258588 0.186633
H10   H     H_    0.125867 0.303577 0.725273 0.192561
H11   H     H_    0.254477 0.736608 0.259706 0.187178
H12   H     H_    0.684550 0.332239 0.171562 0.097667
H13   H     H_    0.624602 0.804317 0.725018 0.192730
H14   H     H_    0.635749 0.202278 0.150782 0.201222
H15   H     H_    0.242656 0.269247 0.829040 0.204753
H16   H     H_    0.138928 0.702384 0.153902 0.201191
H17   H     H_    0.741207 0.769539 0.827807 0.204535
H18   H     H_    0.339784 0.660422 0.259650 0.199469
H19   H     H_    0.543301 0.727597 0.727015 0.202186
H20   H     H_    0.835638 0.158323 0.258186 0.193470
H21   H     H_    0.044969 0.226713 0.727560 0.203637
H22   H     H_    0.224988 0.624904 0.155287 0.200296
H23   H     H_    0.752659 0.871747 0.822184 0.110402
H24   H     H_    0.659603 0.692959 0.830225 0.211147
H25   H     H_    0.720256 0.124218 0.151345 0.201346
H26   H     H_    0.161425 0.192544 0.831851 0.211151
H27   H     H_    0.360311 0.571781 0.470224 0.172496
H28   H     H_    0.402373 0.574464 0.342959 0.155810
H29   H     H_    0.873476 0.079846 0.479759 0.179337
H30   H     H_    0.928015 0.082332 0.366825 0.167569
H31   H     H_    0.549229 0.367135 0.465447 0.183431
H32   H     H_    0.591356 0.424233 0.667031 0.209847
H33   H     H_    0.856327 0.909348 0.289002 0.200378
H34   H     H_    0.184314 0.832269 0.171623 0.097712
H35   H     H_    0.903185 0.860672 0.499170 0.184661
H36   H     H_    0.629640 0.427418 0.539910 0.205505
H37   H     H_    0.511359 0.363975 0.592367 0.180878
H38   H     H_    0.957166 0.862261 0.387255 0.185317
H39   H     H_    0.802041 0.907437 0.401181 0.199631
H40   H     H_    0.425617 0.633064 0.170635 0.160540
H41   H     H_    0.512009 0.663888 0.826148 0.146312
H42   H     H_    0.925388 0.132547 0.170829 0.158036
H43   H     H_    0.011997 0.164112 0.826517 0.149649
H44   H     H_    0.525634 0.410292 0.307046 0.130337
H45   H     H_    0.957455 0.540183 0.334842 0.130886
H46   H     H_    0.436672 0.409843 0.675402 0.133847
H47   H     H_    0.028635 0.911035 0.310803 0.130854
H48   H     H_    0.935981 0.910546 0.673060 0.129383
H49   H     H_    0.220726 0.586572 0.674107 0.083912
H50   H     H_    0.789776 0.587268 0.254314 0.105559
H51   H     H_    0.719919 0.086464 0.674326 0.083167
H52   H     H_    0.289803 0.087257 0.254348 0.105684
H53   H     H_    0.230206 0.411572 0.672225 0.081021
H54   H     H_    0.787207 0.410382 0.252985 0.089999
H55   H     H_    0.730126 0.911509 0.672420 0.081177
H56   H     H_    0.056486 0.535711 0.512611 0.134011
H57   H     H_    0.287196 0.910375 0.252964 0.089842
H58   H     H_    0.252731 0.632390 0.821013 0.089281
H59   H     H_    0.688209 0.666389 0.173310 0.082785
H60   H     H_    0.752741 0.132340 0.821059 0.089276
H61   H     H_    0.188468 0.166354 0.173453 0.082735
H62   H     H_    0.430744 0.359765 0.171234 0.087638
H63   H     H_    0.512172 0.335762 0.822558 0.082496
H64   H     H_    0.930740 0.860845 0.171889 0.089475
H65   H     H_    0.011896 0.835666 0.822585 0.082795
H66   H     H_    0.947014 0.414173 0.341000 0.118554
H67   H     H_    0.457525 0.040172 0.335148 0.130965
H68   H     H_    0.121358 0.422524 0.485752 0.119891
H69   H     H_    0.447036 0.914149 0.340882 0.118850
H70   H     H_    0.621521 0.922633 0.485751 0.119555
H71   H     H_    0.602532 0.627722 0.259640 0.097198
H72   H     H_    0.684903 0.586492 0.380004 0.099818
H73   H     H_    0.684224 0.658552 0.496112 0.266592
H74   H     H_    0.720606 0.685762 0.415041 0.202722
H75   H     H_    0.601927 0.699235 0.375771 0.255579
H76   H     H_    0.359652 0.622915 0.710737 0.104172
H77   H     H_    0.297351 0.587618 0.579349 0.097186
H78   H     H_    0.555830 0.035399 0.513176 0.134020
H79   H     H_    0.260295 0.684929 0.549096 0.213572
H80   H     H_    0.384332 0.703153 0.633736 0.244975
H81   H     H_    0.334412 0.667829 0.505590 0.262560
H82   H     H_    0.103783 0.127885 0.257543 0.099208
H83   H     H_    0.186772 0.085160 0.375294 0.101756
H84   H     H_    0.193261 0.156583 0.496927 0.266505
H85   H     H_    0.227059 0.183792 0.413373 0.202798
H86   H     H_    0.110501 0.198752 0.379297 0.256418
H87   H     H_    0.857149 0.123596 0.712142 0.107205
H88   H     H_    0.795246 0.090192 0.578688 0.100680
H89   H     H_    0.132707 0.669271 0.820468 0.122438
H90   H     H_    0.836806 0.171763 0.512001 0.260708
H91   H     H_    0.761030 0.187845 0.553627 0.215760
H92   H     H_    0.885404 0.204983 0.641761 0.245230
N1    N     N_R   0.395410 0.396350 0.944340 -0.039234
N2    N     N_R   0.474920 0.471030 0.794350 -0.060747
N3    N     N_R   0.025080 0.971030 0.205650 -0.057237
N4    N     N_R   0.974920 0.971030 0.794350 -0.061848
N5    N     N_R   0.320260 0.527820 0.794570 -0.046010
N6    N     N_R   0.679740 0.527820 0.205430 -0.057364
N7    N     N_R   0.820260 0.027820 0.794570 -0.046769
N8    N     N_R   0.179740 0.027820 0.205430 -0.058281
N9    N     N_R   0.524590 0.527840 0.205200 -0.108120
N10   N     N_R   0.475410 0.527840 0.794800 -0.100290
N11   N     N_R   0.024590 0.027840 0.205200 -0.107069
N12   N     N_R   0.604590 0.396350 0.055660 -0.038104
N13   N     N_R   0.975410 0.027840 0.794800 -0.098018
N14   N     N_R   0.320750 0.471000 0.795020 -0.038865
N15   N     N_R   0.679250 0.471000 0.204980 -0.044051
N16   N     N_R   0.820750 0.971000 0.795020 -0.039471
N17   N     N_R   0.179250 0.971000 0.204980 -0.044307
N18   N     N_R   0.393620 0.602490 0.942710 -0.042733
N19   N     N_R   0.606380 0.602490 0.057290 -0.041281
N20   N     N_R   0.893620 0.102490 0.942710 -0.043282
N21   N     N_R   0.106380 0.102490 0.057290 -0.041752
N22   N     N_R   0.451720 0.396350 0.057510 -0.035385
N23   N     N_R   0.895410 0.896350 0.944340 -0.039445
N24   N     N_R   0.548280 0.396350 0.942490 -0.034821
N25   N     N_R   0.951720 0.896350 0.057510 -0.035107
N26   N     N_R   0.048280 0.896350 0.942490 -0.035356
N27   N     N_R   0.104590 0.896350 0.055660 -0.038235
N28   N     N_R   0.449930 0.602500 0.055880 -0.048958
N29   N     N_R   0.550070 0.602500 0.944120 -0.043414
N30   N     N_R   0.949930 0.102500 0.055880 -0.049461
N31   N     N_R   0.050070 0.102500 0.944120 -0.042770
N32   N     N_R   0.525080 0.471030 0.205650 -0.056911
Ni1   Ni    Ni4+2 0.435420 0.434270 0.870230 0.201673
Ni2   Ni    Ni4+2 0.564580 0.434270 0.129770 0.206158
Ni3   Ni    Ni4+2 0.935420 0.934270 0.870230 0.202201
Ni4   Ni    Ni4+2 0.064580 0.934270 0.129770 0.206206
Ni5   Ni    Ni4+2 0.563430 0.564580 0.128740 0.195539
Ni6   Ni    Ni4+2 0.436570 0.564580 0.871260 0.207888
Ni7   Ni    Ni4+2 0.063430 0.064580 0.128740 0.196137
Ni8   Ni    Ni4+2 0.936570 0.064580 0.871260 0.209583
O1    O     O_3   0.547709 0.594800 0.338916 -0.657352
O2    O     O_3   0.444325 0.597148 0.663571 -0.647447
O3    O     O_3   0.051804 0.095162 0.339815 -0.663883
O4    O     O_3   0.942783 0.098470 0.666160 -0.652827

loop_
_geom_bond_atom_site_label_1
_geom_bond_atom_site_label_2
_ccdc_geom_bond_type
C45   H6    S    
C44   C49   A    
C81   H28   S    
C79   H27   S    
C42   C44   A    
N22   Ni2   S    
C37   C69   S    
C13   C90   A    
C55   H42   S    
C73   C74   A    
C87   H39   S    
C41   H2    S    
C22   H66   S    
C54   H41   S    
C69   C107  A    
C89   H46   S    
C48   H8    S    
C20   C30   S    
C40   C46   A    
N7    N16   A    
C14   H86   S    
N12   N24   A    
C87   H35   S    
C35   C58   S    
C96   N8    A    
N5    N14   A    
C88   H44   S    
N15   Ni2   S    
C24   C26   S    
C32   C61   A    
C98   O2    S    
N8    Ni7   S    
C9    H73   S    
C52   C61   A    
C86   H38   S    
C97   O1    S    
C108  N20   A    
C109  H61   S    
C47   N27   A    
C15   C16   S    
C49   C57   A    
C3    N26   A    
C11   H80   S    
C40   H89   S    
C90   H47   S    
C68   H20   S    
N20   N30   A    
C24   C29   D    
C104  N16   A    
C4    C110  A    
N11   Ni7   S    
N19   N29   A    
C66   H22   S    
C19   C103  A    
C101  N14   A    
C56   C91   A    
C73   C87   S    
N32   Ni2   S    
C8    C9    S    
C65   C67   S    
C70   H21   S    
C10   H76   S    
N16   Ni3   S    
C10   O2    S    
C16   H91   S    
C1    N1    A    
C34   C70   S    
C11   H79   S    
C97   C102  A    
C72   C76   A    
N30   Ni7   S    
C63   H15   S    
C8    H72   S    
C110  H62   S    
C98   N10   A    
C47   H34   S    
N18   N28   A    
C2    C75   S    
C97   N9    A    
C66   H18   S    
C106  H58   S    
C5    C49   S    
N26   Ni3   S    
C17   C92   A    
C1    H1    S    
C82   H29   S    
C16   H90   S    
C78   C83   A    
C85   H32   S    
C39   C91   S    
C99   N11   A    
C107  N19   A    
N8    N17   A    
C84   H36   S    
C76   C102  S    
C88   N32   A    
C14   H85   S    
C68   H25   S    
C10   H77   S    
N17   Ni4   S    
C34   C39   A    
N21   N31   A    
C57   C62   S    
C18   C28   S    
C84   C85   S    
C9    H74   S    
C110  N22   A    
C62   H14   S    
C109  N21   A    
C86   C87   S    
N20   Ni8   S    
C107  H59   S    
C88   C102  A    
C5    C111  A    
C84   H31   S    
C64   H16   S    
C23   C28   D    
C21   C29   S    
C46   C51   A    
N6    N15   A    
N28   Ni5   S    
C4    C50   S    
N27   Ni4   S    
C58   C106  A    
C18   C101  A    
C65   H13   S    
C31   C60   A    
C13   C99   A    
C2    C89   A    
N1    Ni1   S    
C92   N4    A    
C95   H51   S    
C43   H4    S    
C53   H40   S    
C15   H87   S    
C17   C77   S    
C42   H3    S    
C65   H17   S    
C89   N2    A    
C63   C70   S    
C93   H49   S    
N23   Ni3   S    
N31   Ni8   S    
N3    N11   A    
N1    N22   A    
C56   N31   A    
C32   C37   A    
C74   C86   S    
N25   Ni4   S    
C101  H53   S    
C43   C45   A    
C23   H68   S    
C72   C84   S    
C19   C94   A    
C105  H57   S    
N3    Ni4   S    
C56   H43   S    
C32   C67   S    
C5    C25   A    
C15   H88   S    
C26   H70   S    
C8    H71   S    
C100  O4    S    
N23   N25   A    
C20   C95   A    
C12   C14   S    
C100  N13   A    
C94   N6    A    
C36   N23   A    
C22   C27   D    
C108  H60   S    
C93   N5    A    
C34   C59   A    
C12   H83   S    
C111  H63   S    
C59   C63   S    
C51   C60   A    
N21   Ni7   S    
C50   C59   A    
C55   N30   A    
C99   O3    S    
N9    N32   A    
C36   H23   S    
N2    N10   A    
C63   H10   S    
C19   C27   S    
C79   C81   A    
N4    N13   A    
C14   H84   S    
C13   C78   S    
C33   C57   A    
C112  H64   S    
C24   H69   S    
C31   C66   S    
C12   H82   S    
N7    Ni8   S    
C25   N12   A    
C111  N24   A    
C11   H81   S    
N6    Ni5   S    
C9    H75   S    
N4    Ni3   S    
C8    O1    S    
C83   H30   S    
C39   C43   A    
C53   C58   A    
C70   H26   S    
C20   C104  A    
C21   C96   A    
C62   C68   S    
C27   H45   S    
C64   H11   S    
C7    C47   A    
C80   C108  A    
C28   H56   S    
C3    C7    A    
C76   C81   A    
N14   Ni1   S    
N10   Ni6   S    
C60   C64   S    
C1    C4    A    
N12   Ni2   S    
C12   O3    S    
N9    Ni5   S    
C67   H24   S    
C3    H65   S    
N13   Ni8   S    
C95   N7    A    
N24   Ni1   S    
N18   Ni6   S    
C16   H92   S    
C104  H55   S    
C71   C75   A    
C55   C80   A    
C92   H48   S    
C91   C109  A    
C106  N18   A    
C54   C69   A    
C38   C80   S    
C77   C82   A    
N19   Ni5   S    
C71   C85   S    
C74   C78   A    
C41   C48   A    
C6    C36   A    
C46   H7    S    
C35   C40   A    
N2    Ni1   S    
C31   C35   A    
C30   H78   S    
C61   C65   S    
C37   C41   A    
N26   N27   A    
C67   H19   S    
C17   C100  A    
C85   H37   S    
C25   H12   S    
C10   C11   S    
C112  N25   A    
C53   N28   A    
C7    C51   S    
C90   N3    A    
C105  N17   A    
C38   C42   A    
C96   H52   S    
N29   Ni6   S    
C71   C72   A    
N5    Ni6   S    
C15   O4    S    
C2    C98   A    
C103  H54   S    
C82   C83   A    
C29   H67   S    
C103  N15   A    
C86   H33   S    
C18   C93   A    
C73   C77   A    
C22   C23   S    
C33   C38   A    
C6    C112  A    
C45   C50   A    
C54   N29   A    
C6    C52   S    
C48   C52   A    
C75   C79   A    
C62   H9    S    
C21   C105  A    
C94   H50   S    
C33   C68   S    
C64   C66   S    
C44   H5    S    
C26   C30   D    
