data_mof_unit_119.cif
_audit_creation_date              2012-12-10T17:35:00-0500
_audit_creation_method            fapswitch 2.2
_symmetry_space_group_name_H-M    P1
_symmetry_Int_Tables_number       1
_space_group_crystal_system       triclinic
_cell_length_a                    12.023195
_cell_length_b                    12.855111
_cell_length_c                    15.733195
_cell_angle_alpha                 89.950417
_cell_angle_beta                  87.528191
_cell_angle_gamma                 94.746509
_cell_volume                      2421.09658838

loop_
_atom_site_label
_atom_site_type_symbol
_atom_type_description
_atom_site_fract_x
_atom_site_fract_y
_atom_site_fract_z
_atom_type_partial_charge
C1    C     C_R   0.523899 0.700838 0.498694 0.898277
C2    C     C_3   0.374653 0.501240 0.052850 -0.538248
C3    C     C_3   0.495734 0.499227 0.083121 0.181746
C4    C     C_3   0.541926 0.396100 0.049043 0.359313
C5    C     C_3   0.546052 0.395819 0.949674 -0.536905
C6    C     C_1   0.494296 0.499300 0.174745 -0.048682
C7    C     C_1   0.500716 0.496797 0.825603 -0.064596
C8    C     C_1   0.502136 0.497912 0.750272 -0.157696
C9    C     C_R   0.459969 0.187666 0.502111 -0.239962
C10   C     C_R   0.541660 0.813551 0.497876 -0.169080
C11   C     C_R   0.643759 0.977018 0.533613 0.418191
C12   C     C_R   0.500989 0.499601 0.661517 0.895726
C13   C     C_R   0.640940 0.868711 0.524883 -0.117219
C14   C     C_R   0.450487 0.866666 0.475767 -0.233077
C15   C     C_R   0.451515 0.973042 0.486148 -0.062719
C16   C     C_R   0.547953 0.028121 0.516878 0.005528
C17   C     C_R   0.548496 0.134321 0.528343 -0.309712
C18   C     C_R   0.363618 0.134072 0.470886 0.352897
C19   C     C_R   0.357012 0.025138 0.467245 0.379829
C20   C     C_R   0.954098 0.442618 0.398971 -0.298453
C21   C     C_R   0.838215 0.444794 0.410639 -0.059238
C22   C     C_R   0.858536 0.513240 0.549805 0.595235
C23   C     C_R   0.476499 0.299560 0.501428 0.912403
C24   C     C_R   0.976772 0.521523 0.537817 -0.145323
C25   C     C_R   0.024220 0.481732 0.462412 -0.025852
C26   C     C_R   0.141150 0.481033 0.452916 -0.021529
C27   C     C_R   0.164332 0.563515 0.586376 -0.085183
C28   C     C_R   0.048914 0.567609 0.598729 0.380098
C29   C     C_R   0.498661 0.499823 0.338535 0.885131
C30   C     C_3   0.376154 0.504380 0.954199 -0.118944
C31   C     C_3   0.572379 0.592374 0.947732 -0.421932
C32   C     C_3   0.568571 0.596625 0.046502 -0.133924
C33   C     C_1   0.495516 0.499515 0.249933 -0.172446
C34   C     C_3   0.498067 0.496297 0.917260 0.188463
H1    H     H_    0.334720 0.570026 0.079065 0.235501
H2    H     H_    0.322436 0.431676 0.078587 0.150907
H3    H     H_    0.620629 0.177019 0.554572 0.224382
H4    H     H_    0.376526 0.824042 0.452248 0.218273
H5    H     H_    0.179270 0.448775 0.396370 0.139944
H6    H     H_    0.349052 0.581480 0.934730 0.206399
H7    H     H_    0.219537 0.595502 0.634009 0.168550
H8    H     H_    0.988554 0.412449 0.340118 0.154300
H9    H     H_    0.784929 0.417385 0.360315 0.165701
H10   H     H_    0.660226 0.587605 0.923838 0.148792
H11   H     H_    0.544922 0.664899 0.919436 0.213771
H12   H     H_    0.654883 0.594265 0.068300 0.107535
H13   H     H_    0.495696 0.325595 0.927027 0.152954
H14   H     H_    0.630343 0.389836 0.920032 0.170385
H15   H     H_    0.477216 0.332206 0.067874 0.105612
N1    N     N_R   0.207800 0.519340 0.515510 -0.123729
N2    N     N_R   0.792190 0.480660 0.484490 -0.138912
O1    O     O_R   0.421690 0.658830 0.504140 -0.635284
O2    O     O_R   0.609320 0.646410 0.494190 -0.551190
O3    O     O_R   0.406150 0.506210 0.627840 -0.614099
O4    O     O_R   0.593770 0.493790 0.617880 -0.588624
O5    O     O_R   0.390680 0.353590 0.505810 -0.568314
O6    O     O_R   0.578310 0.341170 0.495860 -0.646739
O7    O     O_R   0.406230 0.506210 0.382120 -0.627946
O8    O     O_R   0.593850 0.493790 0.372160 -0.616297
Zn1   Zn    Zn3+2 0.374720 0.508290 0.506640 0.966425
Zn2   Zn    Zn3+2 0.625280 0.491710 0.493360 0.993422
C35   C     C_2   0.293789 0.420534 0.920770 0.398894
H16   H     H_    0.300565 0.339085 0.936168 0.061493
O9    O     O_2   0.218428 0.443773 0.876661 -0.557564
O10   O     O_3   0.638405 0.369500 0.091774 -0.606292
C36   C     C_3   0.742857 0.396403 0.049389 0.130675
H17   H     H_    0.745837 0.469741 0.012209 0.130347
H18   H     H_    0.763856 0.331803 0.006229 0.153596
C37   C     C_3   0.831993 0.410132 0.115120 -0.830183
H19   H     H_    0.834450 0.336909 0.152282 0.256476
H20   H     H_    0.915079 0.429537 0.082806 0.216146
H21   H     H_    0.813258 0.474424 0.159257 0.253100
O11   O     O_3   0.274586 0.186751 0.445953 -0.591835
C38   C     C_3   0.282619 0.201568 0.356752 0.164329
H22   H     H_    0.320330 0.136746 0.321591 0.142554
H23   H     H_    0.333947 0.275725 0.341545 0.132256
C39   C     C_3   0.166064 0.208805 0.324483 -0.832832
H24   H     H_    0.171468 0.227520 0.255438 0.202307
H25   H     H_    0.115668 0.133112 0.334744 0.262273
H26   H     H_    0.123806 0.270617 0.359055 0.244404
O12   O     O_3   0.738847 0.032511 0.561954 -0.635143
C40   C     C_3   0.808173 0.065987 0.490618 0.063946
H27   H     H_    0.762565 0.111215 0.444871 0.149175
H28   H     H_    0.841000 0.997963 0.457101 0.165168
C41   C     C_3   0.906654 0.136619 0.520308 -0.803079
H29   H     H_    0.954326 0.094141 0.566132 0.255646
H30   H     H_    0.962986 0.161624 0.464956 0.223017
H31   H     H_    0.876353 0.207017 0.551645 0.245322
O13   O     O_3   0.262606 0.971022 0.436891 -0.603260
C42   C     C_3   0.180659 0.958226 0.503934 0.099086
H32   H     H_    0.159334 0.034886 0.530183 0.178500
H33   H     H_    0.209900 0.909837 0.555998 0.120192
C43   C     C_3   0.074746 0.903104 0.470400 -0.798296
H34   H     H_    0.090403 0.822835 0.449676 0.257033
H35   H     H_    0.007614 0.898609 0.521245 0.205302
H36   H     H_    0.046639 0.947252 0.415680 0.263217
C44   C     C_2   0.741677 0.817520 0.547127 0.452094
H37   H     H_    0.775140 0.829519 0.609612 0.072212
O14   O     O_2   0.792646 0.768772 0.493879 -0.577328
O15   O     O_3   0.008209 0.613631 0.671616 -0.582942
C45   C     C_3   0.008275 0.721826 0.656709 0.130519
H38   H     H_    0.960571 0.737576 0.599664 0.172263
H39   H     H_    0.095308 0.758330 0.647857 0.118424
C46   C     C_3   0.952492 0.772166 0.732940 -0.811290
H40   H     H_    0.998801 0.759081 0.791053 0.260311
H41   H     H_    0.952015 0.857443 0.721780 0.202518
H42   H     H_    0.864962 0.737898 0.742638 0.264122
O16   O     O_3   0.809782 0.536290 0.627768 -0.571694
C47   C     C_3   0.814542 0.449347 0.682769 0.177014
H43   H     H_    0.895323 0.412465 0.676606 0.122621
H44   H     H_    0.746424 0.388589 0.669165 0.136948
C48   C     C_3   0.800354 0.484247 0.774710 -0.791228
H45   H     H_    0.787976 0.414960 0.817236 0.182798
H46   H     H_    0.875789 0.532709 0.793736 0.287747
H47   H     H_    0.727589 0.531289 0.782350 0.249845
C49   C     C_2   0.530443 0.698941 0.080329 0.390391
H48   H     H_    0.567694 0.733120 0.136542 0.068411
O17   O     O_2   0.456186 0.742109 0.047555 -0.573557

loop_
_geom_bond_atom_site_label_1
_geom_bond_atom_site_label_2
_ccdc_geom_bond_type
C2    H1    S    
C36   H18   S    
C43   H34   S    
O11   C38   S    
N2    Zn2   S    
C3    C6    S    
C46   H41   S    
C44   H37   S    
C7    C8    T    
O3    Zn1   S    
C39   H24   S    
C11   O12   S    
C15   C19   A    
C5    H13   S    
C45   H38   S    
C38   H23   S    
C26   N1    A    
C4    O10   S    
C26   H5    S    
C39   H26   S    
C36   C37   S    
C20   C25   A    
O7    Zn1   S    
C15   C16   A    
C29   C33   S    
C49   H48   S    
C18   C19   A    
C37   H20   S    
C1    O2    A    
C46   H40   S    
C35   O9    D    
O1    Zn1   S    
C21   H9    S    
O2    Zn2   S    
C29   O8    A    
C16   C17   A    
C38   C39   S    
O16   C47   S    
C27   N1    A    
C31   H10   S    
C28   O15   S    
C41   H30   S    
C36   H17   S    
C43   H35   S    
C3    C32   S    
C48   H46   S    
C48   H45   S    
C44   O14   D    
O12   C40   S    
C39   H25   S    
C5    H14   S    
O8    Zn2   S    
C38   H22   S    
C30   C34   S    
C23   O5    A    
C24   C25   A    
C10   C14   A    
C47   C48   S    
C9    C23   S    
C25   C26   A    
C41   H29   S    
O5    Zn1   S    
C37   H21   S    
C35   H16   S    
C19   O13   S    
C14   H4    S    
C11   C16   A    
C27   H7    S    
C42   H33   S    
C31   C32   S    
C8    C12   S    
C5    C34   S    
C20   C21   A    
C31   C34   S    
C30   H6    S    
C17   H3    S    
C32   C49   S    
C9    C17   A    
O10   C36   S    
C43   H36   S    
C40   H28   S    
C30   C35   S    
C7    C34   S    
C22   C24   A    
C3    C4    S    
C21   N2    A    
C42   C43   S    
C41   H31   S    
C2    H2    S    
C23   O6    A    
C32   H12   S    
C1    C10   S    
C24   C28   A    
C4    C5    S    
C10   C13   A    
C20   H8    S    
O6    Zn2   S    
C45   C46   S    
C40   C41   S    
C6    C33   T    
C4    H15   S    
C2    C30   S    
N1    Zn1   S    
C18   O11   S    
C47   H44   S    
C2    C3    S    
C47   H43   S    
C11   C13   A    
C42   H32   S    
C22   O16   S    
O4    Zn2   S    
O15   C45   S    
C49   O17   D    
C46   H42   S    
C13   C44   S    
C37   H19   S    
C1    O1    A    
C12   O4    A    
C9    C18   A    
C29   O7    A    
C45   H39   S    
C40   H27   S    
C31   H11   S    
C27   C28   A    
C14   C15   A    
O13   C42   S    
C48   H47   S    
C12   O3    A    
C22   N2    A    
