data_mof_unit_1246.cif
_audit_creation_date              2012-12-11T16:08:56-0500
_audit_creation_method            fapswitch 2.2
_symmetry_space_group_name_H-M    P1
_symmetry_Int_Tables_number       1
_space_group_crystal_system       triclinic
_cell_length_a                    19.927867
_cell_length_b                    19.861914
_cell_length_c                    19.811377
_cell_angle_alpha                 110.458189
_cell_angle_beta                  106.88984
_cell_angle_gamma                 110.813782
_cell_volume                      6048.58647778

loop_
_atom_site_label
_atom_site_type_symbol
_atom_type_description
_atom_site_fract_x
_atom_site_fract_y
_atom_site_fract_z
_atom_type_partial_charge
C1    C     C_R   0.658940 0.929712 0.931180 -0.113553
C2    C     C_3   0.364766 0.406407 0.829093 -0.153808
C3    C     C_3   0.426545 0.823088 0.635020 0.226003
C4    C     C_3   0.343156 0.815818 0.618551 -0.379115
C5    C     C_3   0.289885 0.780528 0.527882 -0.972069
C6    C     C_3   0.592094 0.281272 0.249096 0.230342
C7    C     C_3   0.584647 0.345272 0.312195 -0.256953
C8    C     C_3   0.519590 0.361691 0.270790 -1.058887
C9    C     C_3   0.348185 0.654780 0.680121 0.203818
C10   C     C_3   0.357226 0.598837 0.715101 -0.291687
C11   C     C_3   0.309537 0.507257 0.648280 -1.023074
C12   C     C_3   0.486127 0.493650 0.935897 -0.151894
C13   C     C_3   0.335950 0.368603 0.879276 -0.153664
C14   C     C_1   0.430642 0.640799 0.929326 -0.060650
C15   C     C_1   0.454956 0.270740 0.951691 -0.043521
C16   C     C_3   0.377561 0.457696 0.953126 -0.155319
C17   C     C_3   0.445001 0.405306 0.862166 -0.157087
C18   C     C_3   0.406399 0.493847 0.903415 0.215673
C19   C     C_3   0.416205 0.369378 0.912051 0.213975
C20   C     C_1   0.413888 0.571217 0.911733 -0.067674
C21   C     C_R   0.332294 0.068769 0.038111 -0.149393
C22   C     C_1   0.432960 0.310857 0.929040 -0.077472
C23   C     C_3   0.676492 0.048693 0.581032 -0.342877
C24   C     C_3   0.516753 0.955332 0.467258 -0.371993
C25   C     C_R   0.530860 0.066647 0.236456 0.546769
C26   C     C_R   0.497754 0.931933 0.769607 0.560569
C27   C     C_3   0.638000 0.965571 0.499205 -0.331890
C28   C     C_3   0.554978 0.037893 0.547391 -0.370279
C29   C     C_1   0.548302 0.993305 0.314551 -0.004719
C30   C     C_1   0.575021 0.007620 0.714438 -0.015627
C31   C     C_3   0.627668 0.077289 0.533727 0.687118
C32   C     C_R   0.516282 0.995786 0.242415 -0.085864
C33   C     C_3   0.565254 0.926454 0.513691 0.680142
C34   C     C_3   0.589866 0.996086 0.453912 0.047098
C35   C     C_3   0.602760 0.007589 0.593392 0.050846
C36   C     C_1   0.571741 0.993181 0.376936 0.021916
C37   C     C_1   0.594708 0.009527 0.663649 0.009274
C38   C     C_3   0.013322 0.475363 0.477089 0.555597
C39   C     C_3   0.017271 0.416842 0.579000 0.475135
C40   C     C_3   0.017336 0.517783 0.560126 0.469028
C41   C     C_3   0.014004 0.374311 0.495503 0.495833
C42   C     C_1   0.213134 0.635496 0.722825 -0.048251
C43   C     C_R   0.543142 0.003188 0.768793 -0.095642
C44   C     C_1   0.816263 0.295803 0.316193 0.013808
C45   C     C_3   0.080577 0.457867 0.513135 -0.492366
C46   C     C_3   0.949709 0.434474 0.541723 -0.604024
C47   C     C_3   0.083792 0.500041 0.597179 -0.136793
C48   C     C_3   0.947683 0.391881 0.458216 -0.137857
C49   C     C_R   0.736535 0.207965 0.165052 -0.229812
C50   C     C_R   0.274779 0.769114 0.845532 -0.210322
C51   C     C_1   0.156238 0.569298 0.669606 0.096618
C52   C     C_1   0.875941 0.337732 0.380389 0.104252
C53   C     C_3   0.002723 0.972904 0.966896 -0.360349
C54   C     C_R   0.743716 0.244575 0.241835 -0.065747
C55   C     C_3   0.953012 0.021331 0.859022 -0.345387
C56   C     C_3   0.992997 0.049426 0.985523 0.671986
C57   C     C_3   0.963955 0.944517 0.840588 0.679494
C58   C     C_1   0.789503 0.998433 0.931873 -0.030342
C59   C     C_1   0.182518 0.998045 0.955852 -0.063003
C60   C     C_3   0.920157 0.918845 0.887622 -0.349769
C61   C     C_3   0.036466 0.075346 0.938716 -0.348509
C62   C     C_3   0.910934 0.996426 0.907660 0.041414
C63   C     C_3   0.045428 0.997691 0.918706 0.060340
C64   C     C_1   0.841887 0.997435 0.915258 0.037211
C65   C     C_R   0.275951 0.718993 0.778529 -0.103395
C66   C     C_1   0.120240 0.997721 0.934555 0.014361
C67   C     C_R   0.429431 0.770450 0.998818 -0.130818
C68   C     C_R   0.534089 0.199610 0.962490 -0.126159
C69   C     C_R   0.666948 0.217536 0.234776 0.580785
C70   C     C_R   0.347434 0.765687 0.778415 0.543518
C71   C     C_R   0.501135 0.772020 0.930805 -0.106762
C72   C     C_R   0.467874 0.204465 0.036395 -0.170088
C73   C     C_R   0.467402 0.927618 0.164855 -0.221240
C74   C     C_R   0.569991 0.071207 0.841747 -0.225028
C75   C     C_R   0.728665 0.069319 0.000009 -0.110719
C76   C     C_R   0.457091 0.725744 0.956459 0.078555
C77   C     C_R   0.263545 0.928896 0.963541 -0.129489
C78   C     C_R   0.730985 0.999219 0.957755 0.079340
C79   C     C_R   0.255997 0.998497 0.984991 0.107880
C80   C     C_3   0.492107 0.782165 0.428372 0.167639
C81   C     C_3   0.401171 0.736625 0.402748 -0.289643
C82   C     C_3   0.352199 0.662879 0.315308 -1.009817
C83   C     C_3   0.677949 0.219518 0.611971 0.167820
C84   C     C_3   0.617135 0.249112 0.594211 -0.278034
C85   C     C_3   0.632674 0.318686 0.672439 -1.023146
C86   C     C_3   0.007463 0.613288 0.659000 0.193388
C87   C     C_R   0.484916 0.227639 0.982690 0.111946
C88   C     C_3   0.038752 0.706729 0.707203 -0.251138
C89   C     C_3   0.023597 0.729277 0.781088 -1.033520
C90   C     C_3   0.074573 0.294073 0.500345 0.211579
C91   C     C_3   0.121052 0.286247 0.451412 -0.288803
C92   C     C_3   0.189060 0.271766 0.489794 -1.022207
C93   C     C_3   0.950779 0.526560 0.406520 0.239476
C94   C     C_3   0.911435 0.502345 0.316708 -0.298854
C95   C     C_3   0.842322 0.520658 0.296017 -1.024260
C96   C     C_3   0.951703 0.319043 0.609111 0.209358
C97   C     C_3   0.966218 0.279259 0.661187 -0.282434
C98   C     C_3   0.457391 0.457112 0.985634 -0.151637
C99   C     C_3   0.887117 0.203589 0.635981 -1.017011
C100  C     C_3   0.083244 0.141809 0.122787 0.172962
C101  C     C_3   0.094893 0.205319 0.202739 -0.231399
C102  C     C_3   0.180691 0.247549 0.272307 -1.044455
C103  C     C_3   0.873147 0.843125 0.704147 0.179588
C104  C     C_3   0.839981 0.751255 0.679619 -0.285388
C105  C     C_3   0.751446 0.696752 0.612396 -1.015708
C106  C     C_3   0.509315 0.145448 0.335687 0.233002
C107  C     C_3   0.428111 0.131554 0.278922 -0.384680
C108  C     C_3   0.377746 0.141435 0.322750 -0.983139
H1    H     H_    0.636709 0.865947 0.886720 0.114382
H2    H     H_    0.451858 0.916751 0.419542 0.148379
H3    H     H_    0.611173 0.307390 0.211915 0.078080
H4    H     H_    0.568421 0.322045 0.351964 0.209627
H5    H     H_    0.644257 0.404793 0.351332 0.197910
H6    H     H_    0.535293 0.386277 0.231660 0.271746
H7    H     H_    0.515745 0.408564 0.318066 0.280216
H8    H     H_    0.459140 0.303212 0.232524 0.262690
H9    H     H_    0.377570 0.651371 0.640193 0.129980
H10   H     H_    0.284453 0.632982 0.638743 0.086916
H11   H     H_    0.422715 0.618614 0.745861 0.198806
H12   H     H_    0.335934 0.605564 0.761641 0.207802
H13   H     H_    0.895614 0.424304 0.551391 0.182162
H14   H     H_    0.243526 0.485129 0.618359 0.271974
H15   H     H_    0.318852 0.469207 0.675832 0.267313
H16   H     H_    0.330831 0.498486 0.601600 0.270562
H17   H     H_    0.133873 0.468552 0.501981 0.172810
H18   H     H_    0.024445 0.953933 0.011403 0.149095
H19   H     H_    0.930176 0.039077 0.813798 0.149736
H20   H     H_    0.085446 0.138945 0.960529 0.147809
H21   H     H_    0.871179 0.855275 0.865851 0.148399
H22   H     H_    0.784765 0.219049 0.148323 0.142257
H23   H     H_    0.234062 0.748727 0.869447 0.133011
H24   H     H_    0.382827 0.746382 0.015393 0.098642
H25   H     H_    0.345283 0.131707 0.071229 0.094721
H26   H     H_    0.559652 0.208876 0.923128 0.102651
H27   H     H_    0.520792 0.750275 0.886364 0.110080
H28   H     H_    0.436895 0.223567 0.068554 0.105763
H29   H     H_    0.443089 0.862726 0.147701 0.138390
H30   H     H_    0.616858 0.134538 0.865641 0.133001
H31   H     H_    0.769926 0.132624 0.017667 0.100444
H32   H     H_    0.215376 0.864242 0.924236 0.112504
H33   H     H_    0.547914 0.546010 0.959313 0.118558
H34   H     H_    0.274615 0.315752 0.856114 0.118424
H35   H     H_    0.514532 0.737962 0.425876 0.131488
H36   H     H_    0.495754 0.477353 0.050136 0.117848
H37   H     H_    0.501697 0.801220 0.383611 0.084100
H38   H     H_    0.391981 0.713504 0.444814 0.202574
H39   H     H_    0.378230 0.780604 0.407209 0.195111
H40   H     H_    0.359055 0.684822 0.271947 0.264999
H41   H     H_    0.286684 0.631080 0.298900 0.273818
H42   H     H_    0.373206 0.617277 0.309672 0.266573
H43   H     H_    0.740207 0.272586 0.638114 0.122806
H44   H     H_    0.677973 0.201971 0.659744 0.083206
H45   H     H_    0.622517 0.272519 0.551505 0.202912
H46   H     H_    0.554023 0.195994 0.564374 0.190373
H47   H     H_    0.326630 0.387355 0.764993 0.115737
H48   H     H_    0.625679 0.295991 0.715273 0.266744
H49   H     H_    0.587979 0.339079 0.657363 0.271460
H50   H     H_    0.695108 0.373123 0.702672 0.267373
H51   H     H_    0.038023 0.595881 0.701134 0.110518
H52   H     H_    0.940505 0.577771 0.635896 0.105085
H53   H     H_    0.105320 0.742558 0.728701 0.209575
H54   H     H_    0.007655 0.724964 0.666613 0.205985
H55   H     H_    0.957460 0.693907 0.761302 0.265639
H56   H     H_    0.045406 0.797121 0.813441 0.293772
H57   H     H_    0.057139 0.714853 0.824208 0.260797
H58   H     H_    0.472817 0.382582 0.825115 0.119025
H59   H     H_    0.052941 0.238410 0.507496 0.125448
H60   H     H_    0.116776 0.349353 0.563312 0.104410
H61   H     H_    0.078273 0.233018 0.387815 0.221508
H62   H     H_    0.147814 0.344219 0.448825 0.194577
H63   H     H_    0.232309 0.323563 0.553760 0.273702
H64   H     H_    0.222922 0.268652 0.454186 0.278874
H65   H     H_    0.163120 0.211933 0.489380 0.268991
H66   H     H_    0.980166 0.595281 0.445676 0.143002
H67   H     H_    0.901601 0.495889 0.420034 0.093715
H68   H     H_    0.958273 0.537677 0.303544 0.209459
H69   H     H_    0.349888 0.480426 0.990364 0.117565
H70   H     H_    0.886622 0.434526 0.277248 0.208485
H71   H     H_    0.793497 0.483583 0.306089 0.270949
H72   H     H_    0.815847 0.503359 0.230742 0.273587
H73   H     H_    0.865572 0.588195 0.334572 0.269593
H74   H     H_    0.925732 0.271310 0.543865 0.130607
H75   H     H_    0.907181 0.338602 0.616422 0.110774
H76   H     H_    0.010501 0.259348 0.654088 0.198780
H77   H     H_    0.992485 0.325962 0.726649 0.207525
H78   H     H_    0.842805 0.222643 0.644620 0.270243
H79   H     H_    0.899794 0.175759 0.674471 0.264980
H80   H     H_    0.669975 0.934492 0.477096 0.147832
H81   H     H_    0.859968 0.155586 0.570859 0.279969
H82   H     H_    0.128777 0.174996 0.106945 0.094384
H83   H     H_    0.093975 0.093714 0.132201 0.100043
H84   H     H_    0.084259 0.253742 0.194224 0.203888
H85   H     H_    0.049789 0.173344 0.219483 0.204139
H86   H     H_    0.191561 0.200658 0.284059 0.272083
H87   H     H_    0.187684 0.294559 0.328859 0.276297
H88   H     H_    0.226912 0.279824 0.256868 0.271575
H89   H     H_    0.871277 0.849217 0.650073 0.128620
H90   H     H_    0.832443 0.864034 0.721374 0.084337
H91   H     H_    0.521923 0.067876 0.568753 0.149720
H92   H     H_    0.877519 0.729290 0.657299 0.213320
H93   H     H_    0.844013 0.744504 0.733785 0.195216
H94   H     H_    0.712354 0.716338 0.634002 0.272038
H95   H     H_    0.729514 0.630558 0.595741 0.270804
H96   H     H_    0.746137 0.701577 0.557093 0.268062
H97   H     H_    0.541879 0.207725 0.391660 0.130922
H98   H     H_    0.498109 0.099464 0.356768 0.097604
H99   H     H_    0.439959 0.177324 0.257763 0.210957
H100  H     H_    0.391981 0.067734 0.224370 0.199325
H101  H     H_    0.363917 0.095373 0.343580 0.265161
H102  H     H_    0.740893 0.087647 0.629705 0.157276
H103  H     H_    0.319427 0.130591 0.280208 0.270656
H104  H     H_    0.411397 0.205569 0.376388 0.265821
H105  H     H_    0.415647 0.759921 0.597648 0.127036
H106  H     H_    0.457335 0.861470 0.612453 0.124964
H107  H     H_    0.311041 0.773963 0.637699 0.217866
H108  H     H_    0.351346 0.878197 0.653751 0.188564
H109  H     H_    0.319748 0.822186 0.507239 0.260864
H110  H     H_    0.230205 0.775851 0.517731 0.278316
H111  H     H_    0.278944 0.717195 0.490967 0.264553
H112  H     H_    0.531633 0.222851 0.208673 0.104535
N1    N     N_R   0.613530 0.956740 0.956480 -0.043839
N2    N     N_R   0.386500 0.842990 0.843230 -0.085596
N3    N     N_R   0.499770 0.842990 0.956480 -0.040984
N4    N     N_R   0.500230 0.157010 0.043520 -0.055696
N5    N     N_R   0.456470 0.956710 0.113500 -0.066679
N6    N     N_R   0.543530 0.043290 0.886500 -0.067633
N7    N     N_R   0.656800 0.043290 0.999750 -0.042298
N8    N     N_R   0.343200 0.956710 0.000250 -0.040683
N9    N     N_R   0.386470 0.043260 0.043520 -0.048895
N10   N     N_R   0.499750 0.043260 0.156770 -0.109673
N11   N     N_R   0.500250 0.956740 0.843230 -0.088999
N12   N     N_R   0.656790 0.157020 0.113500 -0.067857
N13   N     N_R   0.343210 0.842980 0.886500 -0.067435
N14   N     N_R   0.456490 0.842980 0.999750 -0.040967
N15   N     N_R   0.543510 0.157020 0.000250 -0.039578
N16   N     N_R   0.613500 0.157010 0.156770 -0.125576
Ni1   Ni    Ni4+2 0.500010 0.900760 0.900750 0.276005
Ni2   Ni    Ni4+2 0.499990 0.099240 0.099250 0.197056
Ni3   Ni    Ni4+2 0.599260 0.099260 0.000000 0.195523
Ni4   Ni    Ni4+2 0.400740 0.900740 0.000000 0.194649
O1    O     O_3   0.535038 0.848712 0.510165 -0.681493
O2    O     O_3   0.476500 0.851200 0.717973 -0.632730
O3    O     O_3   0.650253 0.265321 0.289988 -0.630367
O4    O     O_3   0.391151 0.738784 0.743439 -0.645229
O5    O     O_3   0.661298 0.155245 0.537951 -0.668736
O6    O     O_3   0.023988 0.596905 0.592263 -0.670300
O7    O     O_3   0.005049 0.294809 0.456459 -0.661263
O8    O     O_3   0.011354 0.504287 0.421128 -0.655990
O9    O     O_3   0.026271 0.389403 0.636010 -0.667485
O10   O     O_3   0.003081 0.104539 0.060888 -0.667029
O11   O     O_3   0.955499 0.890927 0.765620 -0.669627
O12   O     O_3   0.560932 0.145716 0.299226 -0.635728

loop_
_geom_bond_atom_site_label_1
_geom_bond_atom_site_label_2
_ccdc_geom_bond_type
C40   C47   S    
C73   N5    A    
C67   N14   A    
C101  C102  S    
C4    H108  S    
C90   H59   S    
C2    C18   S    
C9    H9    S    
C6    H3    S    
C94   H68   S    
C33   O1    S    
C67   H24   S    
C77   H32   S    
N13   Ni4   S    
C101  H84   S    
C102  H87   S    
C72   C87   A    
C106  H97   S    
C99   H79   S    
C108  H101  S    
C90   C91   S    
C7    C8    S    
C39   C41   S    
C27   C33   S    
C3    H106  S    
C40   C46   S    
C74   H30   S    
C29   C36   T    
C2    H47   S    
C8    H8    S    
C15   C87   S    
N3    N14   A    
N4    N15   A    
C92   H64   S    
C88   H53   S    
N8    Ni4   S    
C29   C32   S    
C100  O10   S    
C17   H58   S    
C59   C66   T    
C71   H27   S    
C71   C76   A    
C33   C35   S    
C25   O12   S    
C86   C88   S    
C72   H28   S    
C106  C107  S    
C92   H63   S    
N6    N11   A    
C72   N4    A    
C55   C62   S    
C93   H66   S    
N12   N16   A    
C12   H33   S    
C1    N1    A    
C80   O1    S    
C103  H89   S    
C106  O12   S    
C61   C63   S    
C2    C13   S    
C104  C105  S    
C38   C45   S    
C62   C64   S    
C10   H11   S    
C103  C104  S    
C8    H7    S    
C70   O4    S    
C84   H46   S    
C53   C60   S    
C15   C22   T    
C5    H109  S    
C83   C84   S    
C28   C35   S    
C45   H17   S    
C81   H39   S    
C56   O10   S    
C12   C17   S    
N12   Ni3   S    
C107  C108  S    
C46   H13   S    
C23   C27   S    
C57   O11   S    
N4    Ni2   S    
C9    C10   S    
C89   H56   S    
C107  H99   S    
C8    H6    S    
C42   C51   T    
C98   H36   S    
C44   C52   T    
C25   C32   A    
C77   C79   A    
C63   C66   S    
C21   N9    A    
C86   O6    S    
C4    H107  S    
C94   H70   S    
C90   O7    S    
C2    C17   S    
C9    H10   S    
C104  H92   S    
C21   C79   A    
C85   H49   S    
C96   O9    S    
C102  H86   S    
C21   H25   S    
N8    N9    A    
C108  H104  S    
C19   C98   S    
C101  H85   S    
C26   C43   A    
C57   C63   S    
C83   H43   S    
C45   C47   S    
C27   C34   S    
C58   C64   T    
C46   C48   S    
C25   N10   A    
C28   H91   S    
C71   N3    A    
C69   O3    S    
C13   C19   S    
C1    C78   A    
C14   C20   T    
C19   C22   S    
C24   H2    S    
C84   C85   S    
C97   C99   S    
C59   C79   S    
C91   C92   S    
C99   H81   S    
C91   H61   S    
C95   H73   S    
C105  H96   S    
C47   C51   S    
C75   C78   A    
N5    N10   A    
C93   H67   S    
C81   C82   S    
C30   C37   T    
N1    Ni1   S    
C103  H90   S    
C23   C31   S    
C65   C70   A    
C50   N13   A    
C97   H77   S    
C93   O8    S    
C42   C65   S    
C84   H45   S    
C40   O6    S    
C5    H110  S    
C39   O9    S    
C48   C52   S    
C80   H35   S    
C38   O8    S    
C96   C97   S    
C83   O5    S    
C31   C34   S    
C93   C94   S    
N14   Ni4   S    
C13   H34   S    
N2    N13   A    
C89   H57   S    
C107  H100  S    
C3    O2    S    
C85   H48   S    
C39   C46   S    
C6    H112  S    
C95   H71   S    
C80   H37   S    
C55   H19   S    
C23   C35   S    
C10   C11   S    
C55   C57   S    
N3    Ni1   S    
C26   N11   A    
C56   C62   S    
C6    O3    S    
N10   Ni2   S    
C100  H83   S    
C85   H50   S    
C83   H44   S    
C96   H75   S    
C17   C19   S    
C3    C4    S    
N7    Ni3   S    
C32   C73   A    
C108  H103  S    
C16   H69   S    
C35   C37   S    
C97   H76   S    
C39   C47   S    
C7    H4    S    
C86   H51   S    
C53   C56   S    
C11   H15   S    
N5    Ni4   S    
C68   N15   A    
N15   Ni3   S    
N6    Ni3   S    
C91   H62   S    
C90   H60   S    
C38   C48   S    
C69   N16   A    
C28   C31   S    
C100  H82   S    
C24   C28   S    
C96   H74   S    
C80   C81   S    
C82   H42   S    
C102  H88   S    
C60   H21   S    
C106  H98   S    
C82   H40   S    
C26   O2    S    
C6    C7    S    
C23   H102  S    
C92   H65   S    
C3    H105  S    
C49   H22   S    
N1    N7    A    
N2    Ni1   S    
C24   C33   S    
N11   Ni1   S    
C103  O11   S    
C104  H93   S    
C7    H5    S    
C49   N12   A    
C75   N7    A    
C74   N6    A    
C75   H31   S    
C60   C62   S    
C38   C40   S    
C53   C63   S    
C16   C98   S    
C105  H94   S    
C5    H111  S    
C54   C69   A    
C73   H29   S    
C50   H23   S    
C43   C74   A    
C1    H1    S    
C88   H54   S    
C4    C5    S    
C55   C61   S    
C68   H26   S    
C100  C101  S    
C70   N2    A    
C41   C48   S    
N16   Ni2   S    
C61   H20   S    
C18   C20   S    
C27   H80   S    
C99   H78   S    
C94   C95   S    
C30   C43   S    
C50   C65   A    
C24   C34   S    
C82   H41   S    
C105  H95   S    
C53   H18   S    
C58   C78   S    
C11   H14   S    
C44   C54   S    
C95   H72   S    
C57   C60   S    
C88   C89   S    
C34   C36   S    
C77   N8    A    
C16   C18   S    
C81   H38   S    
C13   C16   S    
C12   C18   S    
C12   C98   S    
C68   C87   A    
C41   C45   S    
C56   C61   S    
C31   O5    S    
C67   C76   A    
C11   H16   S    
N9    Ni2   S    
C9    O4    S    
C86   H52   S    
C89   H55   S    
C10   H12   S    
C41   O7    S    
C49   C54   A    
C14   C76   S    
