data_mof_unit_3771.cif
_audit_creation_date              2013-03-05T16:01:06-0500
_audit_creation_method            fapswitch 2.2
_symmetry_space_group_name_H-M    P1
_symmetry_Int_Tables_number       1
_space_group_crystal_system       triclinic
_cell_length_a                    14.7034
_cell_length_b                    14.530695
_cell_length_c                    15.856256
_cell_angle_alpha                 77.007047
_cell_angle_beta                  102.474149
_cell_angle_gamma                 114.602963
_cell_volume                      2972.50651755

loop_
_atom_site_label
_atom_site_type_symbol
_atom_site_description
_atom_site_fract_x
_atom_site_fract_y
_atom_site_fract_z
_atom_type_partial_charge
O1    O     O_R   0.977900 0.338120 0.529810 -0.555822
O2    O     O_R   0.022100 0.661880 0.470190 -0.555788
O3    O     O_R   0.839850 0.379180 0.491620 -0.554096
O4    O     O_R   0.160150 0.620820 0.508380 -0.554160
C1    C     C_R   0.880501 0.311214 0.511912 0.881076
C2    C     C_R   0.119497 0.688784 0.488089 0.881149
O5    O     O_R   0.069010 0.479460 0.640020 -0.558009
O6    O     O_R   0.930990 0.520540 0.359980 -0.558037
O7    O     O_R   0.930960 0.520530 0.601820 -0.584214
O8    O     O_R   0.069040 0.479470 0.398180 -0.584155
C3    C     C_R   0.999448 0.500093 0.659994 0.823845
C4    C     C_R   0.000553 0.499908 0.340006 0.823862
Cu1   Cu    Cu3+1 0.081740 0.475690 0.522610 1.037056
Cu2   Cu    Cu3+1 0.918260 0.524310 0.477390 1.037067
C5    C     C_3   0.001999 0.410669 0.046436 -0.216396
C6    C     C_3   0.998006 0.589338 0.953563 -0.216375
C7    C     C_3   0.917325 0.421386 0.971855 -0.228624
C8    C     C_3   0.082680 0.578620 0.028145 -0.228571
H1    H     H_    0.849084 0.357587 0.947671 0.203988
H2    H     H_    0.150921 0.642420 0.052328 0.204004
H3    H     H_    0.004625 0.337895 0.085490 0.209786
H4    H     H_    0.995379 0.662112 0.914509 0.209786
C9    C     C_1   0.998403 0.500384 0.749420 -0.091075
C10   C     C_1   0.001599 0.499619 0.250580 -0.091057
C11   C     C_3   0.082354 0.489699 0.989951 0.456632
C12   C     C_3   0.917651 0.510308 0.010049 0.456626
C13   C     C_3   0.998753 0.500283 0.916748 0.004203
C14   C     C_3   0.001252 0.499724 0.083252 0.004207
C15   C     C_1   0.998205 0.500433 0.824932 0.079265
C16   C     C_1   0.001799 0.499572 0.175067 0.079287
C17   C     C_R   0.813342 0.200970 0.517410 -0.285672
C18   C     C_R   0.186651 0.799023 0.482664 -0.285693
C19   C     C_R   0.779901 0.019308 0.567847 0.269621
C20   C     C_R   0.220127 0.980716 0.432327 0.269494
C21   C     C_R   0.848003 0.122375 0.560077 0.220976
C22   C     C_R   0.152038 0.877634 0.439935 0.221048
C23   C     C_R   0.710961 0.174015 0.481751 0.272383
C24   C     C_R   0.288975 0.825957 0.518500 0.272349
C25   C     C_R   0.639979 0.075063 0.506718 -0.024053
C26   C     C_R   0.359999 0.924925 0.493662 -0.024001
C27   C     C_R   0.675688 0.995503 0.540846 -0.066326
C28   C     C_R   0.324316 0.004505 0.459522 -0.066307
C29   C     C_R   0.534413 0.051828 0.495692 0.120034
C30   C     C_R   0.465570 0.948147 0.504784 0.120062
C31   C     C_R   0.504057 0.871014 0.519460 -0.109100
C32   C     C_R   0.495939 0.128959 0.481090 -0.108923
C33   C     C_R   0.606843 0.893700 0.541793 -0.056778
C34   C     C_R   0.393160 0.106294 0.458738 -0.056319
H5    H     H_    0.631912 0.830840 0.556957 0.192837
H6    H     H_    0.368102 0.169158 0.443652 0.192915
H7    H     H_    0.455345 0.792200 0.513958 0.177594
H8    H     H_    0.544666 0.207758 0.486644 0.177483
N1    N     N_R   0.795440 0.560790 0.443380 -0.193728
N2    N     N_R   0.204560 0.439210 0.556620 -0.193694
C35   C     C_R   0.719245 0.674353 0.358969 -0.170936
C36   C     C_R   0.280740 0.325626 0.641012 -0.171010
C37   C     C_R   0.798303 0.640859 0.379320 0.162010
C38   C     C_R   0.201685 0.359123 0.620664 0.161999
C39   C     C_R   0.714032 0.508434 0.487097 0.093898
C40   C     C_R   0.285973 0.491573 0.512911 0.093789
C41   C     C_R   0.628866 0.536277 0.467499 -0.042866
C42   C     C_R   0.371136 0.463724 0.532504 -0.042860
C43   C     C_R   0.634429 0.623665 0.403556 0.045526
C44   C     C_R   0.365564 0.376326 0.596435 0.045597
C45   C     C_R   0.540099 0.481894 0.509922 0.029516
C46   C     C_R   0.459903 0.518109 0.490082 0.029422
C47   C     C_R   0.471517 0.608248 0.429321 -0.244270
C48   C     C_R   0.528484 0.391754 0.570681 -0.244280
C49   C     C_R   0.556016 0.659504 0.386136 0.385158
C50   C     C_R   0.443978 0.340487 0.613856 0.384976
H9    H     H_    0.281065 0.552808 0.461924 0.126418
H10   H     H_    0.718948 0.447211 0.538094 0.126424
H11   H     H_    0.136428 0.319547 0.654763 0.175046
H12   H     H_    0.863552 0.680424 0.345210 0.175132
H13   H     H_    0.725720 0.740104 0.308804 0.221734
H14   H     H_    0.274257 0.259864 0.691165 0.221742
H15   H     H_    0.416154 0.642111 0.414034 0.161436
H16   H     H_    0.583850 0.357894 0.585970 0.161381
Cl1   Cl    Cl    0.807439 0.524084 0.024515 -0.478032
Cl2   Cl    Cl    0.192565 0.475923 0.975484 -0.477997
Cl3   Cl    Cl    0.321062 0.747981 0.614102 -0.538852
Cl4   Cl    Cl    0.678685 0.251937 0.386195 -0.538815
N3    N     N_R   0.047791 0.854451 0.405686 0.151032
O9    O     O_R   0.983262 0.834636 0.458539 -0.272281
O10   O     O_R   0.021653 0.873508 0.321898 -0.310833
N4    N     N_R   0.952314 0.145544 0.594064 0.151030
O11   O     O_R   0.016637 0.165461 0.540989 -0.272255
O12   O     O_R   0.978692 0.126333 0.677798 -0.310743
N5    N     N_R   0.816890 0.939777 0.606263 0.149326
O13   O     O_R   0.890323 0.934923 0.576459 -0.218811
O14   O     O_R   0.782394 0.876757 0.675197 -0.301496
N6    N     N_R   0.183168 0.060264 0.393845 0.149383
O15   O     O_R   0.109296 0.064784 0.423232 -0.218448
O16   O     O_R   0.218195 0.123688 0.325255 -0.301792
Cl5   Cl    Cl    0.560825 0.771328 0.311621 -0.548394
Cl6   Cl    Cl    0.439161 0.228652 0.688358 -0.548665

loop_
_geom_bond_atom_site_label_1
_geom_bond_atom_site_label_2
_geom_bond_distance
_ccdc_geom_bond_type
O5    Cu1   1.925831 S    
C2    C18   1.485262 S    
C36   H14   1.081580 S    
C13   C15   1.453648 S    
C11   Cl2   1.780441 S    
C47   H15   1.076179 S    
O7    Cu2   1.931643 S    
N1    C39   1.362016 A    
C33   H5    1.082258 S    
N2    C40   1.362014 A    
O5    C3    1.293937 A    
O1    C1    1.300928 A    
C7    C12   1.543290 S    
C9    C15   1.198135 T    
C21   N4    1.432010 S    
N4    O12   1.300842 A    
C5    C11   1.543302 S    
C31   H7    1.080311 S    
C22   N3    1.431977 S    
C32   H8    1.080329 S    
C40   C42   1.423220 A    
C3    C9    1.422342 S    
O4    Cu1   1.923874 S    
C41   C43   1.420383 A    
C42   C44   1.420385 A    
C7    H1    1.110112 S    
C43   C49   1.405150 A    
C20   C28   1.411729 A    
O6    Cu2   1.925830 S    
C36   C44   1.406933 A    
C44   C50   1.405152 A    
N5    O14   1.301242 A    
C20   C22   1.408082 A    
C39   H10   1.074860 S    
C35   H13   1.081579 S    
C6    C13   1.539373 S    
C34   H6    1.082249 S    
C46   C47   1.410780 A    
Cu1   Cu2   2.689373 S    
C6    C12   1.543302 S    
O2    C2    1.300906 A    
C8    C11   1.543291 S    
C10   C16   1.198135 T    
C31   C33   1.387294 A    
C48   H16   1.076178 S    
C32   C34   1.387263 A    
C39   C41   1.423219 A    
C42   C46   1.435922 A    
C7    C13   1.539429 S    
C8    C14   1.539429 S    
O4    C2    1.304477 A    
N1    C37   1.354048 A    
N4    O11   1.301117 A    
C25   C29   1.423639 A    
C40   H9    1.074856 S    
O3    C1    1.304473 A    
C17   C23   1.407177 A    
C35   C43   1.406930 A    
C47   C49   1.391010 A    
C37   H12   1.080999 S    
C50   Cl6   1.765901 S    
C29   C30   1.418002 A    
C19   N5    1.437355 S    
N3    O9    1.301137 A    
C26   C30   1.423658 A    
O6    C4    1.293937 A    
C45   C48   1.410777 A    
N6    O16   1.301348 A    
C27   C33   1.401033 A    
C28   C34   1.401051 A    
O7    C3    1.295242 A    
O3    Cu2   1.923873 S    
O8    C4    1.295242 A    
C6    C8    1.554142 S    
N3    O10   1.300806 A    
C18   C24   1.407122 A    
C35   C37   1.389460 A    
C24   Cl3   1.779928 S    
C17   C21   1.417719 A    
C23   Cl4   1.779963 S    
O1    Cu1   1.942029 S    
C18   C22   1.417717 A    
C30   C31   1.408727 A    
Cu1   N2    2.020097 S    
N2    C38   1.354049 A    
C5    C7    1.554141 S    
C6    H4    1.110133 S    
C49   Cl5   1.765901 S    
O8    Cu1   1.931643 S    
C11   C13   1.530586 S    
C4    C10   1.422342 S    
C12   C14   1.530586 S    
C12   Cl1   1.780442 S    
C19   C27   1.411639 A    
C14   C16   1.453649 S    
C23   C25   1.409400 A    
C24   C26   1.409342 A    
C5    C14   1.539373 S    
C26   C28   1.416502 A    
N6    O15   1.301164 A    
C19   C21   1.407979 A    
C36   C38   1.389459 A    
C8    H2    1.110112 S    
O2    Cu2   1.942028 S    
C29   C32   1.408691 A    
C20   N6    1.437473 S    
C41   C45   1.435922 A    
C5    H3    1.110133 S    
Cu2   N1    2.020098 S    
C25   C27   1.416450 A    
C48   C50   1.391011 A    
C45   C46   1.431186 A    
N5    O13   1.301120 A    
C38   H11   1.080997 S    
C1    C17   1.485295 S    
