data_mof_unit_307.cif
_audit_creation_date              2012-12-10T18:07:38-0500
_audit_creation_method            fapswitch 2.2
_symmetry_space_group_name_H-M    P1
_symmetry_Int_Tables_number       1
_space_group_crystal_system       triclinic
_cell_length_a                    11.497763
_cell_length_b                    12.647146
_cell_length_c                    13.177137
_cell_angle_alpha                 82.31265
_cell_angle_beta                  90.725289
_cell_angle_gamma                 101.250507
_cell_volume                      1862.24941176

loop_
_atom_site_label
_atom_site_type_symbol
_atom_type_description
_atom_site_fract_x
_atom_site_fract_y
_atom_site_fract_z
_atom_type_partial_charge
C1    C     C_R   0.486906 0.439103 0.690808 0.983413
C2    C     C_R   0.666398 0.621800 0.908908 0.500187
C3    C     C_R   0.626401 0.539140 0.850299 0.556628
C4    C     C_R   0.717351 0.500076 0.500427 0.920227
C5    C     C_R   0.467466 0.529040 0.132982 0.594440
C6    C     C_R   0.603453 0.692869 0.163501 -0.345190
C7    C     C_R   0.461567 0.402554 0.799032 -0.189380
C8    C     C_R   0.302725 0.083920 0.375428 -0.398112
C9    C     C_R   0.636518 0.799762 0.631227 0.038772
C10   C     C_R   0.657707 0.902422 0.662461 -0.237289
C11   C     C_R   0.601424 0.982164 0.612367 -0.198186
C12   C     C_R   0.523779 0.597927 0.200054 -0.198630
C13   C     C_R   0.525749 0.959700 0.529467 0.037227
C14   C     C_R   0.500950 0.852986 0.505223 0.189989
C15   C     C_R   0.470330 0.039004 0.473323 -0.042990
C16   C     C_R   0.511242 0.560822 0.309132 0.900596
C17   C     C_R   0.370336 0.006156 0.412995 0.014857
C18   C     C_R   0.344358 0.898477 0.388605 0.094090
C19   C     C_R   0.415626 0.825707 0.431279 -0.217591
C20   C     C_R   0.515463 0.151289 0.469348 0.082666
C21   C     C_R   0.336150 0.190183 0.396991 0.800081
C22   C     C_R   0.282607 0.499710 0.500402 0.891812
C23   C     C_R   0.358901 0.323442 0.825568 0.610995
C24   C     C_1   0.838152 0.500349 0.501743 -0.148898
C25   C     C_1   0.940616 0.500255 0.502471 0.003198
C26   C     C_1   0.059378 0.499475 0.502352 0.022236
C27   C     C_1   0.161748 0.499090 0.501642 -0.137698
C28   C     C_R   0.643894 0.710471 0.061979 0.168154
C29   C     C_3   0.244793 0.864990 0.314343 -0.415930
C30   C     C_3   0.228516 0.748305 0.287639 -0.355567
C31   C     C_3   0.126473 0.724695 0.213607 -0.852172
C32   C     C_3   0.648766 0.190534 0.456335 -0.380355
C33   C     C_3   0.680088 0.246714 0.346418 -0.320820
C34   C     C_R   0.298854 0.323251 0.916012 -0.254607
C35   C     C_3   0.813986 0.277820 0.328484 -0.840632
C36   C     C_3   0.727821 0.816888 0.026671 -0.333213
C37   C     C_3   0.854134 0.814719 0.064897 -0.306569
C38   C     C_3   0.939073 0.920483 0.025681 -0.836719
C39   C     C_R   0.341072 0.400323 0.980235 -0.127614
C40   C     C_R   0.453477 0.470401 0.962359 0.044689
C41   C     C_R   0.515177 0.469389 0.870902 -0.221215
C42   C     C_R   0.504464 0.544131 0.030364 -0.128263
C43   C     C_R   0.603986 0.628656 0.998138 -0.171616
F1    F     F_    0.773069 0.686766 0.882787 -0.664795
F2    F     F_    0.389440 0.438504 0.173107 -0.657915
F3    F     F_    0.307449 0.256712 0.758122 -0.653427
F4    F     F_    0.698039 0.526959 0.773116 -0.646823
F5    F     F_    0.267909 0.263257 0.363184 -0.617362
H1    H     H_    0.640786 0.749578 0.215678 0.183833
H2    H     H_    0.145247 0.780027 0.140386 0.263723
H3    H     H_    0.115815 0.639467 0.197260 0.263578
H4    H     H_    0.310946 0.736496 0.251215 0.225704
H5    H     H_    0.208303 0.689486 0.358448 0.229216
H6    H     H_    0.159956 0.874499 0.348225 0.212803
H7    H     H_    0.262117 0.921684 0.241635 0.210702
H8    H     H_    0.855468 0.331485 0.384245 0.271525
H9    H     H_    0.853580 0.203779 0.336533 0.266096
H10   H     H_    0.833232 0.321674 0.249907 0.253506
H11   H     H_    0.642409 0.190107 0.291311 0.213081
H12   H     H_    0.223312 0.063707 0.331511 0.175997
H13   H     H_    0.640931 0.320393 0.329078 0.262949
H14   H     H_    0.684904 0.240141 0.516517 0.226708
H15   H     H_    0.696071 0.121481 0.465973 0.196499
H16   H     H_    0.943450 0.932121 0.940649 0.282948
H17   H     H_    0.909299 0.990761 0.052192 0.255370
H18   H     H_    0.029272 0.917453 0.055443 0.246924
H19   H     H_    0.854226 0.803550 0.150021 0.199173
H20   H     H_    0.886731 0.745625 0.038777 0.276283
H21   H     H_    0.726986 0.837884 0.942223 0.237387
H22   H     H_    0.695239 0.883771 0.057346 0.173633
H23   H     H_    0.679495 0.736996 0.669579 0.198558
H24   H     H_    0.616484 0.060878 0.639222 0.161937
H25   H     H_    0.716746 0.919878 0.725326 0.171667
H26   H     H_    0.402680 0.747203 0.408097 0.209564
H27   H     H_    0.280626 0.406581 0.039904 0.228849
H28   H     H_    0.214235 0.268744 0.932551 0.180587
H29   H     H_    0.042260 0.735283 0.247635 0.255889
N1    N     N_R   0.440320 0.222190 0.444690 -0.161309
N2    N     N_R   0.559060 0.776980 0.554780 -0.136594
O1    O     O_R   0.471500 0.366730 0.627160 -0.569398
O2    O     O_R   0.509620 0.544830 0.662520 -0.603269
O3    O     O_R   0.646490 0.410960 0.482310 -0.651317
O4    O     O_R   0.684610 0.589050 0.517670 -0.587530
O5    O     O_R   0.490380 0.455170 0.337480 -0.536562
O6    O     O_R   0.528500 0.633270 0.372840 -0.666312
O7    O     O_R   0.315390 0.410950 0.482330 -0.516701
O8    O     O_R   0.353510 0.589040 0.517690 -0.655970
Zn1   Zn    Zn3+2 0.474550 0.381080 0.476390 1.045635
Zn2   Zn    Zn3+2 0.525450 0.618920 0.523610 0.949959

loop_
_geom_bond_atom_site_label_1
_geom_bond_atom_site_label_2
_ccdc_geom_bond_type
C5    C42   A    
C26   C27   T    
C29   C30   S    
C35   H10   S    
C36   C37   S    
C6    C12   A    
C30   C31   S    
C4    C24   S    
C10   H25   S    
O3    Zn1   S    
C29   H6    S    
C1    O2    A    
C37   H20   S    
C16   O5    A    
C18   C19   A    
C9    N2    A    
C6    C28   A    
C38   H18   S    
C7    C41   A    
C2    F1    S    
C21   N1    A    
C31   H29   S    
C39   H27   S    
C9    C10   A    
C21   F5    S    
O2    Zn2   S    
C40   C42   A    
C33   H11   S    
C23   F3    S    
C13   C14   A    
C36   H22   S    
C17   C18   A    
C38   H16   S    
C15   C20   A    
O4    Zn2   S    
C30   H5    S    
C34   C39   A    
C12   C16   S    
C24   C25   T    
C5    C12   A    
C39   C40   A    
O6    Zn2   S    
C11   H24   S    
C29   H7    S    
C25   C26   S    
C22   O8    A    
C5    F2    S    
O5    Zn1   S    
C37   C38   S    
C38   H17   S    
C2    C43   A    
C23   C34   A    
C8    C21   A    
C18   C29   S    
C14   N2    A    
C40   C41   A    
C22   C27   S    
C13   C15   A    
C16   O6    A    
C42   C43   A    
C31   H2    S    
C36   H21   S    
C20   C32   S    
N1    Zn1   S    
C15   C17   A    
C30   H4    S    
C3    C41   A    
C35   H8    S    
C1    C7    S    
C14   C19   A    
C19   H26   S    
C9    H23   S    
C32   H15   S    
C31   H3    S    
C28   C43   A    
C8    C17   A    
C20   N1    A    
C35   H9    S    
C32   C33   S    
O8    Zn2   S    
C2    C3    A    
C32   H14   S    
O1    Zn1   S    
C8    H12   S    
C11   C13   A    
C4    O4    A    
C7    C23   A    
C37   H19   S    
C3    F4    S    
C33   C35   S    
O7    Zn1   S    
C22   O7    A    
C6    H1    S    
N2    Zn2   S    
C10   C11   A    
C4    O3    A    
C28   C36   S    
C33   H13   S    
C1    O1    A    
C34   H28   S    
