data_mof_unit_953.cif
_audit_creation_date              2012-10-26T20:33:19-0400
_audit_creation_method            fapswitch 2.2
_symmetry_space_group_name_H-M    P1
_symmetry_Int_Tables_number       1
_space_group_crystal_system       triclinic
_cell_length_a                    17.723952
_cell_length_b                    10.857326
_cell_length_c                    9.521551
_cell_angle_alpha                 90.001416
_cell_angle_beta                  89.918187
_cell_angle_gamma                 90.410953
_cell_volume                      1832.22804887

loop_
_atom_site_label
_atom_site_type_symbol
_atom_type_description
_atom_site_fract_x
_atom_site_fract_y
_atom_site_fract_z
_atom_type_partial_charge
Br1   Br    Br    0.716604 0.308325 0.278582 -0.523545
C1    C     C_R   0.499875 0.262665 0.499834 0.565159
C2    C     C_R   0.113703 0.504966 0.511647 -0.022687
C3    C     C_R   0.501198 0.062210 0.621318 0.031035
C4    C     C_R   0.355478 0.502654 0.500356 0.566092
C5    C     C_R   0.499809 0.130146 0.498096 0.002530
C6    C     C_R   0.498784 0.064579 0.370063 -0.145224
C7    C     C_R   0.499038 0.935429 0.370145 -0.158097
C8    C     C_R   0.500273 0.869956 0.498261 -0.004568
C9    C     C_R   0.501270 0.937978 0.621541 -0.019994
C10   C     C_3   0.503279 0.927965 0.777854 -0.214549
C11   C     C_3   0.503021 0.070153 0.778227 0.018064
C12   C     C_R   0.884669 0.492002 0.511361 0.033618
C13   C     C_R   0.536676 0.591163 0.073696 0.153038
C14   C     C_R   0.458852 0.416142 0.074605 -0.010491
C15   C     C_R   0.458295 0.416794 0.925602 -0.032994
C16   C     C_R   0.500358 0.737368 0.499851 0.537838
C17   C     C_R   0.537036 0.590694 0.926038 0.156340
C18   C     C_3   0.619544 0.618465 0.920701 -0.279702
C19   C     C_3   0.618932 0.620566 0.079868 -0.272757
C20   C     C_R   0.644222 0.497238 0.499827 0.575615
C21   C     C_R   0.843879 0.563616 0.607671 0.124589
C22   C     C_R   0.765291 0.565009 0.600369 -0.168560
C23   C     C_1   0.965497 0.496264 0.513318 0.000945
C24   C     C_R   0.726794 0.494031 0.500426 -0.036991
C25   C     C_R   0.767487 0.419738 0.405688 0.164102
C26   C     C_R   0.846740 0.420178 0.409674 0.139475
C27   C     C_3   0.901442 0.568599 0.836180 -0.315456
C28   C     C_3   0.642782 0.111000 0.762611 -0.261003
C29   C     C_3   0.903054 0.407277 0.179715 -0.290384
C30   C     C_3   0.113488 0.584674 0.852791 -0.294662
C31   C     C_3   0.296030 0.773571 0.641937 -0.276043
C32   C     C_3   0.263703 0.428687 0.156828 -0.294613
C33   C     C_1   0.033059 0.500093 0.513427 -0.034684
C34   C     C_R   0.154129 0.574636 0.611051 0.176996
C35   C     C_R   0.233389 0.577354 0.605520 0.121461
C36   C     C_R   0.272191 0.507295 0.502016 0.009294
C37   C     C_R   0.230140 0.440374 0.401095 0.092569
C38   C     C_R   0.151451 0.438733 0.408372 -0.150628
Cu1   Cu    Cu3+1 0.500000 0.499980 0.640670 0.921266
Cu2   Cu    Cu3+1 0.500000 0.500020 0.359330 0.972250
H1    H     H_    0.498262 0.887627 0.270295 0.138426
H2    H     H_    0.734096 0.621902 0.673391 0.118075
H3    H     H_    0.629918 0.713594 0.124455 0.127491
H4    H     H_    0.119543 0.385484 0.332176 0.116620
H5    H     H_    0.497821 0.112293 0.270178 0.148993
H6    H     H_    0.854603 0.717376 0.734072 0.249051
H7    H     H_    0.849488 0.536525 0.890961 0.137616
H8    H     H_    0.933904 0.629474 0.908110 0.135940
H9    H     H_    0.936966 0.487977 0.809710 0.157376
H10   H     H_    0.563717 0.214063 0.872085 0.271323
H11   H     H_    0.689539 0.143333 0.831082 0.155423
H12   H     H_    0.450636 0.886460 0.820876 0.103919
H13   H     H_    0.643285 0.167248 0.665148 0.167704
H14   H     H_    0.652994 0.013037 0.736083 0.146754
H15   H     H_    0.934766 0.304895 0.353382 0.246999
H16   H     H_    0.941428 0.487447 0.195829 0.121813
H17   H     H_    0.849764 0.439029 0.130824 0.179180
H18   H     H_    0.930524 0.341560 0.106758 0.139352
H19   H     H_    0.064304 0.678200 0.686904 0.264943
H20   H     H_    0.080873 0.497044 0.846711 0.124661
H21   H     H_    0.085732 0.646515 0.929695 0.134895
H22   H     H_    0.171400 0.565341 0.890879 0.162012
H23   H     H_    0.556044 0.885660 0.816831 0.146897
H24   H     H_    0.311197 0.615681 0.765067 0.265989
H25   H     H_    0.320669 0.832063 0.725999 0.131222
H26   H     H_    0.246920 0.822486 0.596488 0.160035
H27   H     H_    0.339195 0.759447 0.559057 0.139298
H28   H     H_    0.248128 0.280948 0.290461 0.240285
H29   H     H_    0.293470 0.370260 0.079174 0.116846
H30   H     H_    0.291632 0.520606 0.159657 0.172994
H31   H     H_    0.204309 0.439044 0.121684 0.119606
H32   H     H_    0.450637 0.109601 0.823775 0.105702
H33   H     H_    0.427290 0.346238 0.130816 0.125988
H34   H     H_    0.425657 0.348071 0.869690 0.106949
H35   H     H_    0.653021 0.540991 0.877453 0.160472
H36   H     H_    0.632068 0.709765 0.873226 0.111705
H37   H     H_    0.652874 0.545395 0.126573 0.191426
N1    N     N_R   0.500470 0.500930 0.147930 -0.222965
N2    N     N_R   0.500480 0.500890 0.852020 -0.232016
N3    N     N_2   0.881732 0.636117 0.710725 -0.510569
N4    N     N_2   0.571596 0.125520 0.836126 -0.501755
N5    N     N_2   0.887678 0.346739 0.312124 -0.469783
N6    N     N_2   0.115927 0.643678 0.716608 -0.481922
N7    N     N_2   0.272193 0.656791 0.700635 -0.499055
N8    N     N_2   0.266479 0.371282 0.293959 -0.498516
O1    O     O_R   0.500000 0.319640 0.618810 -0.506740
O2    O     O_R   0.500010 0.319680 0.381230 -0.489956
O3    O     O_R   0.391250 0.499990 0.618840 -0.520192
O4    O     O_R   0.391260 0.500020 0.381250 -0.475143
O5    O     O_R   0.499990 0.680320 0.618770 -0.503320
O6    O     O_R   0.500000 0.680360 0.381190 -0.514315
O7    O     O_R   0.608740 0.499980 0.618750 -0.508752
O8    O     O_R   0.608750 0.500010 0.381160 -0.463624

loop_
_geom_bond_atom_site_label_1
_geom_bond_atom_site_label_2
_ccdc_geom_bond_type
C4    C36   S    
C15   H34   S    
C13   C17   A    
C34   C35   A    
C16   O5    A    
Cu1   O7    S    
C6    C7    A    
C25   C26   A    
C37   N8    S    
Cu1   O1    S    
C35   C36   A    
C7    H1    S    
C37   C38   A    
C28   H13   S    
C14   C15   A    
C29   H16   S    
C22   H2    S    
C17   C18   S    
C29   N5    S    
C18   H36   S    
C30   H20   S    
C32   H31   S    
C27   H9    S    
C14   N1    A    
C18   C19   S    
C7    C8    A    
Cu1   N2    S    
C1    O2    A    
Cu1   O3    S    
C3    C11   S    
C8    C9    A    
C4    O4    A    
C10   H12   S    
C31   H27   S    
H6    N3    S    
Cu2   O4    S    
C2    C38   A    
C11   H32   S    
C30   H21   S    
C18   H35   S    
C1    C5    S    
C16   O6    A    
C19   H3    S    
C6    H5    S    
C13   C19   S    
C3    C5    A    
C10   H23   S    
C28   H14   S    
C2    C33   S    
C24   C25   A    
C23   C33   T    
C30   N6    S    
C12   C23   S    
C15   N2    A    
C32   N8    S    
C21   N3    S    
C36   C37   A    
C30   H22   S    
C27   H8    S    
Cu2   O8    S    
C2    C34   A    
C10   C11   S    
C29   H18   S    
Cu2   O6    S    
C11   N4    S    
C1    O1    A    
C13   N1    A    
H10   N4    S    
C32   H29   S    
C31   H26   S    
C8    C16   S    
Cu1   Cu2   S    
Br1   C25   S    
C3    C9    A    
H15   N5    S    
C31   H25   S    
Cu2   O2    S    
C20   C24   S    
C27   H7    S    
C27   N3    S    
Cu2   N1    S    
C34   N6    S    
H24   N7    S    
C5    C6    A    
C19   H37   S    
C35   N7    S    
C38   H4    S    
C26   N5    S    
C28   N4    S    
H19   N6    S    
C20   O7    A    
C31   N7    S    
C29   H17   S    
C12   C21   A    
C22   C24   A    
Cu1   O5    S    
C9    C10   S    
C32   H30   S    
C14   H33   S    
C17   N2    A    
C20   O8    A    
C21   C22   A    
C12   C26   A    
C4    O3    A    
H28   N8    S    
C28   H11   S    
