data_mof_unit_4762.cif
_audit_creation_date              2012-12-11T18:11:26-0500
_audit_creation_method            fapswitch 2.2
_symmetry_space_group_name_H-M    P1
_symmetry_Int_Tables_number       1
_space_group_crystal_system       triclinic
_cell_length_a                    8.177402
_cell_length_b                    12.651784
_cell_length_c                    18.731651
_cell_angle_alpha                 99.463385
_cell_angle_beta                  90.97084
_cell_angle_gamma                 98.552301
_cell_volume                      1888.62017704

loop_
_atom_site_label
_atom_site_type_symbol
_atom_type_description
_atom_site_fract_x
_atom_site_fract_y
_atom_site_fract_z
_atom_type_partial_charge
Ba1   Ba    Ba6+2 0.852780 0.548340 0.465070 1.656077
Ba2   Ba    Ba6+2 0.337060 0.451750 0.534940 1.642380
Br1   Br    Br    0.580905 0.168862 0.182901 -0.626869
C1    C     C_3   0.583407 0.900323 0.252232 -0.365668
C2    C     C_R   0.902211 0.386026 0.095649 -0.077252
C3    C     C_R   0.766602 0.407198 0.953300 -0.083967
C4    C     C_3   0.130459 0.762736 0.265440 0.357963
C5    C     C_R   0.931517 0.450328 0.977091 0.010806
C6    C     C_R   0.709026 0.407648 0.883169 -0.031600
C7    C     C_R   0.812725 0.451029 0.833037 -0.029929
C8    C     C_R   0.975162 0.502278 0.856345 -0.005628
C9    C     C_R   0.034638 0.502710 0.928819 0.023140
C10   C     C_R   0.758717 0.444880 0.760221 -0.008325
C11   C     C_R   0.867387 0.485602 0.711049 -0.308578
C12   C     C_3   0.634377 0.820473 0.297558 0.305467
C13   C     C_R   0.023506 0.543399 0.733410 0.032140
C14   C     C_R   0.077260 0.554086 0.807454 -0.036847
C15   C     C_R   0.156447 0.497451 0.071306 0.029616
C16   C     C_3   0.112154 0.788583 0.189499 -0.351663
C17   C     C_R   0.216258 0.497233 0.143660 0.007381
C18   C     C_R   0.113720 0.445952 0.192632 -0.050693
C19   C     C_R   0.961324 0.385807 0.165758 -0.008455
C20   C     C_R   0.229116 0.615165 0.834475 -0.023666
C21   C     C_R   0.288229 0.614993 0.904638 -0.085109
C22   C     C_R   0.196608 0.555347 0.952282 0.015079
C23   C     C_3   0.457752 0.273738 0.313918 0.336016
C24   C     C_R   0.259471 0.549995 0.023068 0.019018
C25   C     C_R   0.424466 0.592926 0.046814 -0.099269
C26   C     C_R   0.379208 0.547492 0.166798 -0.031598
C27   C     C_R   0.482507 0.591602 0.116772 -0.091190
C28   C     C_3   0.232320 0.786831 0.618380 0.286263
C29   C     C_R   0.434094 0.552018 0.239341 -0.002348
C30   C     C_R   0.325930 0.510451 0.288464 -0.301180
C31   C     C_R   0.167758 0.455671 0.266557 0.026593
C32   C     C_R   0.763725 0.182873 0.529428 -0.277195
C33   C     C_R   0.429230 0.807069 0.469408 -0.284497
C34   C     C_3   0.405046 0.230790 0.234766 0.077174
C35   C     C_R   0.402764 0.984328 0.444366 -0.105455
C36   C     C_R   0.338503 0.875691 0.440219 -0.015053
C37   C     C_R   0.577969 0.848070 0.509066 0.064931
C38   C     C_R   0.642157 0.960343 0.516976 -0.063569
C39   C     C_R   0.553943 0.028429 0.482703 -0.060568
C40   C     C_3   0.243380 0.909160 0.633291 -0.329340
C41   C     C_R   0.617310 0.139554 0.489101 0.043237
C42   C     C_R   0.855344 0.116620 0.560291 -0.015777
C43   C     C_R   0.792547 0.006676 0.556527 -0.095503
C44   C     C_3   0.960754 0.212184 0.380778 0.293985
C45   C     C_3   0.066987 0.238073 0.735532 0.328810
C46   C     C_3   0.946215 0.089598 0.364424 -0.340898
C47   C     C_3   0.725682 0.706425 0.682866 0.343905
C48   C     C_3   0.732506 0.741029 0.765035 0.214291
C49   C     C_3   0.092145 0.214612 0.811754 -0.302647
C50   C     C_3   0.554919 0.179113 0.705340 0.452165
C51   C     C_3   0.590265 0.096675 0.752101 0.179188
C52   C     C_R   0.994228 0.445211 0.047918 0.003174
H1    H     H_    0.725218 0.864422 0.341072 0.079416
H2    H     H_    0.846815 0.685547 0.665324 -0.020861
H3    H     H_    0.628872 0.634147 0.668597 0.005022
H4    H     H_    0.529785 0.965100 0.287210 0.120640
H5    H     H_    0.751066 0.671934 0.792473 -0.052867
H6    H     H_    0.612423 0.765912 0.782013 0.080831
H7    H     H_    0.522365 0.786321 0.323681 -0.046109
H8    H     H_    0.489558 0.857453 0.209696 0.120745
H9    H     H_    0.351594 0.306095 0.341027 -0.045361
H10   H     H_    0.563942 0.340286 0.316738 0.056237
H11   H     H_    0.294048 0.167513 0.231375 0.098033
H12   H     H_    0.334805 0.943323 0.678306 0.088179
H13   H     H_    0.373798 0.297675 0.208102 0.009763
H14   H     H_    0.692234 0.937395 0.225446 0.165772
H15   H     H_    0.190172 0.866895 0.185430 0.130346
H16   H     H_    0.146213 0.315733 0.731010 0.086203
H17   H     H_    0.935436 0.246536 0.727310 -0.001486
H18   H     H_    0.046299 0.277119 0.851778 0.087376
H19   H     H_    0.023547 0.133688 0.816522 0.159368
H20   H     H_    0.225303 0.215349 0.824417 0.139958
H21   H     H_    0.673251 0.211880 0.683066 -0.103253
H22   H     H_    0.470353 0.137398 0.658895 -0.006081
H23   H     H_    0.283077 0.943713 0.584755 0.080344
H24   H     H_    0.646296 0.031283 0.718638 0.030974
H25   H     H_    0.047976 0.685652 0.268328 0.093481
H26   H     H_    0.472347 0.060881 0.773429 0.063176
H27   H     H_    0.826148 0.477458 0.654958 0.073912
H28   H     H_    0.581651 0.372677 0.868995 0.115935
H29   H     H_    0.884525 0.338077 0.198685 0.148867
H30   H     H_    0.305814 0.663368 0.801656 0.086755
H31   H     H_    0.610155 0.626028 0.130804 0.111180
H32   H     H_    0.368059 0.516961 0.344300 0.075945
H33   H     H_    0.676740 0.373602 0.988092 0.080249
H34   H     H_    0.120856 0.931568 0.648416 0.154107
H35   H     H_    0.783823 0.336957 0.080155 0.110917
H36   H     H_    0.406276 0.664470 0.920281 0.063807
H37   H     H_    0.260685 0.752147 0.275061 -0.077194
H38   H     H_    0.514104 0.626760 0.012016 0.074760
H39   H     H_    0.329634 0.033465 0.419239 0.102157
H40   H     H_    0.864769 0.958899 0.583236 0.108577
H41   H     H_    0.812338 0.268010 0.532832 0.062628
H42   H     H_    0.378360 0.722176 0.465160 0.070347
H43   H     H_    0.151719 0.723654 0.149294 0.070153
H44   H     H_    0.981081 0.794445 0.176756 0.154270
H45   H     H_    0.840702 0.235125 0.397292 0.003550
H46   H     H_    0.354499 0.765348 0.603734 -0.004244
H47   H     H_    0.140778 0.754839 0.572739 0.078047
H48   H     H_    0.964133 0.798447 0.786470 0.307728
H49   H     H_    0.714299 0.090997 0.839383 0.323231
H50   H     H_    0.054912 0.242614 0.425515 0.073636
H51   H     H_    0.853075 0.057071 0.319644 0.133372
H52   H     H_    0.907298 0.054172 0.412755 0.080347
H53   H     H_    0.067609 0.066164 0.348299 0.138788
O1    O     O_2   0.873090 0.425890 0.325140 -0.458281
O2    O     O_2   0.194834 0.121062 0.551254 -0.479960
O3    O     O_3   0.110295 0.152626 0.685182 -0.598573
O4    O     O_3   0.122420 0.434370 0.414380 -0.496841
O5    O     O_3   0.578370 0.633800 0.536380 -0.488478
O6    O     O_2   0.341510 0.231850 0.465510 -0.467669
O7    O     O_3   0.503116 0.189065 0.345989 -0.633165
O8    O     O_2   0.419819 0.457028 0.756951 -0.504955
O9    O     O_3   0.476571 0.258328 0.747274 -0.593907
O10   O     O_3   0.659500 0.627100 0.368810 -0.473497
O11   O     O_2   0.775441 0.545538 0.243482 -0.492174
O12   O     O_3   0.688784 0.792588 0.650469 -0.633919
O13   O     O_3   0.004323 0.253043 0.317765 -0.626677
O14   O     O_3   0.709473 0.742374 0.252790 -0.597055
O15   O     O_2   0.848200 0.768190 0.534530 -0.473671
O16   O     O_3   0.081160 0.685950 0.404810 -0.487998
O17   O     O_2   0.000970 0.879756 0.450208 -0.485227
O18   O     O_3   0.859040 0.828906 0.786548 -0.700202
O19   O     O_3   0.698920 0.147817 0.810217 -0.733183
O20   O     O_3   0.086322 0.847886 0.315802 -0.597682
O21   O     O_2   0.316610 0.574140 0.674900 -0.469350
O22   O     O_3   0.067290 0.565720 0.585630 -0.495653
O23   O     O_3   0.530210 0.372990 0.631200 -0.468509
O24   O     O_3   0.186125 0.747036 0.681543 -0.642722
O25   O     O_3   0.611340 0.366290 0.463630 -0.477606
O26   O     O_3   0.108550 0.314140 0.595200 -0.485501
P1    P     P_3+3 0.041040 0.394770 0.336330 0.983190
P2    P     P_3+3 0.672880 0.754030 0.556100 0.974623
P3    P     P_3+3 0.127438 0.823965 0.403273 0.948937
P4    P     P_3+3 0.148670 0.605320 0.663680 0.966492
P5    P     P_3+3 0.065771 0.175055 0.597623 0.951337
P6    P     P_3+3 0.644422 0.614181 0.275010 0.956301
P7    P     P_3+3 0.522402 0.230141 0.439969 0.943701
P8    P     P_3+3 0.546979 0.385577 0.724917 0.957731

loop_
_geom_bond_atom_site_label_1
_geom_bond_atom_site_label_2
_ccdc_geom_bond_type
O7    P7    S    
C12   O14   S    
O1    P1    D    
Ba2   O6    S    
C38   C39   A    
C48   H6    S    
C49   H20   S    
C3    C6    A    
C36   P3    S    
O3    P5    S    
C44   C46   S    
C32   H41   S    
C40   H23   S    
C37   P2    S    
C1    H8    S    
Ba2   O4    S    
Ba2   O26   S    
C28   C40   S    
C47   O12   S    
O11   P6    D    
C28   H46   S    
O2    P5    D    
C29   P6    S    
C26   C29   A    
C49   H19   S    
Ba1   O4    S    
C35   C36   A    
Ba2   O5    S    
C50   O9    S    
C44   O13   S    
O24   P4    S    
C34   H13   S    
C42   P5    S    
Ba2   O21   S    
C3    H33   S    
Ba1   Ba2   S    
H48   O18   S    
C23   H9    S    
C23   O7    S    
Ba1   O1    S    
C2    C19   A    
C13   C14   A    
C44   H50   S    
O5    P2    S    
C38   C43   A    
C33   H42   S    
C4    O20   S    
C27   H31   S    
Ba1   P2    S    
C6    C7    A    
C2    H35   S    
C10   C11   A    
C23   H10   S    
C39   C41   A    
C45   H17   S    
O10   P6    S    
C5    C52   A    
C1    H14   S    
C16   H43   S    
C30   C31   A    
C46   H53   S    
C17   C26   A    
Ba1   O25   S    
Ba2   O25   S    
O21   P4    D    
Ba2   P4    S    
C28   H47   S    
O16   P3    S    
C33   C37   A    
C21   C22   A    
C46   H52   S    
C49   H18   S    
C7    C8    A    
O26   P5    S    
C16   H44   S    
C41   P7    S    
C3    C5    A    
C18   C31   A    
O17   P3    D    
C42   C43   A    
C44   H45   S    
C25   H38   S    
O12   P2    S    
C19   H29   S    
C50   H22   S    
O20   P3    S    
Ba1   O15   S    
C26   C27   A    
C5    C9    A    
C34   H11   S    
C35   H39   S    
Ba2   O23   S    
C47   H3    S    
C47   C48   S    
C14   C20   A    
C10   P8    S    
O13   P1    S    
C32   C41   A    
O23   P8    S    
C15   C52   A    
C6    H28   S    
O8    P8    D    
C37   C38   A    
Ba1   O22   S    
C4    C16   S    
C11   C13   A    
C50   H21   S    
C11   H27   S    
O4    P1    S    
O22   P4    S    
C21   H36   S    
C51   H24   S    
C8    C14   A    
C48   O18   S    
C2    C52   A    
C33   C36   A    
C13   P4    S    
C15   C24   A    
C7    C10   A    
C8    C9    A    
C23   C34   S    
C50   C51   S    
C46   H51   S    
C22   C24   A    
C51   O19   S    
C9    C22   A    
O25   P7    S    
O15   P2    D    
C29   C30   A    
C1    C12   S    
C25   C27   A    
O9    P8    S    
C30   H32   S    
Ba1   O16   S    
O14   P6    S    
Ba1   P1    S    
C12   H1    S    
C47   H2    S    
C28   O24   S    
H49   O19   S    
C31   P1    S    
C4    H37   S    
C1    H4    S    
Ba2   O22   S    
C12   H7    S    
C15   C17   A    
Ba1   O10   S    
C40   H34   S    
C43   H40   S    
Ba1   O5    S    
C20   C21   A    
C35   C39   A    
C45   C49   S    
C45   O3    S    
C17   C18   A    
Br1   C34   S    
C40   H12   S    
C20   H30   S    
C24   C25   A    
C16   H15   S    
C48   H5    S    
C45   H16   S    
O6    P7    D    
C18   C19   A    
C51   H26   S    
C4    H25   S    
C32   C42   A    
