data_mof_unit_1599.cif
_audit_creation_date              2013-03-05T16:19:44-0500
_audit_creation_method            fapswitch 2.2
_symmetry_space_group_name_H-M    P1
_symmetry_Int_Tables_number       1
_space_group_crystal_system       triclinic
_cell_length_a                    10.64263
_cell_length_b                    9.680526
_cell_length_c                    27.722754
_cell_angle_alpha                 89.967483
_cell_angle_beta                  90.005395
_cell_angle_gamma                 90.155471
_cell_volume                      2856.16057519

loop_
_atom_site_label
_atom_site_type_symbol
_atom_site_description
_atom_site_fract_x
_atom_site_fract_y
_atom_site_fract_z
_atom_type_partial_charge
O1    O     O_R   0.314910 0.616040 0.499990 -0.628015
O2    O     O_R   0.314910 0.383960 0.499990 -0.641296
C1    C     C_R   0.257712 0.499576 0.500699 0.886270
O3    O     O_R   0.500140 0.616020 0.428740 -0.577173
O4    O     O_R   0.500140 0.383980 0.428740 -0.624696
C2    C     C_R   0.498688 0.500059 0.405927 1.000729
Zn1   Zn    Zn3+2 0.500150 0.654960 0.499980 0.962203
Zn2   Zn    Zn3+2 0.500150 0.345040 0.499980 0.931985
O5    O     O_R   0.685320 0.616040 0.499970 -0.618632
O6    O     O_R   0.685320 0.383960 0.499970 -0.616126
O7    O     O_R   0.500090 0.616050 0.571230 -0.639166
O8    O     O_R   0.500090 0.383950 0.571230 -0.637423
C3    C     C_R   0.742675 0.499893 0.499194 0.929202
C4    C     C_R   0.500602 0.499928 0.594049 0.861974
C5    C     C_R   0.420200 0.448982 0.178259 0.523063
O9    O     O_2   0.315654 0.417395 0.203619 -0.520878
N1    N     N_R   0.527897 0.485261 0.201847 -0.353336
C6    C     C_R   0.636214 0.515744 0.177720 0.530335
C7    C     C_R   0.569976 0.382743 0.280377 -0.062153
C8    C     C_R   0.558631 0.385626 0.330186 -0.155993
C9    C     C_R   0.456827 0.611030 0.325413 0.303343
C10   C     C_R   0.470615 0.607306 0.275364 -0.135428
C11   C     C_R   0.525754 0.493262 0.253079 0.237269
C12   C     C_R   0.527737 0.478165 0.101948 -0.048864
C13   C     C_R   0.417968 0.444951 0.127891 -0.029178
C14   C     C_R   0.308635 0.408559 0.103215 -0.123470
C15   C     C_R   0.638277 0.512633 0.127242 -0.034843
C16   C     C_R   0.502760 0.499235 0.353216 -0.177732
H1    H     H_    0.433936 0.690499 0.253370 0.178534
H2    H     H_    0.223902 0.379580 0.122442 0.197105
C17   C     C_R   0.503741 0.499398 0.646710 -0.037692
C18   C     C_R   0.409542 0.458019 0.975098 0.047436
C19   C     C_R   0.638159 0.504113 0.974056 0.046561
C20   C     C_R   0.522713 0.483030 0.949352 0.071161
C21   C     C_R   0.296001 0.445838 0.948847 -0.214200
C22   C     C_R   0.294579 0.451967 0.898927 -0.136760
C23   C     C_R   0.405923 0.471386 0.873285 -0.021187
C24   C     C_R   0.520287 0.487424 0.898275 -0.051822
C25   C     C_R   0.632139 0.508074 0.872057 -0.021550
C26   C     C_R   0.627506 0.511949 0.821633 0.504039
N2    N     N_R   0.515371 0.495870 0.798389 -0.359000
C27   C     C_R   0.405588 0.476128 0.822889 0.503743
C28   C     C_R   0.517178 0.623044 0.722370 -0.102052
C29   C     C_R   0.512504 0.624302 0.672269 -0.225810
C30   C     C_R   0.499644 0.373517 0.671881 -0.223066
C31   C     C_R   0.503992 0.372701 0.721925 -0.104358
C32   C     C_R   0.512815 0.497299 0.747082 0.327094
O10   O     O_2   0.296662 0.461331 0.798431 -0.553263
C33   C     C_R   0.412916 0.448273 0.026040 0.045183
C34   C     C_R   0.526629 0.477859 0.050844 0.074514
C35   C     C_R   0.638915 0.508086 0.025180 0.045280
C36   C     C_R   0.306042 0.409501 0.053266 -0.214230
H3    H     H_    0.516113 0.722617 0.653644 0.149219
H4    H     H_    0.523635 0.719407 0.742053 0.135648
H5    H     H_    0.205234 0.441744 0.880494 0.190380
H6    H     H_    0.205457 0.434702 0.965743 0.139759
H7    H     H_    0.218833 0.376876 0.037149 0.143450
O11   O     O_2   0.740865 0.550001 0.202551 -0.507077
C37   C     C_R   0.747426 0.545218 0.101783 -0.125041
H8    H     H_    0.594513 0.299103 0.350745 0.200830
H9    H     H_    0.611587 0.293970 0.262869 0.163060
H10   H     H_    0.833197 0.573462 0.120450 0.196263
C38   C     C_R   0.749191 0.520591 0.946523 -0.213875
C39   C     C_R   0.745890 0.522931 0.896526 -0.135600
O12   O     O_2   0.733931 0.530837 0.795937 -0.553518
C40   C     C_R   0.747988 0.543269 0.051759 -0.212017
H11   H     H_    0.841183 0.529606 0.962377 0.139671
H12   H     H_    0.493049 0.275846 0.653007 0.149054
H13   H     H_    0.833421 0.536441 0.877094 0.191317
H14   H     H_    0.500506 0.275509 0.741257 0.134846
H15   H     H_    0.835214 0.573437 0.035104 0.142537
C41   C     C_3   0.071188 0.590452 0.541105 -0.381040
C42   C     C_3   0.071385 0.348956 0.506248 -0.408212
H16   H     H_    0.103283 0.699185 0.536381 0.202640
H17   H     H_    0.105602 0.281515 0.476480 0.201023
H18   H     H_    0.107368 0.553438 0.576506 0.167967
H19   H     H_    0.105484 0.304398 0.540906 0.183978
C43   C     C_3   0.927486 0.586281 0.541168 -0.423745
C44   C     C_3   0.928755 0.349049 0.505949 -0.411837
H20   H     H_    0.894419 0.539505 0.575650 0.170817
H21   H     H_    0.894164 0.308095 0.541118 0.181393
H22   H     H_    0.889705 0.693087 0.540779 0.221364
H23   H     H_    0.895082 0.276081 0.477872 0.233841
H24   H     H_    0.116843 0.660625 0.444652 0.238081
H25   H     H_    0.117779 0.490014 0.421601 0.195046
C45   C     C_3   0.077092 0.555628 0.450632 -0.419625
C46   C     C_3   0.121682 0.498596 0.499846 0.051027
C47   C     C_3   0.879250 0.499004 0.497743 -0.019764
C48   C     C_3   0.930890 0.557424 0.447849 0.502820
C49   C     C_3   0.374207 0.081049 0.486506 -0.235126
C50   C     C_3   0.374365 0.918405 0.486282 -0.215573
H26   H     H_    0.344266 0.120304 0.450582 0.174450
H27   H     H_    0.345311 0.880092 0.450160 0.214134
H28   H     H_    0.303163 0.118070 0.512891 0.151228
H29   H     H_    0.302742 0.880155 0.512306 0.152334
H30   H     H_    0.566709 0.119328 0.426562 0.178274
H31   H     H_    0.569205 0.880001 0.426859 0.208639
C51   C     C_3   0.590449 0.081779 0.463356 -0.211872
C52   C     C_3   0.591058 0.919058 0.463634 -0.191997
C53   C     C_3   0.534626 0.081256 0.546846 -0.241685
C54   C     C_3   0.533974 0.918742 0.546919 -0.254949
N3    N     N_3   0.499750 0.138610 0.498940 -0.053921
N4    N     N_3   0.499750 0.861390 0.498940 -0.066195
H32   H     H_    0.629179 0.120011 0.557477 0.150499
H33   H     H_    0.627959 0.879680 0.557911 0.153940
H34   H     H_    0.467808 0.118951 0.574690 0.151467
H35   H     H_    0.466242 0.881315 0.574573 0.153035
H36   H     H_    0.686543 0.120909 0.471346 0.175695
H37   H     H_    0.687007 0.882307 0.472548 0.213501
N5    N     N_R   0.390006 0.724122 0.346793 0.210973
O13   O     O_R   0.406446 0.848989 0.330535 -0.381899
O14   O     O_R   0.297071 0.699758 0.376092 -0.410403
N6    N     N_R   0.886908 0.700371 0.439559 0.196578
O15   O     O_R   0.933672 0.803823 0.463684 -0.458887
O16   O     O_R   0.803827 0.726044 0.406263 -0.344214
N7    N     N_R   0.891888 0.471801 0.406025 0.191662
O17   O     O_R   0.938435 0.498918 0.363599 -0.297404
O18   O     O_R   0.798098 0.385651 0.408491 -0.444601

loop_
_geom_bond_atom_site_label_1
_geom_bond_atom_site_label_2
_geom_bond_distance
_ccdc_geom_bond_type
C54   H35   1.112222 S    
C52   N4    1.486795 S    
C10   H1    1.083446 S    
N2    C27   1.364466 A    
C21   C22   1.385249 A    
C12   C15   1.408908 A    
C4    C17   1.460279 S    
C41   H18   1.113592 S    
C9    N5    1.435500 S    
H25   C45   1.113911 S    
Zn1   O7    2.010633 S    
C25   C39   1.394783 A    
N1    C11   1.422618 S    
C22   C23   1.394148 A    
H24   C45   1.112236 S    
C37   C40   1.386942 A    
O4    C2    1.289279 A    
O7    C4    1.289619 A    
C43   H20   1.114205 S    
C5    C13   1.397102 A    
C5    O9    1.350494 S    
C52   H37   1.110044 S    
C53   H32   1.112764 S    
C51   H36   1.111937 S    
N7    O17   1.302573 A    
N1    C6    1.364348 A    
C23   C27   1.397845 A    
O5    C3    1.281020 A    
N5    O13   1.301207 A    
C49   N3    1.486805 S    
C41   C43   1.529790 S    
O1    Zn1   2.006116 S    
C29   H3    1.083120 S    
C6    O11   1.349971 S    
C2    C16   1.461948 S    
C7    C8    1.386437 A    
H30   C51   1.111951 S    
C8    H8    1.083219 S    
C19   C38   1.415431 A    
C48   N7    1.484213 S    
C54   N4    1.486514 S    
Zn1   N4    1.998560 S    
C9    C10   1.395728 A    
C12   C34   1.416793 A    
C42   H17   1.114389 S    
O3    Zn1   2.010832 S    
C44   C47   1.562158 S    
H31   C52   1.111931 S    
C49   H28   1.112235 S    
C48   N6    1.479859 S    
N2    C32   1.422689 S    
C38   H11   1.076471 S    
C54   H33   1.112746 S    
C17   C29   1.404685 A    
C1    C46   1.447918 S    
C18   C21   1.415228 A    
C12   C13   1.408276 A    
C41   H16   1.113408 S    
C25   C26   1.399253 A    
C44   H21   1.114511 S    
C45   C46   1.546576 S    
C8    C16   1.405398 A    
C34   C35   1.420550 A    
C13   C14   1.394236 A    
C51   N3    1.487037 S    
O6    C3    1.276266 A    
O1    C1    1.279958 A    
C35   C40   1.415786 A    
C18   C20   1.420254 A    
C7    C11   1.393060 A    
C28   C29   1.389868 A    
C23   C24   1.408691 A    
C14   C36   1.385038 A    
C50   H27   1.111625 S    
C43   H22   1.110435 S    
C28   H4    1.082999 S    
C49   H26   1.112623 S    
C40   H15   1.076428 S    
Zn2   O8    2.011053 S    
C33   C36   1.414861 A    
C30   H12   1.083004 S    
C53   N3    1.486628 S    
C19   C20   1.420888 A    
C42   C44   1.517974 S    
C27   O10   1.350277 S    
C39   H13   1.083725 S    
O3    C2    1.288829 A    
C26   N2    1.364788 A    
C9    C16   1.416400 A    
O8    C4    1.288997 A    
C14   H2    1.083776 S    
C26   O12   1.350053 S    
C42   C46   1.553055 S    
C41   C46   1.546510 S    
N6    O15   1.302283 A    
C43   C47   1.557334 S    
Zn1   O5    2.007392 S    
C31   C32   1.396566 A    
C37   H10   1.083755 S    
C21   H6    1.076604 S    
C20   C24   1.416837 A    
O2    Zn2   2.008124 S    
C6    C15   1.399903 A    
C50   N4    1.487335 S    
C45   C48   1.558019 S    
O4    Zn2   2.010412 S    
C5    N1    1.364791 A    
C19   C35   1.417841 A    
C53   H34   1.111990 S    
O2    C1    1.275669 A    
C22   H5    1.083755 S    
C15   C37   1.394622 A    
C44   H23   1.110161 S    
C49   C50   1.574501 S    
C24   C25   1.408552 A    
C28   C32   1.397143 A    
C7    H9    1.082957 S    
C3    C47   1.454132 S    
C53   C54   1.573220 S    
C51   C52   1.575273 S    
N7    O18   1.300765 A    
N5    O14   1.300883 A    
C18   C33   1.415792 A    
C31   H14   1.083085 S    
C36   H7    1.076699 S    
C50   H29   1.112176 S    
C38   C39   1.386676 A    
C30   C31   1.388132 A    
C47   C48   1.591438 S    
Zn2   O6    2.005384 S    
C33   C34   1.420454 A    
C17   C30   1.404487 A    
C42   H19   1.114120 S    
C10   C11   1.396152 A    
Zn2   N3    1.998569 S    
N6    O16   1.302455 A    
