data_mof_unit_3649.cif
_audit_creation_date              2013-03-05T16:27:59-0500
_audit_creation_method            fapswitch 2.2
_symmetry_space_group_name_H-M    P1
_symmetry_Int_Tables_number       1
_space_group_crystal_system       triclinic
_cell_length_a                    18.29151
_cell_length_b                    18.216656
_cell_length_c                    18.257618
_cell_angle_alpha                 119.820727
_cell_angle_beta                  90.381063
_cell_angle_gamma                 119.814445
_cell_volume                      4311.10132811

loop_
_atom_site_label
_atom_site_type_symbol
_atom_site_description
_atom_site_fract_x
_atom_site_fract_y
_atom_site_fract_z
_atom_type_partial_charge
Zn1   Zn    Zn3+2 0.457170 0.413230 0.543930 1.133246
Zn2   Zn    Zn3+2 0.456070 0.586770 0.542830 1.179781
Zn3   Zn    Zn3+2 0.456070 0.413270 0.369320 1.103766
Zn4   Zn    Zn3+2 0.630690 0.586730 0.543930 1.114983
O1    O     O_3   0.500000 0.500000 0.500000 -0.577957
O2    O     O_R   0.676910 0.731570 0.616180 -0.608921
O3    O     O_R   0.384580 0.268400 0.445300 -0.567121
O4    O     O_R   0.383810 0.560730 0.615410 -0.562979
O5    O     O_R   0.554700 0.439300 0.323100 -0.585029
O6    O     O_R   0.382730 0.560770 0.443450 -0.563596
O7    O     O_R   0.678000 0.560660 0.617260 -0.626743
O8    O     O_R   0.382730 0.439340 0.322020 -0.632343
O9    O     O_R   0.556550 0.439230 0.617260 -0.596266
O10   O     O_R   0.384580 0.439270 0.616180 -0.576665
O11   O     O_R   0.676910 0.560700 0.445300 -0.600241
O12   O     O_R   0.554700 0.731600 0.615410 -0.563103
O13   O     O_R   0.383810 0.268430 0.323100 -0.582596
C1    C     C_R   0.639655 0.779670 0.636338 1.019044
C2    C     C_R   0.359640 0.219918 0.360131 0.900972
C3    C     C_R   0.357636 0.497677 0.637713 0.963274
C4    C     C_R   0.639692 0.497161 0.359655 0.919817
C5    C     C_R   0.358645 0.499898 0.358836 0.860635
C6    C     C_R   0.641518 0.499816 0.641424 0.965979
C7    C     C_3   0.802231 0.570320 0.732682 -0.255514
C8    C     C_3   0.801425 0.475282 0.707294 0.290843
H1    H     H_    0.845093 0.628265 0.719026 0.247300
C9    C     C_3   0.801093 0.499228 0.800603 -0.412669
C10   C     C_3   0.800469 0.592881 0.826027 0.560094
C11   C     C_3   0.697725 0.523443 0.790944 0.575260
C12   C     C_3   0.698139 0.429582 0.765029 0.559309
C13   C     C_3   0.697912 0.403898 0.670475 -0.400206
C14   C     C_3   0.698727 0.499410 0.697852 -0.323037
H2    H     H_    0.655397 0.326031 0.606006 0.224830
C15   C     C_R   0.292116 0.052148 0.338508 -0.026502
C16   C     C_R   0.296350 0.108308 0.305562 -0.293427
C17   C     C_R   0.232550 0.056140 0.222973 0.565298
C18   C     C_R   0.173698 0.947222 0.168752 0.222866
C19   C     C_R   0.184172 0.891521 0.196311 -0.314051
C20   C     C_R   0.238649 0.945724 0.283410 -0.045384
C21   C     C_3   0.305729 0.936194 0.316964 0.474685
C22   C     C_3   0.364970 0.054342 0.380071 0.182298
H3    H     H_    0.332890 0.903154 0.265364 0.041479
H4    H     H_    0.427933 0.090948 0.366512 0.041098
C23   C     C_R   0.785346 0.571503 0.338940 -0.086332
C24   C     C_R   0.695338 0.488832 0.303551 -0.192959
C25   C     C_R   0.663983 0.398704 0.215659 0.430247
C26   C     C_R   0.719068 0.403694 0.162503 -0.204322
H5    H     H_    0.693947 0.337815 0.093748 0.220169
C27   C     C_R   0.805790 0.493644 0.197069 -0.118400
C28   C     C_R   0.840826 0.572511 0.288485 -0.006584
C29   C     C_3   0.895875 0.688203 0.338561 0.031629
C30   C     C_3   0.832655 0.686483 0.393387 0.858906
H6    H     H_    0.892603 0.713534 0.295099 0.111184
C31   C     C_R   0.742315 0.945783 0.776370 -0.011795
C32   C     C_R   0.694262 0.891452 0.686912 -0.291326
C33   C     C_R   0.693756 0.946030 0.651681 0.301177
C34   C     C_R   0.750989 0.057465 0.708024 0.313961
C35   C     C_R   0.803767 0.108626 0.797249 -0.269878
C36   C     C_R   0.795871 0.051836 0.830045 -0.023749
C37   C     C_3   0.866941 0.057850 0.878564 0.185508
C38   C     C_3   0.807290 0.938544 0.817780 0.182639
H7    H     H_    0.930049 0.091040 0.864062 0.110078
H8    H     H_    0.837515 0.906531 0.769541 0.113248
C39   C     C_R   0.273220 0.562406 0.342063 -0.089432
C40   C     C_R   0.308979 0.505710 0.304053 -0.045449
C41   C     C_R   0.301556 0.460998 0.213337 -0.125406
H9    H     H_    0.333225 0.421775 0.183211 0.199766
C42   C     C_R   0.248597 0.461892 0.159544 -0.145750
H10   H     H_    0.239567 0.422590 0.088639 0.191262
C43   C     C_R   0.204036 0.508409 0.196940 0.023502
C44   C     C_R   0.222889 0.565511 0.289421 -0.125239
C45   C     C_3   0.162358 0.568694 0.343838 0.414643
C46   C     C_3   0.217369 0.563553 0.402118 0.831001
H11   H     H_    0.168457 0.642827 0.378584 0.174336
C47   C     C_R   0.285340 0.572233 0.732665 -0.146112
C48   C     C_R   0.292430 0.488957 0.683963 -0.211511
C49   C     C_R   0.231097 0.396442 0.677682 0.217581
C50   C     C_R   0.180808 0.399942 0.736154 0.606816
C51   C     C_R   0.186476 0.491295 0.795053 -0.222413
C52   C     C_R   0.232541 0.572072 0.785649 -0.137996
C53   C     C_3   0.291210 0.686492 0.852669 1.069807
C54   C     C_3   0.350583 0.688748 0.793289 0.434783
Zn5   Zn    Zn3+2 0.042790 0.586680 0.956030 1.156869
Zn6   Zn    Zn3+2 0.043880 0.586640 0.130630 1.085023
Zn7   Zn    Zn3+2 0.043880 0.413140 0.957130 1.099468
Zn8   Zn    Zn3+2 0.869270 0.413190 0.956030 1.115317
O14   O     O_3   0.999960 0.499910 0.999960 -0.574237
O15   O     O_R   0.823040 0.439210 0.054650 -0.633818
O16   O     O_R   0.115380 0.560640 0.883770 -0.590894
O17   O     O_R   0.116150 0.731480 0.176860 -0.616807
O18   O     O_R   0.945260 0.268310 0.884540 -0.612202
O19   O     O_R   0.117230 0.560570 0.177940 -0.602774
O20   O     O_R   0.821960 0.439250 0.882690 -0.594565
O21   O     O_R   0.117230 0.439140 0.056500 -0.642122
O22   O     O_R   0.943400 0.560680 0.882690 -0.562985
O23   O     O_R   0.115380 0.731510 0.054650 -0.572894
O24   O     O_R   0.823040 0.268340 0.883770 -0.589812
O25   O     O_R   0.945260 0.560610 0.176860 -0.592659
O26   O     O_R   0.116150 0.439180 0.884540 -0.593369
C55   C     C_R   0.860236 0.499901 0.140231 0.849557
C56   C     C_R   0.138999 0.498917 0.858933 0.939487
C57   C     C_R   0.137465 0.779864 0.139818 0.882261
C58   C     C_R   0.860088 0.220115 0.859839 0.980561
C59   C     C_R   0.141864 0.500632 0.141202 0.897263
C60   C     C_R   0.858378 0.499860 0.858254 0.976054
S1    S     S_3+6 0.870616 0.443088 0.650381 0.130062
O27   O     O_2   0.967262 0.529584 0.706394 -0.159333
O28   O     O_2   0.851193 0.345130 0.634874 -0.231660
O29   O     O_3   0.850434 0.426322 0.551402 -0.442572
H12   H     H_    0.785371 0.371846 0.519723 0.353450
S2    S     S_3+6 0.381531 0.104077 0.496364 0.179513
O30   O     O_2   0.293356 0.070147 0.512295 -0.128031
O31   O     O_2   0.423876 0.063955 0.522269 -0.175744
O32   O     O_3   0.449806 0.233927 0.559519 -0.516502
H13   H     H_    0.459834 0.255289 0.622296 0.412413
S3    S     S_3+6 0.558599 0.279032 0.169262 0.092458
O33   O     O_2   0.486411 0.285241 0.139130 -0.219916
O34   O     O_2   0.556909 0.192526 0.090014 -0.224622
O35   O     O_3   0.539571 0.253943 0.246882 -0.573125
H14   H     H_    0.478685 0.188747 0.217358 0.385073
S4    S     S_3+6 0.008403 0.750000 0.402745 0.182346
O36   O     O_2   0.044358 0.857643 0.482341 -0.145327
O37   O     O_2   0.010223 0.689314 0.435154 -0.149408
O38   O     O_3   0.074028 0.757540 0.339212 -0.437819
H15   H     H_    0.079244 0.809011 0.330145 0.372066
F1    F     F_    0.871372 0.732919 0.483301 -0.556247
S5    S     S_3+6 0.767721 0.728044 0.376062 0.063914
O39   O     O_2   0.706537 0.721813 0.430546 -0.280688
O40   O     O_2   0.829638 0.838202 0.405457 -0.191819
O41   O     O_3   0.706710 0.651969 0.266789 -0.597285
H16   H     H_    0.668807 0.675296 0.263663 0.408908
S6    S     S_3+6 0.629407 0.877204 0.537155 0.132831
O42   O     O_2   0.578963 0.920670 0.533572 -0.179317
O43   O     O_2   0.692660 0.892180 0.485531 -0.173609
O44   O     O_3   0.554987 0.749023 0.484629 -0.561496
H17   H     H_    0.527856 0.722111 0.422170 0.370035
S7    S     S_3+6 0.759215 0.134855 0.670073 0.140429
O45   O     O_2   0.847840 0.239088 0.721892 -0.318581
O46   O     O_2   0.749801 0.085178 0.572698 -0.144950
O47   O     O_3   0.677260 0.152443 0.686569 -0.449981
H18   H     H_    0.690781 0.204925 0.675180 0.404523
S8    S     S_3+6 0.885171 0.127353 0.996958 0.131831
O48   O     O_2   0.918152 0.091176 0.038393 -0.159347
O49   O     O_2   0.955306 0.240376 0.039453 -0.295306
O50   O     O_3   0.790717 0.112885 0.016403 -0.462347
H19   H     H_    0.808035 0.156968 0.082549 0.401782
S9    S     S_3+6 0.758281 0.867204 0.865536 0.149419
O51   O     O_2   0.694402 0.754291 0.790632 -0.297772
O52   O     O_2   0.830527 0.880760 0.921498 -0.159618
O53   O     O_3   0.701781 0.905997 0.928424 -0.407751
H20   H     H_    0.682452 0.866953 0.955620 0.402408
F2    F     F_    0.074914 0.481549 0.294755 -0.567793
F3    F     F_    0.265279 0.653473 0.488237 -0.568351
F4    F     F_    0.852473 0.689750 0.906393 -0.516745
S10   S     S_3+6 0.156172 0.448663 0.400315 0.138756
O54   O     O_2   0.215803 0.454215 0.462720 -0.314430
O55   O     O_2   0.078041 0.441061 0.430682 -0.151724
O56   O     O_3   0.118555 0.343361 0.295622 -0.511222
H21   H     H_    0.088699 0.284343 0.300801 0.404957
S11   S     S_3+6 0.213717 0.275867 0.597325 0.163224
O57   O     O_2   0.286249 0.272992 0.632149 -0.161038
O58   O     O_2   0.124601 0.186492 0.580542 -0.139509
O59   O     O_3   0.217086 0.262019 0.499420 -0.532374
H22   H     H_    0.172114 0.271473 0.483288 0.359613
F5    F     F_    0.127633 0.315335 0.736665 -0.564603
F6    F     F_    0.247176 0.731480 0.857039 -0.565834
F7    F     F_    0.329852 0.715002 0.936053 -0.623131
S12   S     S_3+6 0.350222 0.751008 0.741570 0.202992
O60   O     O_2   0.256649 0.694184 0.682864 -0.127675
O61   O     O_2   0.382695 0.860508 0.813462 -0.194162
O62   O     O_3   0.416621 0.752573 0.678336 -0.427092
H23   H     H_    0.474342 0.821595 0.717053 0.386912
S13   S     S_3+6 0.461494 0.735275 0.847526 0.083422
O63   O     O_2   0.514591 0.733310 0.785002 -0.297234
O64   O     O_2   0.507907 0.844641 0.929137 -0.183762
O65   O     O_3   0.454930 0.660073 0.878733 -0.526723
H24   H     H_    0.517774 0.686400 0.902961 0.407139
F8    F     F_    0.643478 0.548493 0.833853 -0.563637
F9    F     F_    0.644534 0.357861 0.782408 -0.557283
F10   F     F_    0.228797 0.111109 0.194975 -0.578622
S14   S     S_3+6 0.088393 0.884228 0.069188 0.177912
O66   O     O_2   0.003557 0.795234 0.058705 -0.224800
O67   O     O_2   0.069944 0.957209 0.072121 -0.128543
O68   O     O_3   0.120232 0.838496 0.980069 -0.422707
H25   H     H_    0.178504 0.899566 0.993395 0.382211
F11   F     F_    0.273654 0.886314 0.358797 -0.534245

loop_
_geom_bond_atom_site_label_1
_geom_bond_atom_site_label_2
_geom_bond_distance
_ccdc_geom_bond_type
C8    C13   1.547012 S    
Zn5   O14   1.947670 S    
C32   C33   1.430889 A    
C21   C22   1.527055 S    
O23   C57   1.277713 A    
S10   O55   1.503012 D    
C41   C42   1.386419 A    
O59   H22   0.990568 S    
C17   F10   1.358574 S    
Zn6   O14   1.948536 S    
O62   H23   0.990643 S    
S5    O40   1.502800 D    
O32   H13   0.990639 S    
Zn7   O18   1.931132 S    
O44   H17   0.990728 S    
C26   C27   1.404659 A    
C54   S12   1.802919 S    
C49   C50   1.411947 A    
O6    C5    1.269516 A    
S7    O46   1.500030 D    
C3    C48   1.455774 S    
O4    C3    1.278785 A    
Zn7   O26   1.937526 S    
C9    C10   1.535580 S    
C10   C11   1.535111 S    
S9    O52   1.502625 D    
C7    H1    1.110171 S    
C11   C14   1.532679 S    
C12   C13   1.547191 S    
C52   C53   1.488311 S    
Zn8   O15   1.936950 S    
S13   O65   1.682080 S    
C21   F11   1.385377 S    
S1    O27   1.502398 D    
C9    C60   1.472165 S    
O8    C5    1.269882 A    
O68   H25   0.990537 S    
O9    C6    1.276387 A    
C37   H7    1.112389 S    
C15   C16   1.395817 A    
C39   C44   1.366972 A    
O7    C6    1.274064 A    
C38   H8    1.112517 S    
Zn8   O24   1.929329 S    
O17   C57   1.280968 A    
S4    O38   1.678787 S    
Zn3   O8    1.948575 S    
O22   C60   1.277084 A    
C37   S8    1.798715 S    
C31   C32   1.388488 A    
S12   O62   1.681009 S    
S9    O51   1.502497 D    
S6    O42   1.503278 D    
C45   F2    1.386606 S    
C53   F6    1.385270 S    
C13   H2    1.110245 S    
O65   H24   0.990511 S    
C43   C44   1.393058 A    
C11   C12   1.534870 S    
Zn2   O12   1.931179 S    
C47   C52   1.371465 A    
O20   C60   1.274495 A    
C23   C30   1.496504 S    
S12   O61   1.503997 D    
C41   H9    1.083312 S    
C18   S14   1.778495 S    
C36   C37   1.494394 S    
Zn1   O3    1.930283 S    
C9    C12   1.538251 S    
C10   F4    1.381597 S    
C22   H4    1.112030 S    
S8    O50   1.681929 S    
C15   C22   1.502244 S    
Zn6   O17   1.929636 S    
O2    C1    1.282155 A    
C30   S5    1.792044 S    
C8    S1    1.781819 S    
O50   H19   0.990499 S    
C4    C24   1.456414 S    
C31   C36   1.369192 A    
S13   O64   1.502972 D    
Zn5   O16   1.937973 S    
S7    O47   1.681736 S    
Zn7   O14   1.948618 S    
C15   C20   1.374345 A    
S11   O59   1.682582 S    
O10   C3    1.279636 A    
S9    O53   1.679524 S    
O47   H18   0.990798 S    
C45   H11   1.111658 S    
S14   O67   1.503273 D    
C20   C21   1.489463 S    
C30   F1    1.385534 S    
C50   C51   1.408416 A    
C42   H10   1.083286 S    
C35   C36   1.385025 A    
S13   O63   1.502116 D    
C53   C54   1.540163 S    
C29   C30   1.533211 S    
C37   C38   1.540316 S    
C29   H6    1.112291 S    
C16   C17   1.409705 A    
S11   O58   1.503291 D    
S14   O66   1.502905 D    
C47   C48   1.401562 A    
C7    C14   1.546770 S    
C5    C40   1.423309 S    
C18   C19   1.421011 A    
Zn3   O5    1.938883 S    
Zn8   O20   1.947433 S    
Zn7   O21   1.948608 S    
C26   H5    1.082973 S    
C54   S13   1.800938 S    
O11   C4    1.284703 A    
C39   C46   1.503204 S    
Zn5   O22   1.950131 S    
C46   S10   1.798821 S    
C28   C29   1.500857 S    
C53   F7    1.386095 S    
C34   S7    1.803397 S    
S2    O31   1.503239 D    
C33   S6    1.794974 S    
C7    C8    1.545563 S    
Zn4   O7    1.947435 S    
S4    O36   1.503411 D    
O24   C58   1.279083 A    
C1    C32   1.446365 S    
S6    O43   1.502606 D    
S12   O60   1.503404 D    
O26   C56   1.278191 A    
C40   C41   1.403692 A    
O25   C55   1.276439 A    
C11   F8    1.382597 S    
O56   H21   0.990453 S    
C29   S4    1.796931 S    
S8    O49   1.502779 D    
Zn4   O2    1.929226 S    
Zn1   O9    1.949884 S    
C33   C34   1.438942 A    
S5    O39   1.501902 D    
O15   C55   1.283126 A    
Zn1   O1    1.947670 S    
C23   C24   1.395930 A    
S14   O68   1.681527 S    
C23   C28   1.374591 A    
C25   C26   1.405354 A    
C17   C18   1.408531 A    
C50   F5    1.358429 S    
S2    O30   1.503882 D    
O16   C56   1.278704 A    
Zn8   O14   1.952583 S    
C13   C14   1.544814 S    
Zn2   O4    1.937275 S    
C7    C10   1.546508 S    
O18   C58   1.279875 A    
C45   C46   1.527103 S    
Zn3   O1    1.948685 S    
O35   H14   0.990684 S    
C47   C54   1.510455 S    
Zn1   O10   1.937872 S    
C31   C38   1.498173 S    
C8    C9    1.535012 S    
S7    O45   1.503489 D    
O3    C2    1.276766 A    
S3    O35   1.682531 S    
C25   S3    1.774468 S    
Zn6   O25   1.938835 S    
S11   O57   1.502723 D    
Zn4   O11   1.936992 S    
O41   H16   0.990466 S    
C38   S9    1.797679 S    
S5    O41   1.681940 S    
C44   C45   1.495842 S    
C19   C57   1.450762 S    
C2    C16   1.447771 S    
O29   H12   0.990585 S    
C6    C14   1.468807 S    
C27   C55   1.449194 S    
C48   C49   1.427585 A    
O5    C4    1.276881 A    
C34   C35   1.424329 A    
C19   C20   1.391258 A    
C12   F9    1.382621 S    
S1    O28   1.502151 D    
S6    O44   1.679225 S    
Zn5   O23   1.930241 S    
C39   C40   1.393232 A    
C21   H3    1.111870 S    
O13   C2    1.281901 A    
S3    O34   1.503655 D    
S3    O33   1.503235 D    
Zn3   O13   1.929680 S    
S2    O32   1.677825 S    
C43   C59   1.424772 S    
S4    O37   1.503406 D    
O19   C59   1.268842 A    
C49   S11   1.781112 S    
O21   C59   1.270939 A    
C51   C52   1.387444 A    
Zn2   O1    1.948764 S    
C24   C25   1.425016 A    
Zn4   O1    1.952581 S    
O12   C1    1.278197 A    
C27   C28   1.394924 A    
C22   S2    1.796121 S    
C46   F3    1.384212 S    
S10   O54   1.502431 D    
S8    O48   1.501883 D    
C42   C43   1.402632 A    
O53   H20   0.990442 S    
C51   C56   1.451208 S    
C35   C58   1.444810 S    
Zn6   O19   1.948822 S    
O38   H15   0.990600 S    
S10   O56   1.682272 S    
S1    O29   1.680869 S    
Zn2   O6    1.948650 S    
