data_mof_unit_4119.cif
_audit_creation_date              2012-12-10T18:57:05-0500
_audit_creation_method            fapswitch 2.2
_symmetry_space_group_name_H-M    P1
_symmetry_Int_Tables_number       1
_space_group_crystal_system       triclinic
_cell_length_a                    10.686095
_cell_length_b                    9.834147
_cell_length_c                    10.678486
_cell_angle_alpha                 89.952023
_cell_angle_beta                  89.769108
_cell_angle_gamma                 89.791448
_cell_volume                      1122.17052896

loop_
_atom_site_label
_atom_site_type_symbol
_atom_type_description
_atom_site_fract_x
_atom_site_fract_y
_atom_site_fract_z
_atom_type_partial_charge
C1    C     C_R   0.260194 0.499957 0.501661 0.973835
C2    C     C_R   0.739535 0.499677 0.501729 0.966805
C3    C     C_R   0.551292 0.071687 0.596994 -0.079933
C4    C     C_R   0.447313 0.072233 0.403629 -0.094263
C5    C     C_R   0.552189 0.927841 0.596603 -0.087211
C6    C     C_R   0.447195 0.928355 0.403759 -0.085109
C7    C     C_R   0.496308 0.500020 0.259872 0.902520
C8    C     C_R   0.496528 0.499918 0.740147 0.881629
C9    C     C_R   0.460565 0.621096 0.063904 0.155129
C10   C     C_R   0.461335 0.620924 0.936007 0.130061
C11   C     C_R   0.476500 0.499242 0.128656 -0.104528
C12   C     C_R   0.477332 0.499095 0.871557 -0.092864
C13   C     C_R   0.469299 0.375014 0.064836 -0.279521
C14   C     C_R   0.470463 0.375035 0.935755 -0.205911
C15   C     C_3   0.533933 0.750353 0.928712 -0.516501
C16   C     C_3   0.532290 0.751181 0.070621 -0.480397
C17   C     C_R   0.064449 0.420235 0.594414 -0.120195
C18   C     C_R   0.934292 0.424006 0.596865 -0.116176
C19   C     C_R   0.871698 0.498915 0.504141 -0.276829
C20   C     C_R   0.127649 0.499490 0.504310 -0.275455
C21   C     C_R   0.935085 0.571465 0.410883 0.413473
C22   C     C_R   0.064262 0.579625 0.416127 0.400463
H1    H     H_    0.472685 0.278261 0.113304 0.168565
H2    H     H_    0.475465 0.278387 0.887389 0.181981
H3    H     H_    0.629194 0.735897 0.888342 0.196178
H4    H     H_    0.475253 0.835665 0.110107 0.193730
H5    H     H_    0.478353 0.834602 0.886919 0.200563
H6    H     H_    0.626475 0.738584 0.112828 0.216151
H7    H     H_    0.591055 0.126023 0.674936 0.143960
H8    H     H_    0.404935 0.126839 0.326642 0.120662
H9    H     H_    0.594597 0.873332 0.673545 0.123166
H10   H     H_    0.404878 0.874108 0.326996 0.127821
N1    N     N_R   0.500000 0.857200 0.500000 -0.073345
N2    N     N_R   0.500000 0.142810 0.500000 -0.074753
O1    O     O_R   0.316770 0.614620 0.499990 -0.604579
O2    O     O_R   0.683230 0.614620 0.500010 -0.587171
O3    O     O_R   0.316800 0.385290 0.500000 -0.630980
O4    O     O_R   0.683200 0.385290 0.500000 -0.624637
O5    O     O_R   0.500000 0.614690 0.316780 -0.605045
O6    O     O_R   0.500000 0.614690 0.683220 -0.639510
O7    O     O_R   0.500020 0.385360 0.316780 -0.639425
O8    O     O_R   0.499980 0.385360 0.683220 -0.622209
Zn1   Zn    Zn3+2 0.500000 0.653120 0.500000 0.964973
Zn2   Zn    Zn3+2 0.500000 0.346880 0.500000 0.946391
C23   C     C_R   0.131950 0.337103 0.689284 0.164683
C24   C     C_R   0.173260 0.205262 0.659013 -0.088793
C25   C     C_R   0.222818 0.120585 0.751754 -0.154122
C26   C     C_R   0.228017 0.165438 0.875769 -0.136120
C27   C     C_R   0.185883 0.295995 0.906750 -0.112443
C28   C     C_R   0.139686 0.382410 0.813660 -0.155824
H11   H     H_    0.165049 0.167526 0.564126 0.120018
H12   H     H_    0.255157 0.019384 0.727855 0.128599
H13   H     H_    0.265005 0.099240 0.947833 0.119672
H14   H     H_    0.189571 0.330477 0.002906 0.142547
H15   H     H_    0.106021 0.482747 0.838981 0.126719
C29   C     C_R   0.865619 0.355868 0.700532 0.191798
C30   C     C_R   0.821300 0.433106 0.801933 -0.188780
C31   C     C_R   0.771678 0.368373 0.907391 -0.138971
C32   C     C_R   0.764199 0.226590 0.911568 -0.110150
C33   C     C_R   0.806990 0.149164 0.810328 -0.178683
C34   C     C_R   0.857347 0.213444 0.704820 -0.102087
H16   H     H_    0.828602 0.542928 0.800711 0.112904
H17   H     H_    0.738949 0.428174 0.985939 0.132651
H18   H     H_    0.725206 0.176828 0.993230 0.128629
H19   H     H_    0.801329 0.039346 0.813666 0.125577
H20   H     H_    0.892306 0.152512 0.627745 0.119167
O9    O     O_3   0.870371 0.637732 0.316616 -0.594004
C35   C     C_3   0.861932 0.549528 0.212940 -0.296662
H21   H     H_    0.803758 0.459061 0.235612 0.141582
H22   H     H_    0.955979 0.517111 0.178722 0.184006
H23   H     H_    0.815855 0.604780 0.135176 0.171164
O10   O     O_3   0.129750 0.651507 0.325535 -0.600514
C36   C     C_3   0.121057 0.791799 0.352377 -0.248870
H24   H     H_    0.157823 0.815474 0.447285 0.151104
H25   H     H_    0.023562 0.830105 0.343433 0.193464
H26   H     H_    0.178781 0.847967 0.283190 0.160227

loop_
_geom_bond_atom_site_label_1
_geom_bond_atom_site_label_2
_ccdc_geom_bond_type
C16   H6    S    
C6    H10   S    
C36   H24   S    
C8    O8    A    
C30   H16   S    
C23   C24   A    
C7    C11   S    
C32   H18   S    
C19   C21   A    
C9    C16   S    
C17   C23   S    
C10   C15   S    
C15   H3    S    
C27   H14   S    
C17   C20   A    
C29   C30   A    
C13   H1    S    
C18   C19   A    
C14   H2    S    
C3    H7    S    
C34   H20   S    
O6    Zn1   S    
C35   H21   S    
C5    N1    A    
O1    Zn1   S    
C9    C10   A    
C1    O3    A    
C32   C33   A    
C21   C22   A    
C21   O9    S    
C36   H25   S    
O8    Zn2   S    
C22   O10   S    
C16   H4    S    
C26   H13   S    
C4    N2    A    
O9    C35   S    
N1    Zn1   S    
N2    Zn2   S    
C4    C6    A    
O5    Zn1   S    
C3    N2    A    
C31   C32   A    
C24   H11   S    
C33   C34   A    
O4    Zn2   S    
C2    O4    A    
C15   H5    S    
C25   C26   A    
C8    C12   S    
C17   C18   A    
C9    C11   A    
C10   C12   A    
C26   C27   A    
C20   C22   A    
C33   H19   S    
O7    Zn2   S    
C1    O1    A    
C2    O2    A    
C31   H17   S    
C24   C25   A    
C1    C20   S    
C2    C19   S    
C12   C14   A    
O10   C36   S    
C3    C5    A    
C25   H12   S    
C18   C29   S    
C28   H15   S    
C6    N1    A    
O3    Zn2   S    
C11   C13   A    
C30   C31   A    
C23   C28   A    
C35   H23   S    
C36   H26   S    
C7    O7    A    
C35   H22   S    
C27   C28   A    
C7    O5    A    
C29   C34   A    
O2    Zn1   S    
C8    O6    A    
C13   C14   A    
C4    H8    S    
C15   C16   S    
C5    H9    S    
