data_mof_unit_1144.cif
_audit_creation_date              2012-12-10T17:14:41-0500
_audit_creation_method            fapswitch 2.2
_symmetry_space_group_name_H-M    P1
_symmetry_Int_Tables_number       1
_space_group_crystal_system       triclinic
_cell_length_a                    10.692723
_cell_length_b                    13.022556
_cell_length_c                    11.68415
_cell_angle_alpha                 100.188451
_cell_angle_beta                  93.935901
_cell_angle_gamma                 90.163086
_cell_volume                      1597.35972591

loop_
_atom_site_label
_atom_site_type_symbol
_atom_type_description
_atom_site_fract_x
_atom_site_fract_y
_atom_site_fract_z
_atom_type_partial_charge
C1    C     C_R   0.499072 0.299234 0.478119 0.903449
C2    C     C_R   0.500928 0.700766 0.521880 0.903451
C3    C     C_R   0.438218 0.134774 0.538612 0.216436
C4    C     C_R   0.561784 0.865226 0.461389 0.216435
C5    C     C_R   0.462703 0.028886 0.542717 -0.007989
C6    C     C_R   0.537300 0.971114 0.457284 -0.007992
C7    C     C_R   0.373622 0.408743 0.022407 0.162785
C8    C     C_R   0.626378 0.591257 0.977593 0.162784
C9    C     C_R   0.387502 0.416737 0.144333 0.062513
C10   C     C_R   0.612498 0.583263 0.855667 0.062515
C11   C     C_R   0.555311 0.537869 0.157185 0.074768
C12   C     C_R   0.444690 0.462131 0.842815 0.074769
C13   C     C_R   0.546295 0.532814 0.034258 -0.049466
C14   C     C_R   0.453705 0.467185 0.965741 -0.049466
C15   C     C_R   0.259601 0.499779 0.499985 0.858189
C16   C     C_R   0.740399 0.500220 0.500015 0.858188
C17   C     C_3   0.044752 0.413796 0.540471 -0.204067
C18   C     C_3   0.955248 0.586202 0.459529 -0.204070
C19   C     C_3   0.952898 0.414662 0.432428 0.113167
C20   C     C_3   0.047102 0.585337 0.567572 0.113168
C21   C     C_3   0.876273 0.500975 0.500498 -0.076242
C22   C     C_3   0.123727 0.499024 0.499502 -0.076240
C23   C     C_3   0.968222 0.502262 0.607740 0.136076
C24   C     C_3   0.031778 0.497737 0.392260 0.136075
C25   C     C_R   0.496559 0.814269 0.535538 -0.144173
C26   C     C_R   0.503442 0.185731 0.464462 -0.144175
C27   C     C_R   0.583455 0.020566 0.369528 0.153553
C28   C     C_R   0.416547 0.979435 0.630472 0.153548
C29   C     C_R   0.573004 0.128895 0.377825 0.044272
C30   C     C_R   0.426995 0.871105 0.622173 0.044269
Cu1   Cu    Cu3+1 0.509400 0.507730 0.615930 0.994072
Cu2   Cu    Cu3+1 0.490600 0.492270 0.384070 0.994070
H1    H     H_    0.079997 0.343794 0.573492 0.211906
H2    H     H_    0.920003 0.656205 0.426508 0.211907
H3    H     H_    0.375031 0.412427 0.788312 0.205407
H4    H     H_    0.624969 0.587573 0.211688 0.205407
H5    H     H_    0.673685 0.628376 0.812886 0.148858
H6    H     H_    0.326315 0.371624 0.187114 0.148857
N1    N     N_R   0.523540 0.519360 0.790140 -0.216836
N2    N     N_R   0.476460 0.480640 0.209860 -0.216836
O1    O     O_R   0.506670 0.354460 0.582000 -0.561739
O2    O     O_R   0.493330 0.645540 0.418000 -0.561740
O3    O     O_R   0.490800 0.341410 0.386200 -0.568967
O4    O     O_R   0.509200 0.658590 0.613800 -0.568966
O5    O     O_R   0.324790 0.506500 0.597880 -0.585382
O6    O     O_R   0.675210 0.493500 0.402120 -0.585385
O7    O     O_R   0.308910 0.493440 0.402080 -0.582281
O8    O     O_R   0.691090 0.506560 0.597920 -0.582280
N3    N     N_3   0.899579 0.321701 0.357005 -0.576982
H7    H     H_    0.974063 0.278026 0.321811 0.226968
H8    H     H_    0.847949 0.345897 0.287575 0.234580
N4    N     N_3   0.100421 0.678298 0.642993 -0.576985
H9    H     H_    0.025935 0.721978 0.678179 0.226969
H10   H     H_    0.152043 0.654105 0.712430 0.234580
N5    N     N_3   0.933285 0.506058 0.726745 -0.527368
H11   H     H_    0.016003 0.503162 0.779103 0.245448
H12   H     H_    0.894421 0.579071 0.754013 0.221649
N6    N     N_3   0.066714 0.493941 0.273255 -0.527368
H13   H     H_    0.983996 0.496834 0.220897 0.245448
H14   H     H_    0.105581 0.420929 0.245987 0.221649
Br1   Br    Br    0.700929 0.792121 0.386669 -0.502400
Br2   Br    Br    0.299074 0.207879 0.613333 -0.502404
N7    N     N_3   0.367323 0.818144 0.702159 -0.555915
H15   H     H_    0.405011 0.846516 0.786784 0.225587
H16   H     H_    0.271569 0.833832 0.697354 0.239443
N8    N     N_3   0.632671 0.181855 0.297837 -0.555917
H17   H     H_    0.728425 0.166164 0.302632 0.239440
H18   H     H_    0.594974 0.153487 0.213214 0.225590
N9    N     N_3   0.634037 0.960745 0.268399 -0.493587
H19   H     H_    0.579444 0.972110 0.194106 0.225632
H20   H     H_    0.725861 0.986056 0.262659 0.251631
N10   N     N_3   0.365969 0.039255 0.731603 -0.493590
H21   H     H_    0.420555 0.027880 0.805894 0.225629
H22   H     H_    0.274140 0.013951 0.737336 0.251637
Br3   Br    Br    0.243432 0.317651 0.939336 -0.502983
Br4   Br    Br    0.756568 0.682349 0.060664 -0.502982

loop_
_geom_bond_atom_site_label_1
_geom_bond_atom_site_label_2
_ccdc_geom_bond_type
N8    H18   S    
N5    H11   S    
N7    H16   S    
N10   H22   S    
C16   C21   S    
C27   C29   A    
C18   C21   S    
C15   O7    A    
C16   O8    A    
C4    C25   A    
C17   C23   S    
C10   H5    S    
C18   C24   S    
C11   H4    S    
C19   C21   S    
C5    C6    A    
C8    C10   A    
N6    H14   S    
C8    Br4   S    
N9    H20   S    
C1    O3    A    
C15   C22   S    
C6    C27   A    
C2    O4    A    
N3    H8    S    
C27   N9    S    
N8    H17   S    
C30   N7    S    
C28   N10   S    
C17   H1    S    
N4    H10   S    
C7    C14   A    
Cu1   O4    S    
C11   N2    A    
C4    C6    A    
C16   O6    A    
C7    Br3   S    
N6    H13   S    
C4    Br1   S    
C9    N2    A    
N7    H15   S    
C10   N1    A    
C5    C28   A    
C19   N3    S    
Cu1   Cu2   S    
C20   C23   S    
N5    H12   S    
C12   H3    S    
C18   H2    S    
C1    O1    A    
C12   C14   A    
Cu1   O8    S    
C21   C23   S    
C1    C26   S    
Cu2   O7    S    
C22   C24   S    
C15   O5    A    
N4    H9    S    
C3    Br2   S    
C25   C30   A    
C7    C9    A    
Cu1   O1    S    
Cu2   O6    S    
C3    C26   A    
C20   C22   S    
N10   H21   S    
C3    C5    A    
C23   N5    S    
C17   C22   S    
C12   N1    A    
C28   C30   A    
C19   C24   S    
C20   N4    S    
C11   C13   A    
C2    O2    A    
C9    H6    S    
C17   C19   S    
Cu2   O3    S    
Cu1   N1    S    
C2    C25   S    
C18   C20   S    
Cu2   N2    S    
N9    H19   S    
C29   N8    S    
C8    C13   A    
C26   C29   A    
C24   N6    S    
N3    H7    S    
Cu1   O5    S    
Cu2   O2    S    
C13   C14   A    
