data_mof_unit_2276.cif
_audit_creation_date              2012-12-11T14:15:36-0500
_audit_creation_method            fapswitch 2.2
_symmetry_space_group_name_H-M    P1
_symmetry_Int_Tables_number       1
_space_group_crystal_system       triclinic
_cell_length_a                    11.166633
_cell_length_b                    12.644899
_cell_length_c                    23.437482
_cell_angle_alpha                 90.442798
_cell_angle_beta                  96.642941
_cell_angle_gamma                 68.887851
_cell_volume                      3064.47425696

loop_
_atom_site_label
_atom_site_type_symbol
_atom_type_description
_atom_site_fract_x
_atom_site_fract_y
_atom_site_fract_z
_atom_type_partial_charge
C1    C     C_R   0.149548 0.617417 0.429087 0.543192
C2    C     C_R   0.601352 0.586219 0.321699 -0.141582
C3    C     C_R   0.645855 0.762186 0.325644 0.047735
C4    C     C_R   0.588152 0.788936 0.267557 0.010057
C5    C     C_R   0.553685 0.705034 0.236712 -0.002377
C6    C     C_R   0.527883 0.713847 0.177348 -0.130549
C7    C     C_R   0.555969 0.894139 0.176788 -0.136459
C8    C     C_R   0.571757 0.891601 0.237018 0.059835
C9    C     C_1   0.237114 0.161746 0.123327 0.012709
C10   C     C_2   0.184589 0.230173 0.227612 -0.098150
C11   C     C_2   0.158665 0.161552 0.263627 -0.083342
C12   C     C_R   0.744735 0.606913 0.405005 0.547238
C13   C     C_1   0.134364 0.195418 0.321331 -0.009682
C14   C     C_1   0.212965 0.195782 0.170410 -0.027186
C15   C     C_1   0.116883 0.229755 0.368950 0.021373
C16   C     C_1   0.167779 0.747771 0.123382 0.010443
C17   C     C_2   0.151598 0.677022 0.227314 -0.107582
C18   C     C_2   0.226649 0.694002 0.272633 -0.121941
C19   C     C_1   0.214291 0.661761 0.329930 -0.025297
C20   C     C_1   0.158162 0.715137 0.170283 -0.034017
C21   C     C_1   0.193615 0.638512 0.376726 0.015787
C22   C     C_1   0.545332 0.790651 0.852180 0.038009
C23   C     C_R   0.101256 0.281663 0.423584 0.545914
C24   C     C_2   0.592063 0.777318 0.743941 0.166568
C25   C     C_2   0.604313 0.680674 0.717429 -0.100597
C26   C     C_1   0.644270 0.660723 0.661056 0.015509
C27   C     C_1   0.566929 0.785836 0.802915 0.025540
C28   C     C_1   0.686097 0.638338 0.615715 0.038311
C29   C     C_R   0.212081 0.175229 0.850446 -0.046918
C30   C     C_R   0.109036 0.210941 0.636118 -0.033485
C31   C     C_R   0.992469 0.188192 0.713068 0.150676
C32   C     C_R   0.997768 0.204657 0.654971 -0.088608
C33   C     C_R   0.221075 0.183419 0.673476 -0.091553
C34   C     C_R   0.147736 0.616192 0.591955 0.543278
C35   C     C_R   0.215424 0.182680 0.732243 -0.028855
C36   C     C_R   0.100057 0.184085 0.753840 -0.025072
C37   C     C_R   0.099360 0.181962 0.814293 -0.064565
C38   C     C_R   0.313842 0.197095 0.827395 0.225854
C39   C     C_R   0.319180 0.192836 0.768681 0.199763
C40   C     C_R   0.113388 0.737846 0.856671 -0.031472
C41   C     C_R   0.183539 0.637092 0.652164 -0.017888
C42   C     C_R   0.311108 0.572579 0.745383 0.059576
C43   C     C_R   0.295091 0.564426 0.685209 -0.125164
C44   C     C_R   0.091276 0.722747 0.678949 -0.107204
C45   C     C_R   0.748086 0.602786 0.565290 0.550758
C46   C     C_R   0.098684 0.725607 0.738203 -0.029020
C47   C     C_R   0.205877 0.647190 0.772481 -0.002475
C48   C     C_R   0.200596 0.644039 0.832340 0.040151
C49   C     C_R   0.997816 0.804351 0.822796 -0.002682
C50   C     C_R   0.993132 0.799247 0.763190 -0.137406
C51   C     C_R   0.266066 0.110031 0.069449 0.534701
C52   C     C_R   0.529810 0.800409 0.084415 0.564102
C53   C     C_R   0.189584 0.787405 0.069694 0.544909
C54   C     C_R   0.242588 0.115902 0.907215 0.535984
C55   C     C_R   0.515500 0.797657 0.910146 0.553929
C56   C     C_R   0.100362 0.274868 0.583558 0.547679
C57   C     C_R   0.161200 0.784414 0.908500 0.571316
C58   C     C_R   0.541489 0.802325 0.147083 -0.031288
C59   C     C_R   0.659280 0.655797 0.351246 -0.018692
C60   C     C_R   0.552110 0.609086 0.264696 -0.146173
Cr1   Cr    Cr6+3 0.189770 0.415650 0.511620 1.070025
Cr2   Cr    Cr6+3 0.930400 0.667320 0.496770 1.095460
Cr3   Cr    Cr6+3 0.879870 0.417010 0.491650 1.046555
Cr4   Cr    Cr6+3 0.149500 0.973980 0.985330 1.098770
Cr5   Cr    Cr6+3 0.457000 0.976510 0.994660 1.080946
Cr6   Cr    Cr6+3 0.411170 0.724270 0.995270 1.100128
H1    H     H_    0.504702 0.647447 0.154424 0.144429
H2    H     H_    0.083575 0.635534 0.232916 0.151048
H3    H     H_    0.595193 0.610437 0.740292 0.145473
H4    H     H_    0.911336 0.220438 0.624881 0.171243
H5    H     H_    0.307900 0.179724 0.656195 0.202228
H6    H     H_    0.550678 0.969192 0.153025 0.176690
H7    H     H_    0.907117 0.852281 0.736161 0.201296
H8    H     H_    0.369167 0.502155 0.663914 0.182093
H9    H     H_    0.005575 0.781556 0.653951 0.163092
H10   H     H_    0.519046 0.548097 0.241609 0.127543
H11   H     H_    0.604260 0.507604 0.340956 0.156126
H12   H     H_    0.157768 0.079332 0.250274 0.142002
H13   H     H_    0.186300 0.312022 0.241211 0.135643
H14   H     H_    0.292127 0.738074 0.267216 0.145117
O1    O     O_R   0.196340 0.303200 0.448500 -0.490606
O2    O     O_R   0.811960 0.658090 0.547150 -0.479530
O3    O     O_R   0.757930 0.506140 0.547110 -0.506130
O4    O     O_R   0.988670 0.321620 0.556040 -0.503034
O5    O     O_3   0.000020 0.499990 0.500010 -0.265293
O6    O     O_R   0.113660 0.883270 0.047820 -0.481864
O7    O     O_R   0.186930 0.068530 0.043990 -0.487668
O8    O     O_R   0.377770 0.089040 0.054220 -0.510246
O9    O     O_R   0.562800 0.872960 0.056970 -0.481393
O10   O     O_R   0.555390 0.700940 0.062700 -0.488620
O11   O     O_R   0.295020 0.731920 0.049950 -0.516436
O12   O     O_R   0.199310 0.519670 0.454880 -0.497049
O13   O     O_R   0.094290 0.884230 0.921550 -0.473221
O14   O     O_R   0.168980 0.069410 0.926940 -0.483915
O15   O     O_R   0.358400 0.089990 0.927950 -0.475273
O16   O     O_R   0.544850 0.873850 0.939920 -0.479419
O17   O     O_R   0.536020 0.701900 0.936430 -0.441171
O18   O     O_R   0.277070 0.732810 0.932890 -0.466311
O19   O     O_3   0.339220 0.891590 0.991750 -0.334258
O20   O     O_R   0.045660 0.691380 0.441680 -0.489790
O21   O     O_R   0.811930 0.659460 0.430950 -0.464590
O22   O     O_R   0.757900 0.507620 0.421760 -0.521332
O23   O     O_R   0.988630 0.322990 0.439840 -0.497768
O24   O     O_R   0.196380 0.301720 0.573850 -0.496821
O25   O     O_R   0.199350 0.518300 0.571080 -0.489687
O26   O     O_R   0.045700 0.689900 0.567030 -0.514390
Br1   Br    Br    0.610612 0.903718 0.706327 -0.412036
C61   C     C_2   0.983008 0.191238 0.841474 0.663465
O27   O     O_2   0.917846 0.282127 0.859481 -0.413308
O28   O     O_R   0.949726 0.096410 0.848944 -0.563787
H15   H     H_    0.010443 0.026840 0.831653 0.303599
Br2   Br    Br    0.452320 0.229190 0.874713 -0.279465
Br3   Br    Br    0.829195 0.182504 0.728543 -0.362354
Br4   Br    Br    0.470466 0.202542 0.739072 -0.271656
C62   C     C_2   0.240850 0.533294 0.863988 0.652915
O29   O     O_2   0.239407 0.450116 0.837557 -0.489526
O30   O     O_R   0.270104 0.524808 0.923792 -0.647752
H16   H     H_    0.291548 0.445084 0.939919 0.355329
C63   C     C_2   0.880202 0.873788 0.848817 0.635753
O31   O     O_2   0.794039 0.950784 0.820701 -0.395268
O32   O     O_R   0.865790 0.848524 0.905032 -0.654877
H17   H     H_    0.781499 0.901138 0.917732 0.361805
C64   C     C_2   0.440948 0.509810 0.777425 0.593320
O33   O     O_2   0.471184 0.537746 0.825414 -0.488467
O34   O     O_R   0.532729 0.423618 0.751024 -0.637361
H18   H     H_    0.618037 0.389573 0.776574 0.400188
C65   C     C_2   0.557337 0.000389 0.264957 0.591512
O35   O     O_2   0.495261 0.027594 0.305878 -0.495158
O36   O     O_R   0.608730 0.074677 0.242484 -0.683069
H19   H     H_    0.590468 0.146990 0.264550 0.342699
C66   C     C_2   0.707762 0.835865 0.356124 0.621909
O37   O     O_2   0.670115 0.879387 0.400683 -0.467443
O38   O     O_R   0.809090 0.855188 0.333707 -0.681920
H20   H     H_    0.843650 0.906648 0.358277 0.347246

loop_
_geom_bond_atom_site_label_1
_geom_bond_atom_site_label_2
_ccdc_geom_bond_type
C1    C21   S    
C6    C58   A    
C52   O10   A    
C45   O2    A    
C9    C51   S    
C24   C27   S    
C4    C8    A    
C64   O33   D    
Cr6   O10   S    
C49   C63   S    
C10   H13   S    
Cr5   O9    S    
C3    C66   S    
Cr6   O17   S    
C36   C37   A    
C19   C21   T    
Cr4   O13   S    
C5    C6    A    
Cr1   O5    S    
C2    C60   A    
C64   O34   S    
C29   C54   S    
C40   C49   A    
C17   C20   S    
C61   O27   D    
C18   C19   S    
O28   H15   S    
C16   C53   S    
C12   C59   S    
Cr5   O16   S    
C23   O23   A    
C35   C36   A    
C62   O30   S    
C29   C38   A    
C53   O11   A    
C53   O6    A    
Cr1   O25   S    
C7    C58   A    
C5    C60   A    
Cr1   O12   S    
Cr2   O21   S    
C43   H8    S    
C15   C23   S    
O34   H18   S    
Cr2   O2    S    
C57   O13   A    
Cr3   O5    S    
C41   C43   A    
C52   O9    A    
C45   O3    A    
C34   C41   S    
Cr3   O22   S    
C1    O20   A    
Cr4   O6    S    
C44   C46   A    
C42   C64   S    
C56   O4    A    
Cr4   O19   S    
Cr2   O5    S    
C28   C45   S    
C34   O26   A    
C7    C8    A    
Cr1   O24   S    
C24   C25   D    
Cr5   O19   S    
C37   C61   S    
Cr3   O23   S    
C10   C14   S    
C50   H7    S    
C51   O7    A    
C7    H6    S    
C2    C59   A    
C55   O16   A    
C32   H4    S    
C25   C26   S    
C30   C56   S    
C60   H10   S    
C3    C4    A    
Cr3   O3    S    
Cr6   O19   S    
C44   H9    S    
C35   C39   A    
C9    C14   T    
C65   O36   S    
C12   O22   A    
C11   H12   S    
C8    C65   S    
C47   C48   A    
C16   C20   T    
C39   Br4   S    
C55   O17   A    
C17   C18   D    
C54   O15   A    
C24   Br1   S    
C56   O24   A    
O32   H17   S    
Cr6   O11   S    
C63   O32   S    
C52   C58   S    
C48   C62   S    
Cr2   O20   S    
C6    H1    S    
C1    O12   A    
C22   C27   T    
C13   C15   T    
O38   H20   S    
C41   C44   A    
C25   H3    S    
C42   C43   A    
C38   Br2   S    
C65   O35   D    
Cr5   O8    S    
O36   H19   S    
C40   C48   A    
C46   C47   A    
C17   H2    S    
C40   C57   S    
Cr4   O7    S    
C30   C33   A    
C34   O25   A    
C31   C32   A    
C23   O1    A    
C4    C5    A    
C66   O38   S    
C51   O8    A    
C63   O31   D    
C22   C55   S    
Cr2   O26   S    
C46   C50   A    
C26   C28   T    
Cr3   O4    S    
Cr6   O18   S    
Cr4   O14   S    
C12   O21   A    
C2    H11   S    
Cr1   O1    S    
O30   H16   S    
C30   C32   A    
C11   C13   S    
C38   C39   A    
C57   O18   A    
C33   C35   A    
C61   O28   S    
C42   C47   A    
C66   O37   D    
C54   O14   A    
C10   C11   D    
C33   H5    S    
Cr5   O15   S    
C18   H14   S    
C49   C50   A    
C29   C37   A    
C31   C36   A    
C31   Br3   S    
C62   O29   D    
C3    C59   A    
