data_mof_unit_3641.cif
_audit_creation_date              2012-12-10T20:24:42-0500
_audit_creation_method            fapswitch 2.2
_symmetry_space_group_name_H-M    P1
_symmetry_Int_Tables_number       1
_space_group_crystal_system       triclinic
_cell_length_a                    10.795366
_cell_length_b                    19.210357
_cell_length_c                    18.475513
_cell_angle_alpha                 88.847101
_cell_angle_beta                  91.480952
_cell_angle_gamma                 90.190582
_cell_volume                      3829.43395279

loop_
_atom_site_label
_atom_site_type_symbol
_atom_type_description
_atom_site_fract_x
_atom_site_fract_y
_atom_site_fract_z
_atom_type_partial_charge
C1    C     C_R   0.499701 0.366055 0.500814 0.920265
C2    C     C_R   0.497347 0.634517 0.499130 0.896475
C3    C     C_R   0.872956 0.499784 0.503373 -0.119705
C4    C     C_R   0.127610 0.501177 0.496959 -0.111980
C5    C     C_R   0.943902 0.495717 0.568305 0.114452
C6    C     C_R   0.056607 0.508232 0.431899 0.072309
C7    C     C_R   0.445535 0.745662 0.433399 0.540961
C8    C     C_R   0.377767 0.259970 0.480705 0.531178
C9    C     C_R   0.435482 0.818176 0.434499 -0.307714
C10   C     C_R   0.370344 0.187687 0.481170 -0.289984
C11   C     C_R   0.468889 0.853907 0.496938 0.059530
C12   C     C_R   0.471838 0.148237 0.506175 0.041673
C13   C     C_R   0.511409 0.818666 0.559345 -0.147890
C14   C     C_R   0.579658 0.180458 0.532868 -0.149682
C15   C     C_R   0.520901 0.746891 0.559443 -0.276728
C16   C     C_R   0.588548 0.252377 0.530959 -0.288092
C17   C     C_R   0.488145 0.710074 0.496976 -0.143878
C18   C     C_R   0.489214 0.291697 0.503072 -0.124623
C19   C     C_R   0.373787 0.963872 0.537221 0.014562
C20   C     C_R   0.553369 0.038070 0.457543 0.015853
C21   C     C_R   0.378269 0.036246 0.539019 -0.263468
C22   C     C_R   0.549586 0.965815 0.456478 -0.255728
C23   C     C_R   0.259824 0.500951 0.498802 0.885416
C24   C     C_R   0.740352 0.499984 0.501261 0.886887
C25   C     C_R   0.467783 0.073106 0.500263 0.065581
C26   C     C_R   0.461770 0.929044 0.496291 0.058805
C27   C     C_R   0.458517 0.558598 0.721469 -0.119206
C28   C     C_R   0.396238 0.478425 0.274002 -0.072332
C29   C     C_R   0.449244 0.561641 0.796844 -0.348890
C30   C     C_R   0.388655 0.481852 0.198062 -0.318215
C31   C     C_R   0.483564 0.504088 0.840441 0.106613
C32   C     C_R   0.490676 0.504487 0.157765 0.056604
C33   C     C_R   0.525458 0.444275 0.806718 -0.283109
C34   C     C_R   0.598958 0.521864 0.196879 -0.328609
C35   C     C_R   0.529565 0.441983 0.730472 0.667317
C36   C     C_R   0.599557 0.524765 0.273248 0.702151
C37   C     C_R   0.410104 0.456328 0.961583 -0.001785
C38   C     C_R   0.547892 0.560072 0.034183 -0.001158
C39   C     C_R   0.416778 0.456988 0.037862 -0.255607
C40   C     C_R   0.543678 0.557787 0.958034 -0.192462
C41   C     C_R   0.485213 0.508000 0.075832 0.081147
C42   C     C_R   0.477083 0.506316 0.921060 0.082244
C43   C     C_R   0.163971 0.622016 0.278517 -0.317677
C44   C     C_R   0.833333 0.439558 0.752470 -0.327356
C45   C     C_R   0.159987 0.591548 0.347669 -0.215340
C46   C     C_R   0.864247 0.437694 0.679651 -0.271221
C47   C     C_R   0.102881 0.526634 0.358397 -0.084922
C48   C     C_R   0.894164 0.499221 0.642050 -0.020903
C49   C     C_R   0.056953 0.490083 0.297102 0.359277
C50   C     C_R   0.894094 0.563237 0.678076 0.385018
C51   C     C_R   0.054244 0.522752 0.228280 0.403783
C52   C     C_R   0.857583 0.565325 0.750905 0.368752
C53   C     C_R   0.108368 0.588853 0.218630 0.418592
C54   C     C_R   0.832256 0.503031 0.788954 0.442814
C55   C     C_R   0.930082 0.505247 0.436878 -0.181600
C56   C     C_R   0.070459 0.493383 0.563797 -0.270098
H1    H     H_    0.554350 0.720193 0.608302 0.168834
H2    H     H_    0.673025 0.277365 0.550131 0.164659
H3    H     H_    0.312405 0.064099 0.570949 0.145595
H4    H     H_    0.615890 0.937832 0.424941 0.149407
H5    H     H_    0.430679 0.603252 0.688598 0.163134
H6    H     H_    0.318058 0.459482 0.303855 0.149326
H7    H     H_    0.415609 0.608654 0.820958 0.153347
H8    H     H_    0.303111 0.466921 0.171343 0.130930
H9    H     H_    0.555920 0.399955 0.839560 0.150754
H10   H     H_    0.683223 0.532964 0.168605 0.189602
H11   H     H_    0.367865 0.416821 0.067651 0.143127
H12   H     H_    0.593657 0.596736 0.926997 0.163605
H13   H     H_    0.200522 0.674248 0.272907 0.203499
H14   H     H_    0.809554 0.391547 0.780536 0.191751
H15   H     H_    0.191805 0.621408 0.393696 0.208057
H16   H     H_    0.866882 0.388133 0.652798 0.184516
H17   H     H_    0.875578 0.510783 0.387512 0.247670
H18   H     H_    0.124322 0.487758 0.613965 0.162768
H19   H     H_    0.398857 0.846920 0.387731 0.144148
H20   H     H_    0.286915 0.162472 0.460769 0.153306
H21   H     H_    0.537546 0.846869 0.607626 0.142484
H22   H     H_    0.657659 0.149797 0.553100 0.148163
N1    N     N_R   0.500020 0.499980 0.689440 -0.127863
N2    N     N_R   0.499980 0.500020 0.310560 -0.124979
O1    O     O_R   0.500010 0.398180 0.560840 -0.579626
O2    O     O_R   0.499990 0.601820 0.439160 -0.553496
O3    O     O_R   0.499950 0.398180 0.439210 -0.604332
O4    O     O_R   0.500050 0.601820 0.560790 -0.651728
O5    O     O_R   0.316790 0.500010 0.560810 -0.641311
O6    O     O_R   0.683210 0.499990 0.439190 -0.574190
O7    O     O_R   0.316730 0.500000 0.439190 -0.621538
O8    O     O_R   0.683270 0.500000 0.560810 -0.603068
Zn1   Zn    Zn3+2 0.500040 0.500000 0.581210 0.972638
Zn2   Zn    Zn3+2 0.499960 0.500000 0.418790 1.022019
O9    O     O_3   0.088717 0.623962 0.153136 -0.590734
C57   C     C_3   0.202965 0.643428 0.123501 -0.369606
H23   H     H_    0.244682 0.688218 0.152476 0.161364
H24   H     H_    0.186090 0.660440 0.066384 0.194212
H25   H     H_    0.268492 0.598883 0.123028 0.166920
O10   O     O_3   0.796839 0.505718 0.860249 -0.586234
C58   C     C_3   0.890658 0.475892 0.905294 -0.302952
H26   H     H_    0.981266 0.502565 0.897619 0.164717
H27   H     H_    0.899457 0.419071 0.896443 0.155252
H28   H     H_    0.865149 0.482428 0.962504 0.189107
C59   C     C_R   0.277295 0.925877 0.578085 0.121848
C60   C     C_R   0.195203 0.880143 0.542506 -0.133903
C61   C     C_R   0.105611 0.843651 0.581404 -0.147732
C62   C     C_R   0.096792 0.852741 0.655933 -0.120536
C63   C     C_R   0.177170 0.898641 0.691610 -0.138394
C64   C     C_R   0.266915 0.935280 0.652900 -0.174097
H29   H     H_    0.200172 0.873001 0.484674 0.127730
H30   H     H_    0.042894 0.808391 0.553732 0.139449
H31   H     H_    0.027519 0.824342 0.685988 0.133449
H32   H     H_    0.170112 0.905728 0.749323 0.126217
H33   H     H_    0.329200 0.970288 0.681325 0.123457
C65   C     C_R   0.647259 0.075482 0.414030 0.114001
C66   C     C_R   0.611038 0.126518 0.362186 -0.128849
C67   C     C_R   0.700234 0.162937 0.322894 -0.127288
C68   C     C_R   0.825993 0.148383 0.334595 -0.107158
C69   C     C_R   0.862750 0.097147 0.385390 -0.138416
C70   C     C_R   0.773870 0.060648 0.424876 -0.178809
H34   H     H_    0.513912 0.138174 0.352340 0.130228
H35   H     H_    0.671841 0.202476 0.283381 0.136723
H36   H     H_    0.894937 0.176735 0.304241 0.125816
H37   H     H_    0.960181 0.085894 0.394380 0.129103
H38   H     H_    0.803750 0.021599 0.464624 0.130490
O11   O     O_3   0.570817 0.383005 0.697003 -0.595980
C71   C     C_3   0.489727 0.326883 0.711639 -0.334336
H39   H     H_    0.512449 0.283411 0.675783 0.201537
H40   H     H_    0.391051 0.341078 0.700055 0.158803
H41   H     H_    0.502101 0.307155 0.768282 0.155514
O12   O     O_3   0.702879 0.547772 0.311653 -0.601333
C72   C     C_3   0.746706 0.612021 0.283932 -0.339474
H42   H     H_    0.805430 0.636726 0.326416 0.188587
H43   H     H_    0.670081 0.648712 0.269763 0.160258
H44   H     H_    0.806133 0.603986 0.236685 0.208138
C73   C     C_R   0.329448 0.404195 0.925328 0.117107
C74   C     C_R   0.237062 0.425687 0.874683 -0.157259
C75   C     C_R   0.163200 0.376490 0.839149 -0.171487
C76   C     C_R   0.180060 0.305570 0.854309 -0.119266
C77   C     C_R   0.270660 0.283760 0.905155 -0.144117
C78   C     C_R   0.344998 0.332805 0.940724 -0.177279
H45   H     H_    0.222403 0.480498 0.862645 0.127373
H46   H     H_    0.092879 0.393374 0.799888 0.134781
H47   H     H_    0.122830 0.267523 0.826726 0.120225
H48   H     H_    0.283592 0.228793 0.916835 0.125264
H49   H     H_    0.415721 0.315134 0.979418 0.129301
C79   C     C_R   0.617413 0.618865 0.066748 0.086157
C80   C     C_R   0.557628 0.667265 0.109692 -0.159463
C81   C     C_R   0.623038 0.724074 0.137659 -0.179713
C82   C     C_R   0.748776 0.732615 0.123605 -0.134300
C83   C     C_R   0.809033 0.684780 0.080861 -0.083865
C84   C     C_R   0.743672 0.628329 0.052181 -0.134643
H50   H     H_    0.460621 0.661370 0.121012 0.115882
H51   H     H_    0.576306 0.761503 0.170270 0.122717
H52   H     H_    0.799371 0.776427 0.145611 0.130696
H53   H     H_    0.906198 0.691685 0.069552 0.174614
H54   H     H_    0.791456 0.591863 0.018870 0.160737
O13   O     O_3   0.995730 0.427170 0.305490 -0.571620
C85   C     C_3   0.084486 0.374571 0.319131 -0.258461
H55   H     H_    0.141544 0.384754 0.368718 0.200665
H56   H     H_    0.145486 0.368634 0.272058 0.136719
H57   H     H_    0.035391 0.324408 0.327885 0.194269
O14   O     O_3   0.923764 0.623803 0.640336 -0.595335
C86   C     C_3   0.042481 0.646883 0.663242 -0.277467
H58   H     H_    0.111494 0.603925 0.667545 0.138578
H59   H     H_    0.038098 0.674021 0.715583 0.202251
H60   H     H_    0.076601 0.685010 0.622478 0.181238
O15   O     O_3   0.979504 0.495221 0.173930 -0.555904
C87   C     C_3   0.053846 0.461018 0.124291 -0.273449
H61   H     H_    0.104135 0.416550 0.150702 0.141222
H62   H     H_    0.119436 0.497469 0.097610 0.169951
H63   H     H_    0.992660 0.439391 0.081096 0.179678
O16   O     O_3   0.858116 0.627567 0.787070 -0.594403
C88   C     C_3   0.742966 0.660400 0.774349 -0.263129
H64   H     H_    0.668323 0.630828 0.801446 0.179023
H65   H     H_    0.720599 0.667495 0.715468 0.171362
H66   H     H_    0.746999 0.712846 0.798334 0.173014
O17   O     O_3   0.401386 0.708174 0.374517 -0.606158
C89   C     C_3   0.451990 0.733411 0.309349 -0.361312
H67   H     H_    0.551524 0.748210 0.315809 0.155429
H68   H     H_    0.396846 0.777918 0.286989 0.157707
H69   H     H_    0.446003 0.691354 0.269105 0.189830
O18   O     O_3   0.278283 0.299449 0.455574 -0.632026
C90   C     C_3   0.196994 0.308119 0.513260 -0.390374
H70   H     H_    0.159451 0.257251 0.532716 0.168795
H71   H     H_    0.117227 0.340193 0.493732 0.200285
H72   H     H_    0.243069 0.336150 0.558809 0.169566

loop_
_geom_bond_atom_site_label_1
_geom_bond_atom_site_label_2
_ccdc_geom_bond_type
C38   C40   A    
C63   H32   S    
C29   H7    S    
O15   C87   S    
C31   C42   S    
C30   H8    S    
C45   H15   S    
C11   C13   A    
C5    C56   A    
C2    O4    A    
C82   C83   A    
N2    Zn2   S    
C6    C55   A    
C88   H64   S    
O12   C72   S    
C34   H10   S    
C67   C68   A    
C33   H9    S    
O11   C71   S    
C39   C41   A    
C90   H70   S    
C88   H65   S    
C1    C18   S    
C59   C60   A    
C85   H55   S    
C19   C21   A    
C21   H3    S    
C27   N1    A    
C78   H49   S    
C22   H4    S    
C62   H31   S    
C27   C29   A    
C20   C25   A    
C1    O1    A    
C68   C69   A    
C69   C70   A    
C15   C17   A    
C37   C42   A    
C19   C26   A    
C65   C66   A    
C27   H5    S    
C58   H27   S    
C20   C65   S    
C10   H20   S    
C43   C53   A    
C89   H69   S    
C52   C54   A    
C49   C51   A    
C7    O17   S    
C53   O9    S    
C50   C52   A    
C32   C41   S    
C31   C33   A    
C44   H14   S    
C61   H30   S    
C14   C16   A    
C9    H19   S    
C54   O10   S    
C67   H35   S    
C72   H44   S    
O1    Zn1   S    
C40   C42   A    
C73   C78   A    
C43   H13   S    
C84   H54   S    
C23   O7    A    
C4    C56   A    
C2    C17   S    
C87   H62   S    
C15   H1    S    
C3    C24   S    
C36   O12   S    
C3    C55   A    
C88   H66   S    
C62   C63   A    
C86   H59   S    
C44   C46   A    
C58   H26   S    
C13   H21   S    
C64   H33   S    
C45   C47   A    
C75   H46   S    
C5    C48   S    
C46   C48   A    
O13   C85   S    
C77   H48   S    
C56   H18   S    
C6    C47   S    
C40   H12   S    
C75   C76   A    
C83   C84   A    
C38   C41   A    
C47   C49   A    
O6    Zn2   S    
C90   H71   S    
C52   O16   S    
O9    C57   S    
C4    C23   S    
O5    Zn1   S    
C76   C77   A    
C11   C26   S    
C7    C17   A    
C57   H25   S    
C8    C18   A    
C81   H51   S    
C51   C53   A    
C32   C34   A    
C70   H38   S    
C76   H47   S    
C43   C45   A    
C8    O18   S    
O17   C89   S    
C29   C31   A    
O10   C58   S    
C57   H24   S    
C60   H29   S    
C16   C18   A    
C16   H2    S    
C48   C50   A    
C9    C11   A    
C66   C67   A    
C10   C12   A    
C71   H41   S    
C4    C6    A    
C89   H67   S    
C12   C14   A    
C13   C15   A    
C36   N2    A    
C73   C74   A    
C37   C73   S    
C51   O15   S    
O4    Zn1   S    
C80   C81   A    
C74   H45   S    
C58   H28   S    
O18   C90   S    
C86   H60   S    
C71   H40   S    
C81   C82   A    
C63   C64   A    
C90   H72   S    
C59   C64   A    
C7    C9    A    
O3    Zn2   S    
C21   C25   A    
C79   C84   A    
C38   C79   S    
C24   O8    A    
C85   H57   S    
C80   H50   S    
C20   C22   A    
C79   C80   A    
C3    C5    A    
C35   O11   S    
C74   C75   A    
C1    O3    A    
C39   H11   S    
C77   C78   A    
O2    Zn2   S    
C12   C25   S    
C50   O14   S    
O14   C86   S    
C85   H56   S    
C82   H52   S    
C72   H42   S    
C23   O5    A    
C28   C30   A    
C37   C39   A    
C86   H58   S    
C30   C32   A    
C19   C59   S    
C65   C70   A    
C87   H61   S    
C35   N1    A    
C57   H23   S    
C33   C35   A    
C34   C36   A    
C14   H22   S    
C49   O13   S    
C60   C61   A    
C28   N2    A    
N1    Zn1   S    
C2    O2    A    
C22   C26   A    
C66   H34   S    
C55   H17   S    
C44   C54   A    
O8    Zn1   S    
C87   H63   S    
C8    C10   A    
C68   H36   S    
O16   C88   S    
O7    Zn2   S    
C61   C62   A    
C71   H39   S    
C69   H37   S    
C46   H16   S    
C83   H53   S    
C24   O6    A    
C89   H68   S    
C72   H43   S    
C28   H6    S    
