data_mof_unit_3607.cif
_audit_creation_date              2012-12-10T16:54:33-0500
_audit_creation_method            fapswitch 2.2
_symmetry_space_group_name_H-M    P1
_symmetry_Int_Tables_number       1
_space_group_crystal_system       triclinic
_cell_length_a                    15.060949
_cell_length_b                    10.933919
_cell_length_c                    9.714625
_cell_angle_alpha                 90.114376
_cell_angle_beta                  90.490159
_cell_angle_gamma                 90.242866
_cell_volume                      1599.68156465

loop_
_atom_site_label
_atom_site_type_symbol
_atom_type_description
_atom_site_fract_x
_atom_site_fract_y
_atom_site_fract_z
_atom_type_partial_charge
C1    C     C_R   0.500074 0.265293 0.499631 0.938532
C2    C     C_R   0.905651 0.552877 0.395495 -0.013802
C3    C     C_R   0.960826 0.315489 0.661298 -0.009965
C4    C     C_R   0.052772 0.330318 0.668825 -0.230001
C5    C     C_R   0.095854 0.415548 0.586519 0.103828
C6    C     C_R   0.047202 0.487615 0.492384 0.036684
C7    C     C_R   0.092402 0.566349 0.400462 0.017435
C8    C     C_R   0.043620 0.638764 0.306254 0.318749
C9    C     C_R   0.950762 0.628851 0.300568 -0.161886
C10   C     C_R   0.188039 0.423961 0.591645 -0.200395
C11   C     C_R   0.232660 0.497970 0.498344 -0.061755
C12   C     C_R   0.329002 0.500146 0.499503 0.780269
C13   C     C_R   0.185635 0.566807 0.401583 -0.212641
C14   C     C_2   0.498215 0.934131 0.384759 0.312477
C15   C     C_2   0.510986 0.867017 0.499220 -0.354079
C16   C     C_2   0.517635 0.066719 0.388127 0.318025
C17   C     C_2   0.493261 0.133071 0.498061 -0.338278
C18   C     C_2   0.454340 0.422000 0.922493 0.460128
C19   C     C_2   0.467319 0.410983 0.077537 -0.114924
C20   C     C_R   0.501170 0.734834 0.499826 0.893846
C21   C     C_R   0.671125 0.494611 0.500439 0.817638
C22   C     C_R   0.813129 0.551413 0.400579 -0.164831
C23   C     C_R   0.768074 0.483621 0.499339 -0.126809
C24   C     C_R   0.815005 0.407469 0.592126 -0.054989
C25   C     C_R   0.909046 0.399503 0.582170 0.009927
C26   C     C_R   0.953848 0.480238 0.490261 0.049074
Cu1   Cu    Cu3+1 0.500020 0.500020 0.638630 1.058710
Cu2   Cu    Cu3+1 0.499980 0.499980 0.361370 1.034301
H1    H     H_    0.774631 0.609172 0.332407 0.172788
H2    H     H_    0.534044 0.909356 0.594337 0.134307
H3    H     H_    0.462827 0.090251 0.586847 0.111193
H4    H     H_    0.446678 0.326987 0.127278 0.175768
H5    H     H_    0.502638 0.584014 0.109301 0.209319
H6    H     H_    0.091858 0.268962 0.732538 0.172029
H7    H     H_    0.225548 0.368637 0.664079 0.171756
H8    H     H_    0.223000 0.620080 0.328165 0.169394
N1    N     N_2   0.499020 0.498660 0.846910 -0.256946
N2    N     N_2   0.499000 0.498630 0.153040 -0.268743
O1    O     O_R   0.500020 0.321960 0.617040 -0.539878
O2    O     O_R   0.499980 0.321920 0.382900 -0.537444
O3    O     O_R   0.370270 0.499990 0.617090 -0.544936
O4    O     O_R   0.370240 0.499950 0.382940 -0.591884
O5    O     O_R   0.500020 0.678080 0.617100 -0.569362
O6    O     O_R   0.499980 0.678040 0.382960 -0.523206
O7    O     O_R   0.629760 0.500050 0.617060 -0.577705
O8    O     O_R   0.629730 0.500010 0.382910 -0.550064
O9    O     O_3   0.559168 0.122450 0.278022 -0.688260
H9    H     H_    0.580829 0.058002 0.214905 0.343296
O10   O     O_3   0.392118 0.348601 0.857357 -0.696867
H10   H     H_    0.362622 0.297376 0.927681 0.300883
C27   C     C_2   0.581672 0.547478 0.895821 0.967772
O11   O     O_2   0.634846 0.482558 0.957134 -0.574503
O12   O     O_R   0.603787 0.668655 0.865882 -0.739805
H11   H     H_    0.664566 0.692647 0.902905 0.348681
C28   C     C_2   0.766465 0.345364 0.704876 0.893193
O13   O     O_2   0.704091 0.277034 0.678312 -0.564017
O14   O     O_R   0.793519 0.363807 0.841407 -0.699166
H12   H     H_    0.758194 0.312536 0.908552 0.374550
C29   C     C_2   0.924725 0.201162 0.721326 0.867034
O15   O     O_2   0.948973 0.168058 0.835785 -0.541894
O16   O     O_R   0.866207 0.128309 0.644019 -0.741303
H13   H     H_    0.846934 0.052109 0.695214 0.353043
O17   O     O_3   0.084701 0.717340 0.215394 -0.704693
H14   H     H_    0.132591 0.761164 0.265840 0.323938
C30   C     C_2   0.902079 0.700450 0.194020 0.961572
O18   O     O_2   0.855363 0.647316 0.109526 -0.512215
O19   O     O_R   0.909736 0.827767 0.187457 -0.681981
H15   H     H_    0.946632 0.863243 0.265706 0.317518
O20   O     O_3   0.467468 0.879784 0.264534 -0.698745
H16   H     H_    0.452469 0.944902 0.197504 0.330315

loop_
_geom_bond_atom_site_label_1
_geom_bond_atom_site_label_2
_ccdc_geom_bond_type
C2    C22   A    
C7    C13   A    
C11   C12   S    
C12   O3    A    
C22   H1    S    
Cu1   O3    S    
C1    C17   S    
H5    N2    S    
Cu2   N2    S    
C28   O13   D    
C19   H4    S    
Cu1   O7    S    
C9    C30   S    
C28   O14   S    
C8    C9    A    
C29   O15   D    
C2    C26   A    
O12   H11   S    
C24   C28   S    
C11   C13   A    
Cu2   O8    S    
O14   H12   S    
C6    C26   A    
Cu1   N1    S    
C3    C25   A    
N1    C27   S    
C5    C6    A    
C16   O9    S    
Cu2   O4    S    
O19   H15   S    
C20   O6    A    
C18   N1    D    
C21   O8    A    
C6    C7    A    
C21   O7    A    
O20   H16   S    
C21   C23   S    
C14   C16   S    
O16   H13   S    
C17   H3    S    
C14   O20   S    
C4    H6    S    
C29   O16   S    
C16   C17   D    
C10   C11   A    
Cu2   O2    S    
C8    O17   S    
C5    C10   A    
O17   H14   S    
C10   H7    S    
Cu1   O5    S    
C7    C8    A    
C20   O5    A    
C27   O11   D    
C24   C25   A    
C13   H8    S    
C15   C20   S    
C30   O18   D    
C15   H2    S    
Cu1   Cu2   S    
O10   H10   S    
C1    O1    A    
C19   N2    D    
C18   C19   S    
C12   O4    A    
C23   C24   A    
C1    O2    A    
C30   O19   S    
C25   C26   A    
C14   C15   D    
C2    C9    A    
Cu2   O6    S    
C22   C23   A    
C3    C4    A    
O9    H9    S    
C18   O10   S    
Cu1   O1    S    
C4    C5    A    
C27   O12   S    
C3    C29   S    
