data_mof_unit_2850.cif
_audit_creation_date              2013-03-05T16:13:55-0500
_audit_creation_method            fapswitch 2.2
_symmetry_space_group_name_H-M    P1
_symmetry_Int_Tables_number       1
_space_group_crystal_system       triclinic
_cell_length_a                    20.264854
_cell_length_b                    22.770277
_cell_length_c                    6.94469
_cell_angle_alpha                 89.825093
_cell_angle_beta                  86.684673
_cell_angle_gamma                 90.052447
_cell_volume                      3199.15234609

loop_
_atom_site_label
_atom_site_type_symbol
_atom_site_description
_atom_site_fract_x
_atom_site_fract_y
_atom_site_fract_z
_atom_type_partial_charge
O1    O     O_R   0.751270 0.447300 0.600030 -0.606001
O2    O     O_R   0.248730 0.947300 0.399970 -0.607254
O3    O     O_R   0.613530 0.440160 0.952150 -0.585323
O4    O     O_R   0.386470 0.940160 0.047850 -0.616042
O5    O     O_R   0.613050 0.552700 0.122560 -0.588112
O6    O     O_R   0.386950 0.052700 0.877440 -0.596314
C1    C     C_R   0.591889 0.425432 0.787543 1.012924
C2    C     C_R   0.408149 0.925550 0.213375 1.013125
O7    O     O_R   0.750780 0.440350 0.929820 -0.556912
O8    O     O_R   0.249220 0.940350 0.070180 -0.556816
O9    O     O_R   0.751280 0.552900 0.100070 -0.562534
O10   O     O_R   0.248720 0.052900 0.899930 -0.548188
C3    C     C_R   0.773184 0.425263 0.757501 0.955344
C4    C     C_R   0.226564 0.925455 0.242768 0.958395
O11   O     O_R   0.613040 0.447100 0.622520 -0.611378
O12   O     O_R   0.386960 0.947100 0.377480 -0.586519
O13   O     O_3   0.682160 0.536920 0.777780 -0.269875
O14   O     O_3   0.317840 0.036920 0.222220 -0.259443
V1    V     V_3+5 0.682160 0.493150 0.052630 1.216981
V2    V     V_3+5 0.317840 0.993150 0.947370 1.206937
O15   O     O_R   0.750790 0.559840 0.429870 -0.606105
O16   O     O_R   0.249210 0.059840 0.570130 -0.606242
C5    C     C_R   0.773717 0.574188 0.257448 1.052399
C6    C     C_R   0.225661 0.073695 0.742518 1.052594
O17   O     O_R   0.613540 0.559650 0.452200 -0.596127
O18   O     O_R   0.386460 0.059650 0.547800 -0.586162
C7    C     C_R   0.592529 0.575160 0.286347 1.065756
C8    C     C_R   0.407699 0.075120 0.712910 1.062144
V3    V     V_3+5 0.682160 0.506850 0.552630 1.172561
V4    V     V_3+5 0.317840 0.006850 0.447370 1.193924
O19   O     O_3   0.682150 0.463080 0.277610 -0.281514
O20   O     O_3   0.317850 0.963080 0.722390 -0.286180
C9    C     C_R   0.578184 0.864675 0.259959 -0.313511
C10   C     C_R   0.421983 0.360699 0.864400 -0.307691
H1    H     H_    0.667641 0.784701 0.303410 0.147533
H2    H     H_    0.330629 0.280180 0.844013 0.146475
H3    H     H_    0.627549 0.881504 0.277550 0.142882
H4    H     H_    0.372415 0.375805 0.905204 0.142591
C11   C     C_R   0.463070 0.883650 0.216707 -0.317308
C12   C     C_R   0.537204 0.383031 0.792474 -0.322085
C13   C     C_R   0.474969 0.594640 0.270558 -0.271222
C14   C     C_R   0.525979 0.095824 0.693380 -0.254393
C15   C     C_R   0.420258 0.630745 0.268216 -0.229963
C16   C     C_R   0.580468 0.131399 0.714909 -0.244216
C17   C     C_R   0.426553 0.691773 0.273817 0.648960
C18   C     C_R   0.573740 0.192093 0.747395 0.663783
C19   C     C_R   0.490621 0.718656 0.266635 -0.141267
C20   C     C_R   0.509453 0.218151 0.754264 -0.126199
C21   C     C_R   0.546874 0.680624 0.285638 -0.122077
C22   C     C_R   0.452856 0.180192 0.742197 -0.131102
C23   C     C_R   0.501150 0.781335 0.248766 0.140879
C24   C     C_R   0.498900 0.280443 0.777862 0.145528
C25   C     C_R   0.565868 0.804005 0.265265 0.068067
C26   C     C_R   0.433928 0.301198 0.823577 0.056467
C27   C     C_R   0.618543 0.766601 0.291469 -0.376672
C28   C     C_R   0.380373 0.263326 0.818740 -0.367368
C29   C     C_R   0.609843 0.706118 0.308708 0.570030
C30   C     C_R   0.388719 0.205130 0.761336 0.592064
C31   C     C_R   0.450821 0.822942 0.212780 -0.301297
C32   C     C_R   0.549533 0.323499 0.752048 -0.259473
C33   C     C_R   0.527122 0.904544 0.238236 0.630721
C34   C     C_R   0.473264 0.401602 0.850312 0.632069
C35   C     C_R   0.537971 0.618199 0.284361 -0.164834
C36   C     C_R   0.462204 0.118569 0.712247 -0.157210
H5    H     H_    0.401665 0.810599 0.179758 0.198285
H6    H     H_    0.598477 0.312883 0.694970 0.180295
H7    H     H_    0.467833 0.547467 0.266397 0.160296
H8    H     H_    0.533627 0.049151 0.671414 0.147205
H9    H     H_    0.371624 0.611042 0.266482 0.149733
H10   H     H_    0.628404 0.110572 0.715207 0.136007
C37   C     C_R   0.172709 0.880204 0.261458 -0.318107
C38   C     C_R   0.826546 0.379716 0.738970 -0.323043
C39   C     C_R   0.152280 0.848197 0.100268 0.628495
C40   C     C_R   0.846151 0.346705 0.899586 0.618758
C41   C     C_R   0.099766 0.807740 0.122356 -0.314875
C42   C     C_R   0.898503 0.306169 0.877135 -0.319050
C43   C     C_R   0.068295 0.796342 0.305192 0.171047
C44   C     C_R   0.930469 0.295648 0.694473 0.169729
C45   C     C_R   0.090535 0.826296 0.464970 -0.152745
C46   C     C_R   0.908826 0.326497 0.535275 -0.155868
C47   C     C_R   0.141242 0.868110 0.443364 -0.223627
C48   C     C_R   0.858302 0.368312 0.557165 -0.223242
C49   C     C_R   0.925884 0.662964 0.371841 -0.135379
C50   C     C_R   0.077467 0.166757 0.617303 -0.142032
C51   C     C_R   0.873999 0.622037 0.385280 -0.254868
C52   C     C_R   0.129943 0.126507 0.603769 -0.264569
C53   C     C_R   0.933594 0.701042 0.211554 0.185049
C54   C     C_R   0.063433 0.198379 0.789144 0.189613
N1    N     N_2   0.015357 0.754918 0.334668 -0.093118
N2    N     N_2   0.983733 0.254679 0.664511 -0.094656
N3    N     N_2   0.986657 0.742354 0.185456 -0.087715
N4    N     N_2   0.009759 0.238947 0.815257 -0.088466
C55   C     C_R   0.828125 0.618429 0.240894 -0.293597
C56   C     C_R   0.170358 0.117255 0.759651 -0.303211
H11   H     H_    0.870128 0.592620 0.508302 0.165741
H12   H     H_    0.138622 0.102191 0.470930 0.187827
H13   H     H_    0.960482 0.663931 0.484868 0.130237
H14   H     H_    0.047471 0.172280 0.494507 0.130593
H15   H     H_    0.067496 0.818042 0.607122 0.136389
H16   H     H_    0.932223 0.318948 0.393317 0.136957
H17   H     H_    0.155385 0.891559 0.569736 0.211810
H18   H     H_    0.844600 0.392347 0.430973 0.210378
C57   C     C_R   0.833736 0.658474 0.085347 0.658853
C58   C     C_R   0.158116 0.150854 0.928756 0.659050
C59   C     C_R   0.887811 0.697657 0.068502 -0.370362
C60   C     C_R   0.103531 0.189307 0.943866 -0.373017
H19   H     H_    0.084394 0.784922 0.995865 0.142546
H20   H     H_    0.913482 0.282777 0.003374 0.143451
H21   H     H_    0.893168 0.726835 0.945079 0.144956
H22   H     H_    0.093207 0.213380 0.076523 0.141564
O21   O     O_3   0.539247 0.964130 0.250580 -0.631751
C61   C     C_3   0.560369 0.984895 0.065762 -0.266321
H23   H     H_    0.522104 0.977374 0.959670 0.137043
H24   H     H_    0.608011 0.964376 0.014508 0.135449
H25   H     H_    0.568590 0.032972 0.074286 0.187763
O22   O     O_3   0.461196 0.459483 0.900596 -0.632713
C62   C     C_3   0.440002 0.489629 0.737652 -0.271509
H26   H     H_    0.392384 0.471626 0.691281 0.137704
H27   H     H_    0.478214 0.488484 0.615874 0.138757
H28   H     H_    0.431715 0.536368 0.776669 0.182029
O23   O     O_3   0.785337 0.659610 0.952543 -0.615639
C63   C     C_3   0.754875 0.715471 0.953670 -0.246421
H29   H     H_    0.778914 0.743572 0.838942 0.133640
H30   H     H_    0.755247 0.738444 0.095259 0.143289
H31   H     H_    0.702203 0.709778 0.923174 0.164539
O24   O     O_3   0.199911 0.145904 0.078759 -0.610508
C64   C     C_3   0.229843 0.200743 0.112318 -0.215229
H32   H     H_    0.202784 0.223134 0.234778 0.128582
H33   H     H_    0.233072 0.230493 0.984147 0.130243
H34   H     H_    0.281331 0.192823 0.150979 0.167837
O25   O     O_3   0.180934 0.858420 0.918043 -0.628740
C65   C     C_3   0.228869 0.814739 0.876599 -0.226794
H35   H     H_    0.266327 0.813109 0.987835 0.135224
H36   H     H_    0.255385 0.825785 0.737053 0.164793
H37   H     H_    0.205421 0.770934 0.861277 0.130023
O26   O     O_3   0.817059 0.356113 0.081703 -0.629184
C66   C     C_3   0.769633 0.311751 0.122190 -0.213410
H38   H     H_    0.730665 0.312181 0.015499 0.145547
H39   H     H_    0.745074 0.320273 0.266346 0.167039
H40   H     H_    0.793058 0.267639 0.127550 0.125554
O27   O     O_3   0.368552 0.723418 0.289919 -0.651385
C67   C     C_3   0.350641 0.731325 0.487386 -0.322852
H41   H     H_    0.388730 0.756992 0.560276 0.156031
H42   H     H_    0.341550 0.688514 0.562185 0.152775
H43   H     H_    0.303871 0.756598 0.499738 0.173956
O28   O     O_3   0.627775 0.223524 0.805934 -0.635330
C68   C     C_3   0.681786 0.219314 0.668236 -0.365984
H44   H     H_    0.666215 0.221271 0.516967 0.146482
H45   H     H_    0.710821 0.178898 0.692197 0.169120
H46   H     H_    0.715188 0.257215 0.687707 0.171948
O29   O     O_3   0.663929 0.672345 0.349842 -0.661259
C69   C     C_3   0.677804 0.681812 0.544359 -0.174609
H47   H     H_    0.635282 0.668472 0.643699 0.137753
H48   H     H_    0.691692 0.728185 0.571088 0.102268
H49   H     H_    0.720848 0.654891 0.579786 0.212308
O30   O     O_3   0.333138 0.173557 0.720296 -0.651400
C70   C     C_3   0.315072 0.190757 0.535017 -0.270272
H50   H     H_    0.354544 0.179442 0.423087 0.150082
H51   H     H_    0.303077 0.238380 0.528070 0.126598
H52   H     H_    0.269796 0.167024 0.500004 0.193412

loop_
_geom_bond_atom_site_label_1
_geom_bond_atom_site_label_2
_geom_bond_distance
_ccdc_geom_bond_type
C49   C53   1.410325 A    
C39   O25   1.380511 S    
C41   H19   1.082945 S    
C70   H50   1.113611 S    
C21   C35   1.432809 A    
C53   N3    1.431300 S    
C62   H26   1.113069 S    
C22   C36   1.430299 A    
C4    C37   1.500100 S    
C68   H44   1.114996 S    
C11   C31   1.404845 A    
O4    C2    1.296692 A    
V1    O19   1.703934 S    
C55   C57   1.410975 A    
C58   C60   1.410716 A    
C12   C34   1.400321 A    
C19   C21   1.444079 A    
C47   H17   1.081254 S    
C44   N2    1.433757 S    
C66   H39   1.109647 S    
O9    V1    1.993532 S    
O24   C64   1.413600 S    
C40   C42   1.409014 A    
C12   C32   1.404865 A    
C45   H15   1.083180 S    
O30   C70   1.412346 S    
C68   H45   1.110034 S    
C42   C44   1.411837 A    
O3    C1    1.292914 A    
C62   H27   1.113543 S    
V2    O20   1.707763 S    
C44   C46   1.399992 A    
O12   V4    1.994361 S    
C10   C34   1.393886 A    
C21   C29   1.419086 A    
O22   C62   1.410030 S    
O17   V3    1.993920 S    
C2    O12   1.292743 A    
C17   C19   1.433088 A    
O7    C3    1.302379 A    
C24   C32   1.421956 A    
O5    C7    1.295193 A    
C51   C55   1.408741 A    
O7    V1    1.994669 S    
O6    C8    1.297480 A    
C54   N4    1.431547 S    
C16   C18   1.406456 A    
C65   H35   1.114456 S    
C40   O26   1.381555 S    
C1    C12   1.467939 S    
O3    V1    1.997843 S    
O14   V4    1.705027 S    
C2    C11   1.467753 S    
N1    N3    1.251031 D    
C52   C56   1.410157 A    
C25   C27   1.386039 A    
C32   H6    1.074644 S    
C42   H20   1.082893 S    
C46   H16   1.083222 S    
C14   H8    1.084112 S    
C13   C15   1.381692 A    
C67   H43   1.108488 S    
C14   C16   1.384209 A    
V3    O19   2.157040 S    
C61   H24   1.113187 S    
C61   H23   1.113587 S    
C24   C26   1.418229 A    
O11   V3    1.990585 S    
C18   C20   1.430375 A    
C43   C45   1.400517 A    
C9    C25   1.403627 A    
C11   C33   1.398294 A    
C66   H40   1.112789 S    
C26   C28   1.387556 A    
H1    C27   1.084298 S    
C22   C30   1.418179 A    
C65   H37   1.112484 S    
C68   H46   1.109739 S    
C13   H7    1.084393 S    
O8    C4    1.302301 A    
C62   H28   1.109534 S    
O8    V2    1.989989 S    
C45   C47   1.401589 A    
C19   C23   1.446786 A    
C1    O11   1.296103 A    
O15   V3    1.992598 S    
C9    H3    1.084541 S    
C5    C55   1.492082 S    
C23   C25   1.419916 A    
C64   H33   1.115776 S    
C34   O22   1.382853 S    
H2    C28   1.083928 S    
C6    C56   1.497097 S    
C54   C60   1.399093 A    
N2    N4    1.250748 D    
C53   C59   1.400208 A    
C69   H49   1.105457 S    
O29   C69   1.412782 S    
C43   N1    1.433208 S    
O10   V2    1.993909 S    
O1    V3    1.990603 S    
C48   H18   1.081727 S    
C58   O24   1.384476 S    
C57   C59   1.411852 A    
C52   H12   1.083092 S    
C16   H10   1.081492 S    
C20   C22   1.441982 A    
C41   C43   1.410793 A    
O23   C63   1.414214 S    
C30   O30   1.379722 S    
C17   O27   1.378437 S    
C65   H36   1.108689 S    
C8    C36   1.481973 S    
C38   C40   1.419057 A    
C49   C51   1.403215 A    
C69   H48   1.111475 S    
C10   C26   1.403429 A    
C70   H52   1.103936 S    
O15   C5    1.299769 A    
O16   C6    1.302692 A    
C23   C31   1.424790 A    
C39   C41   1.408236 A    
C63   H30   1.115602 S    
O25   C65   1.409576 S    
C33   O21   1.382445 S    
C14   C36   1.392013 A    
C67   H42   1.113340 S    
C37   C39   1.419043 A    
O28   C68   1.414680 S    
C60   H22   1.083498 S    
C59   H21   1.083281 S    
O16   V4    1.997286 S    
O21   C61   1.409442 S    
C10   H4    1.084392 S    
C50   C54   1.410636 A    
C15   H9    1.083205 S    
C50   C52   1.403711 A    
O26   C66   1.410091 S    
O18   V4    1.994953 S    
O5    V1    1.991165 S    
C3    C38   1.499448 S    
O17   C7    1.298914 A    
O6    V2    1.987401 S    
C66   H38   1.113697 S    
O10   C6    1.301505 A    
O18   C8    1.297450 A    
O2    V4    1.990223 S    
C50   H14   1.082589 S    
C63   H31   1.107713 S    
C27   C29   1.392209 A    
C64   H34   1.107130 S    
C15   C17   1.396204 A    
O13   V3    1.708856 S    
C31   H5    1.072474 S    
V4    O20   2.151645 S    
C51   H11   1.083246 S    
C18   O28   1.388645 S    
C9    C33   1.391619 A    
C29   O29   1.382296 S    
O9    C5    1.302514 A    
O13   V1    2.150589 S    
C46   C48   1.400958 A    
C28   C30   1.392606 A    
O14   V2    2.155983 S    
O2    C4    1.304103 A    
C56   C58   1.413571 A    
O4    V2    1.996809 S    
C20   C24   1.443037 A    
O1    C3    1.303130 A    
C69   H47   1.113649 S    
C70   H51   1.113032 S    
C49   H13   1.082562 S    
C13   C35   1.392915 A    
C67   H41   1.113439 S    
C7    C35   1.478727 S    
C63   H29   1.110400 S    
O27   C67   1.410249 S    
C61   H25   1.109470 S    
C38   C48   1.408541 A    
C64   H32   1.110450 S    
C37   C47   1.408093 A    
C57   O23   1.384826 S    
