data_mof_unit_1920.cif
_audit_creation_date              2012-12-11T16:37:20-0500
_audit_creation_method            fapswitch 2.2
_symmetry_space_group_name_H-M    P1
_symmetry_Int_Tables_number       1
_space_group_crystal_system       triclinic
_cell_length_a                    19.4828
_cell_length_b                    6.977799
_cell_length_c                    17.677056
_cell_angle_alpha                 89.999824
_cell_angle_beta                  108.892671
_cell_angle_gamma                 89.99722
_cell_volume                      2273.67874684

loop_
_atom_site_label
_atom_site_type_symbol
_atom_type_description
_atom_site_fract_x
_atom_site_fract_y
_atom_site_fract_z
_atom_type_partial_charge
O1    O     O_R   0.561710 0.369960 0.440200 -0.539353
O2    O     O_R   0.061710 0.630040 0.940200 -0.539322
O3    O     O_R   0.412630 0.033330 0.406330 -0.543144
O4    O     O_R   0.912630 0.966670 0.906330 -0.543187
O5    O     O_R   0.438290 0.869790 0.559800 -0.537505
O6    O     O_R   0.938290 0.130210 0.059800 -0.537507
C1    C     C_R   0.385082 0.203482 0.383144 0.702854
C2    C     C_R   0.885081 0.796528 0.883145 0.702771
O7    O     O_R   0.559570 0.039810 0.430640 -0.538091
O8    O     O_R   0.059570 0.960190 0.930640 -0.538085
O9    O     O_R   0.586280 0.876320 0.584290 -0.535840
O10   O     O_R   0.086280 0.123680 0.084290 -0.535844
C3    C     C_R   0.579981 0.208644 0.414405 0.695518
C4    C     C_R   0.079978 0.791349 0.914403 0.695519
O11   O     O_R   0.413720 0.363440 0.415710 -0.534899
O12   O     O_R   0.913720 0.636560 0.915710 -0.534800
O13   O     O_3   0.508590 0.205630 0.550380 -0.369825
O14   O     O_3   0.008590 0.794370 0.050380 -0.369835
V1    V     V_3+5 0.498410 0.928130 0.490650 1.380817
V2    V     V_3+5 0.998410 0.071870 0.990650 1.380734
O15   O     O_R   0.587370 0.546990 0.593670 -0.542003
O16   O     O_R   0.087370 0.453010 0.093670 -0.542000
C5    C     C_R   0.615484 0.716812 0.616289 0.701187
C6    C     C_R   0.115483 0.283179 0.116290 0.701223
O17   O     O_R   0.440430 0.540520 0.569360 -0.541908
O18   O     O_R   0.940430 0.459480 0.069360 -0.541915
C7    C     C_R   0.418828 0.708842 0.584264 0.700685
C8    C     C_R   0.918828 0.291164 0.084263 0.700696
V3    V     V_3+5 0.501590 0.428960 0.509350 1.384867
V4    V     V_3+5 0.001590 0.571040 0.009350 1.384922
O19   O     O_3   0.491410 0.701330 0.449620 -0.373600
O20   O     O_3   0.991410 0.298670 0.949620 -0.373617
C9    C     C_R   0.316393 0.890324 0.719985 -0.193847
C10   C     C_R   0.816355 0.109656 0.219935 -0.193865
C11   C     C_R   0.363075 0.883943 0.674307 -0.168645
C12   C     C_R   0.863034 0.116016 0.174256 -0.168628
C13   C     C_R   0.369242 0.716652 0.632902 -0.091536
C14   C     C_R   0.869243 0.283372 0.132901 -0.091531
C15   C     C_R   0.326641 0.556769 0.637130 -0.165214
C16   C     C_R   0.826685 0.443341 0.137177 -0.165232
C17   C     C_R   0.278176 0.562788 0.681448 0.196417
C18   C     C_R   0.778218 0.437348 0.181491 0.196462
C19   C     C_R   0.273707 0.731114 0.724595 0.080628
C20   C     C_R   0.773708 0.268949 0.224593 0.080646
C21   C     C_R   0.228928 0.621030 0.835936 -0.133101
C22   C     C_R   0.728875 0.379126 0.335892 -0.133059
H1    H     H_    0.270581 0.511734 0.851838 0.117546
H2    H     H_    0.770498 0.488501 0.351780 0.117558
C23   C     C_R   0.181434 0.636196 0.880355 -0.210448
C24   C     C_R   0.681377 0.363943 0.380303 -0.210473
C25   C     C_R   0.128512 0.781389 0.864309 -0.060431
C26   C     C_R   0.628519 0.218597 0.364315 -0.060420
C27   C     C_R   0.123639 0.912417 0.801075 0.155133
C28   C     C_R   0.623726 0.087416 0.301153 0.155054
C29   C     C_R   0.171187 0.892980 0.756054 -0.151321
C30   C     C_R   0.671250 0.106925 0.256110 -0.151345
C31   C     C_R   0.223583 0.747211 0.772602 0.058122
C32   C     C_R   0.723579 0.252847 0.272597 0.058156
C33   C     C_R   0.772155 0.615892 0.806884 0.058695
C34   C     C_R   0.272172 0.384170 0.306856 0.058738
C35   C     C_R   0.815527 0.780169 0.816302 -0.108994
C36   C     C_R   0.315534 0.219860 0.316298 -0.108811
C37   C     C_R   0.792624 0.920833 0.757322 -0.212531
C38   C     C_R   0.292616 0.079132 0.257355 -0.212748
C39   C     C_R   0.728210 0.899456 0.692095 -0.170655
C40   C     C_R   0.228203 0.100499 0.192121 -0.170777
C41   C     C_R   0.683491 0.736460 0.684984 -0.123230
C42   C     C_R   0.183487 0.263517 0.184989 -0.123258
C43   C     C_R   0.705380 0.599271 0.745629 0.073468
C44   C     C_R   0.205385 0.400757 0.245609 0.073517
C45   C     C_3   0.714833 0.390444 0.735810 -0.038731
C46   C     C_3   0.214835 0.609549 0.235726 -0.038717
C47   C     C_3   0.791728 0.412803 0.794432 -0.014709
C48   C     C_3   0.291751 0.587174 0.294284 -0.014836
H3    H     H_    0.803451 0.323045 0.849195 0.149336
H4    H     H_    0.303549 0.677101 0.349006 0.149436
H5    H     H_    0.313777 0.020342 0.752345 0.126892
H6    H     H_    0.813710 0.979580 0.252258 0.126865
H7    H     H_    0.714245 0.008988 0.646293 0.132974
H8    H     H_    0.214231 0.990925 0.146339 0.133071
H9    H     H_    0.711292 0.349350 0.673871 0.147530
H10   H     H_    0.211261 0.650576 0.173768 0.147601
C49   C     C_3   0.663411 0.276946 0.769153 -0.788081
H11   H     H_    0.659354 0.343256 0.824771 0.204982
H12   H     H_    0.608438 0.272512 0.723930 0.228595
H13   H     H_    0.682838 0.128539 0.784032 0.227981
C50   C     C_3   0.163452 0.723117 0.269109 -0.788090
H14   H     H_    0.159357 0.656720 0.324695 0.204984
H15   H     H_    0.182934 0.871442 0.284067 0.227971
H16   H     H_    0.108485 0.727770 0.223882 0.228605
C51   C     C_3   0.850942 0.403680 0.753194 -0.770214
H17   H     H_    0.903164 0.356952 0.796957 0.228233
H18   H     H_    0.836116 0.303531 0.701774 0.183761
H19   H     H_    0.859816 0.543628 0.727964 0.213215
C52   C     C_3   0.350887 0.595927 0.252933 -0.770959
H20   H     H_    0.403289 0.641231 0.296754 0.228424
H21   H     H_    0.359270 0.456149 0.227231 0.213373
H22   H     H_    0.336270 0.696921 0.201808 0.183917
H23   H     H_    0.395044 0.009594 0.672204 0.133513
H24   H     H_    0.894968 0.990294 0.172113 0.133509
H25   H     H_    0.329908 0.428006 0.604188 0.121722
H26   H     H_    0.829987 0.572162 0.104274 0.121736
C53   C     C_3   0.229522 0.392906 0.678479 -0.826696
H27   H     H_    0.171987 0.439820 0.659546 0.219659
H28   H     H_    0.243711 0.323813 0.737958 0.204490
H29   H     H_    0.234834 0.282866 0.635307 0.206066
C54   C     C_3   0.729605 0.607340 0.178555 -0.826775
H30   H     H_    0.672058 0.560526 0.159670 0.219665
H31   H     H_    0.734899 0.717343 0.135355 0.206063
H32   H     H_    0.743858 0.676478 0.238030 0.204414
H33   H     H_    0.187099 0.535753 0.928741 0.123839
H34   H     H_    0.686999 0.464484 0.428648 0.123861
C55   C     C_3   0.067515 0.069698 0.778848 -0.764502
H35   H     H_    0.066840 0.144183 0.723053 0.197201
H36   H     H_    0.012599 0.008831 0.768872 0.195340
H37   H     H_    0.079748 0.178839 0.827082 0.223946
C56   C     C_3   0.567747 0.929832 0.279056 -0.764547
H38   H     H_    0.567182 0.855116 0.223364 0.197224
H39   H     H_    0.580046 0.820970 0.327387 0.223957
H40   H     H_    0.512780 0.990381 0.268989 0.195489
H41   H     H_    0.167189 0.991124 0.707292 0.121135
H42   H     H_    0.667297 0.008687 0.207389 0.121141
H43   H     H_    0.827201 0.040920 0.760085 0.152752
H44   H     H_    0.327174 0.958971 0.260174 0.152831

loop_
_geom_bond_atom_site_label_1
_geom_bond_atom_site_label_2
_ccdc_geom_bond_type
C40   C42   A    
C50   H14   S    
C37   C39   A    
C39   H7    S    
O11   V3    S    
O13   V3    S    
C52   H20   S    
O4    C2    A    
V1    O19   S    
C29   H41   S    
C52   H22   S    
C15   C17   A    
C21   C31   A    
C48   H4    S    
C11   C13   A    
O3    C1    A    
C56   H39   S    
O12   V4    S    
C34   C36   A    
O9    C5    A    
C43   C45   S    
O7    C3    A    
C36   C38   A    
C27   C55   S    
C9    C11   A    
O5    C7    A    
O7    V1    S    
O6    C8    A    
C49   H11   S    
O8    V2    S    
C39   C41   A    
C24   C26   A    
C54   H30   S    
O3    V1    S    
O14   V4    S    
C8    C14   S    
V4    O20   S    
C18   C54   S    
C33   C47   S    
C10   C12   A    
C2    C35   S    
C23   H33   S    
C55   H37   S    
C21   H1    S    
C2    O12   A    
C22   C32   A    
C17   C19   A    
C18   C20   A    
C11   H23   S    
O1    V3    S    
C26   C28   A    
C15   H25   S    
C45   C49   S    
C27   C29   A    
O17   V3    S    
C22   H2    S    
C33   C35   A    
C9    C19   A    
C10   C20   A    
C47   C51   S    
C46   C48   S    
O8    C4    A    
C56   H40   S    
C20   C32   S    
C51   H17   S    
C45   C47   S    
C19   C31   S    
C1    O11   A    
C23   C25   A    
C38   H44   S    
O15   V3    S    
C17   C53   S    
C55   H36   S    
C25   C27   A    
C30   H42   S    
C1    C36   S    
C51   H18   S    
C3    C26   S    
C4    C25   S    
C34   C44   A    
O9    V1    S    
O10   V2    S    
C24   H34   S    
C21   C23   A    
C53   H28   S    
C33   C43   A    
C42   C44   A    
C49   H12   S    
O18   V4    S    
C29   C31   A    
C54   H32   S    
O16   C6    A    
C28   C56   S    
O1    C3    A    
C47   H3    S    
C12   C14   A    
C46   C50   S    
O6    V2    S    
C55   H35   S    
V2    O20   S    
O10   C6    A    
C52   H21   S    
O16   V4    S    
C48   C52   S    
C35   C37   A    
C16   C18   A    
C37   H43   S    
C12   H24   S    
C28   C30   A    
O5    V1    S    
O17   C7    A    
C40   H8    S    
C22   C24   A    
O18   C8    A    
O2    V4    S    
O15   C5    A    
V3    O19   S    
C56   H38   S    
C10   H6    S    
C51   H19   S    
C14   C16   A    
C9    H5    S    
C54   H31   S    
C5    C41   S    
C7    C13   S    
C34   C48   S    
O13   V1    S    
C30   C32   A    
C53   H29   S    
O14   V2    S    
O2    C4    A    
C6    C42   S    
C16   H26   S    
O4    V2    S    
C49   H13   S    
C13   C15   A    
C50   H16   S    
C53   H27   S    
C50   H15   S    
C44   C46   S    
C41   C43   A    
C46   H10   S    
C38   C40   A    
C45   H9    S    
