data_mof_unit_4031.cif
_audit_creation_date              2012-12-10T17:48:56-0500
_audit_creation_method            fapswitch 2.2
_symmetry_space_group_name_H-M    P1
_symmetry_Int_Tables_number       1
_space_group_crystal_system       triclinic
_cell_length_a                    10.771511
_cell_length_b                    14.757924
_cell_length_c                    14.714435
_cell_angle_alpha                 64.961183
_cell_angle_beta                  105.144062
_cell_angle_gamma                 101.943538
_cell_volume                      2033.20053875

loop_
_atom_site_label
_atom_site_type_symbol
_atom_type_description
_atom_site_fract_x
_atom_site_fract_y
_atom_site_fract_z
_atom_type_partial_charge
Br1   Br    Br    0.226412 0.027519 0.700084 -0.150110
Br2   Br    Br    0.874866 0.863619 0.719215 -0.223938
Br3   Br    Br    0.311346 0.368354 0.774193 -0.219214
Br4   Br    Br    0.655733 0.651089 0.216782 -0.414035
Br5   Br    Br    0.202744 0.172557 0.941837 -0.150002
Br6   Br    Br    0.364695 0.012939 0.142969 -0.227682
Br7   Br    Br    0.711399 0.393353 0.824442 -0.252148
Br8   Br    Br    0.875621 0.264518 0.778192 -0.199530
Br9   Br    Br    0.365140 0.282104 0.410753 -0.296049
Br10  Br    Br    0.141455 0.818618 0.693512 -0.321955
C1    C     C_R   0.480479 0.119382 0.311135 0.900282
C2    C     C_R   0.465116 0.361687 0.074706 -0.079773
C3    C     C_R   0.390642 0.327561 0.996973 -0.231685
C4    C     C_R   0.260382 0.999575 0.501553 0.988458
C5    C     C_R   0.495409 0.467549 0.051400 0.013008
C6    C     C_R   0.466799 0.537184 0.948622 -0.086394
C7    C     C_R   0.392517 0.501260 0.873716 0.610421
C8    C     C_R   0.363250 0.399086 0.895085 0.292594
C9    C     C_R   0.545915 0.506716 0.128187 -0.088468
C10   C     C_R   0.577267 0.609475 0.105094 0.238142
C11   C     C_R   0.558429 0.678006 0.003032 -0.015906
C12   C     C_3   0.877447 0.996749 0.503079 -0.505633
C13   C     C_R   0.509843 0.641411 0.924241 0.074462
C14   C     C_R   0.588270 0.782434 0.977503 -0.145004
C15   C     C_R   0.574384 0.849852 0.875564 0.658111
C16   C     C_R   0.523701 0.880600 0.688257 0.868204
C17   C     C_R   0.512428 0.709729 0.823165 -0.117588
C18   C     C_R   0.718250 0.275672 0.677582 0.262723
C19   C     C_R   0.685471 0.199690 0.640009 0.109486
C20   C     C_R   0.522499 0.289610 0.507707 0.460177
C21   C     C_R   0.560178 0.374308 0.536495 -0.144955
C22   C     C_R   0.645932 0.359785 0.631920 -0.142285
C23   C     C_3   0.959515 0.974671 0.614349 0.756412
C24   C     C_R   0.508891 0.469459 0.478448 0.041434
C25   C     C_R   0.519820 0.539346 0.524327 0.001329
C26   C     C_R   0.581030 0.511219 0.628129 0.655726
C27   C     C_R   0.648222 0.425905 0.679987 0.236304
C28   C     C_R   0.739433 0.999225 0.500087 0.920558
C29   C     C_R   0.450775 0.499054 0.374241 -0.059953
C30   C     C_R   0.373937 0.577371 0.325254 0.026441
C31   C     C_R   0.373786 0.641732 0.372076 -0.184791
C32   C     C_R   0.459895 0.631105 0.466102 -0.149678
C33   C     C_R   0.295861 0.720907 0.322872 0.503279
C34   C     C_3   0.930410 0.100657 0.427504 0.338703
C35   C     C_R   0.313988 0.794881 0.361445 0.659327
C36   C     C_R   0.486731 0.716199 0.492329 0.753544
C37   C     C_3   0.033390 0.926178 0.454206 0.306355
C38   C     C_3   0.892789 0.916350 0.465413 0.258878
C39   C     C_3   0.102049 0.959269 0.618450 0.233183
C40   C     C_3   0.078089 0.105760 0.441494 1.099117
C41   C     C_3   0.122514 0.998085 0.504747 -0.534638
C42   C     C_R   0.461877 0.186605 0.200270 -0.268494
C43   C     C_R   0.537623 0.813435 0.797366 -0.202639
C44   C     C_R   0.347249 0.223304 0.024217 0.304858
C45   C     C_R   0.391055 0.153283 0.122729 0.195499
C46   C     C_R   0.507892 0.288662 0.173197 0.578701
Cu1   Cu    Cu3+1 0.465900 0.918260 0.475680 1.141468
Cu2   Cu    Cu3+1 0.534100 0.081740 0.524320 1.144345
F1    F     F_    0.900862 0.181177 0.440400 -0.495848
F2    F     F_    0.205071 0.727607 0.237225 -0.549060
F3    F     F_    0.858178 0.819881 0.532417 -0.542845
F4    F     F_    0.136701 0.169019 0.491768 -0.510257
F5    F     F_    0.111681 0.146926 0.346018 -0.587005
F6    F     F_    0.962854 0.057846 0.636443 -0.536979
F7    F     F_    0.600984 0.949958 0.854325 -0.599611
F8    F     F_    0.607584 0.312792 0.240432 -0.623256
F9    F     F_    0.038464 0.962622 0.351295 -0.548301
F10   F     F_    0.336830 0.564618 0.779948 -0.601759
F11   F     F_    0.593864 0.726879 0.561226 -0.525809
F12   F     F_    0.236036 0.869547 0.317450 -0.509344
F13   F     F_    0.564253 0.559303 0.684141 -0.580897
H1    H     H_    0.065899 0.849837 0.489688 0.238309
H2    H     H_    0.500690 0.682929 0.763507 0.284305
H3    H     H_    0.556606 0.459828 0.208080 0.219324
H4    H     H_    0.621304 0.813174 0.035712 0.227017
H5    H     H_    0.321101 0.591181 0.247891 0.203401
H6    H     H_    0.738675 0.134572 0.675899 0.212267
H7    H     H_    0.827854 0.927683 0.389767 0.187978
H8    H     H_    0.464651 0.462603 0.328700 0.155024
H9    H     H_    0.884075 0.109030 0.347674 0.116654
N1    N     N_R   0.585360 0.204570 0.560800 -0.245987
N2    N     N_R   0.414550 0.795430 0.439160 -0.362808
O1    O     O_R   0.455060 0.022100 0.338110 -0.546252
O2    O     O_R   0.512640 0.160150 0.379180 -0.515871
O3    O     O_R   0.288900 0.930980 0.479450 -0.531944
O4    O     O_R   0.346480 0.069030 0.520520 -0.519979
O5    O     O_R   0.487360 0.839850 0.620820 -0.542332
O6    O     O_R   0.544940 0.977900 0.661890 -0.547720
O7    O     O_R   0.653520 0.930970 0.479480 -0.534643
O8    O     O_R   0.711100 0.069020 0.520550 -0.504758

loop_
_geom_bond_atom_site_label_1
_geom_bond_atom_site_label_2
_ccdc_geom_bond_type
C12   C38   S    
C31   C32   A    
C9    C10   A    
Br6   C45   S    
C38   F3    S    
C21   C22   A    
C5    C9    A    
C28   O7    A    
Cu1   O7    S    
C3    C8    A    
C18   C19   A    
C15   C43   A    
C20   C21   A    
C35   N2    A    
C34   F1    S    
C23   C39   S    
C5    C6    A    
C12   C28   S    
Br3   C8    S    
C24   C25   A    
C32   C36   A    
C38   H7    S    
C25   C32   A    
C36   F11   S    
C1    C42   S    
C36   N2    A    
C12   C34   S    
C37   C38   S    
C6    C7    A    
C39   C41   S    
Cu1   O1    S    
C13   C17   A    
C42   C45   A    
C40   F5    S    
C31   C33   A    
Cu2   O4    S    
C37   F9    S    
C7    C8    A    
C24   C29   A    
Br5   C44   S    
C34   H9    S    
C15   F7    S    
C14   C15   A    
C4    O4    A    
C26   F13   S    
Cu2   N1    S    
C29   C30   A    
C16   O5    A    
C37   C41   S    
C1    O1    A    
C30   H5    S    
C25   C26   A    
C29   H8    S    
C19   N1    A    
Cu2   O2    S    
C33   C35   A    
C4    C41   S    
C2    C5    A    
C18   C22   A    
C40   C41   S    
Br7   C27   S    
C21   C24   A    
C22   C27   A    
C10   C11   A    
Cu2   O8    S    
C2    C46   A    
C33   F2    S    
Br9   C20   S    
Br2   C23   S    
C30   C31   A    
C6    C13   A    
C11   C13   A    
C40   F4    S    
C16   C43   S    
C3    C44   A    
C34   C40   S    
C12   C23   S    
C44   C45   A    
C26   C27   A    
C7    F10   S    
C35   F12   S    
C9    H3    S    
C4    O3    A    
Cu2   O6    S    
C17   C43   A    
C14   H4    S    
C1    O2    A    
C28   O8    A    
C20   N1    A    
Cu1   Cu2   S    
C23   F6    S    
C46   F8    S    
Cu1   O3    S    
C37   H1    S    
Br4   C10   S    
Cu1   O5    S    
C19   H6    S    
C2    C3    A    
Br8   C18   S    
C16   O6    A    
C11   C14   A    
Cu1   N2    S    
C17   H2    S    
Br10  C39   S    
Br1   C39   S    
C42   C46   A    
