data_mof_unit_657.cif
_audit_creation_date              2013-03-05T15:45:12-0500
_audit_creation_method            fapswitch 2.2
_symmetry_space_group_name_H-M    P1
_symmetry_Int_Tables_number       1
_space_group_crystal_system       triclinic
_cell_length_a                    11.491058
_cell_length_b                    11.533138
_cell_length_c                    19.504411
_cell_angle_alpha                 90.722601
_cell_angle_beta                  90.072726
_cell_angle_gamma                 60.021236
_cell_volume                      2238.83455294

loop_
_atom_site_label
_atom_site_type_symbol
_atom_site_description
_atom_site_fract_x
_atom_site_fract_y
_atom_site_fract_z
_atom_type_partial_charge
O1    O     O_R   0.267740 0.231990 0.575440 -0.499663
O2    O     O_R   0.527280 0.186680 0.570530 -0.485917
C1    C     C_R   0.640794 0.117790 0.599078 0.546581
O3    O     O_R   0.728090 0.003480 0.576380 -0.507381
O4    O     O_R   0.682970 0.789220 0.570490 -0.500596
C2    C     C_R   0.612891 0.745463 0.598498 0.550067
O5    O     O_R   0.499290 0.771920 0.575530 -0.490413
O6    O     O_R   0.285330 0.030900 0.569730 -0.495261
C3    C     C_R   0.240336 0.145678 0.598009 0.543712
O7    O     O_R   0.270980 0.227040 0.423900 -0.516628
O8    O     O_R   0.530280 0.182090 0.430050 -0.487183
C4    C     C_R   0.644775 0.113323 0.403021 0.538921
O9    O     O_R   0.731330 0.998530 0.424830 -0.475523
O10   O     O_R   0.685970 0.784630 0.430010 -0.439770
C5    C     C_R   0.621548 0.731240 0.404654 0.592616
O11   O     O_R   0.502530 0.766960 0.423990 -0.475904
O12   O     O_R   0.288330 0.026310 0.429250 -0.497998
C6    C     C_R   0.242081 0.140927 0.402021 0.539553
Cr1   Cr    Cr6+3 0.404720 0.198220 0.499960 1.080830
Cr2   Cr    Cr6+3 0.698290 0.897110 0.500380 1.090628
Cr3   Cr    Cr6+3 0.396970 0.904720 0.499610 1.086109
O13   O     O_3   0.499990 0.000020 0.499980 -0.284682
C7    C     C_1   0.670302 0.646943 0.860200 0.004909
C8    C     C_1   0.655245 0.683492 0.728357 -0.028338
C9    C     C_1   0.663624 0.666874 0.799693 -0.029772
C10   C     C_1   0.641795 0.703485 0.667854 0.010880
C11   C     C_1   0.127320 0.198320 0.859387 0.005682
C12   C     C_1   0.170975 0.170589 0.727620 -0.028414
C13   C     C_1   0.150362 0.182015 0.798919 -0.029313
C14   C     C_1   0.194431 0.161545 0.667202 0.007804
C15   C     C_1   0.678156 0.190998 0.860914 0.006056
C16   C     C_1   0.658463 0.167746 0.728995 -0.028084
C17   C     C_1   0.665311 0.180939 0.800376 -0.029172
C18   C     C_1   0.653150 0.150344 0.668490 0.010578
C19   C     C_R   0.612620 0.576067 0.316996 0.160995
C20   C     C_R   0.626908 0.542225 0.247490 -0.140587
H1    H     H_    0.573329 0.495667 0.225569 0.176249
C21   C     C_R   0.708864 0.569368 0.205879 -0.056604
C22   C     C_R   0.789464 0.615747 0.234918 -0.149081
H2    H     H_    0.858823 0.629842 0.203406 0.136729
C23   C     C_R   0.774927 0.653341 0.303831 0.186839
C24   C     C_R   0.676055 0.645463 0.343386 0.049424
C25   C     C_R   0.127181 0.294256 0.308467 -0.113400
H3    H     H_    0.109529 0.378887 0.340652 0.163723
C26   C     C_R   0.105572 0.313978 0.239232 -0.100229
H4    H     H_    0.067621 0.414198 0.220204 0.144025
C27   C     C_R   0.128964 0.207037 0.195670 0.034652
C28   C     C_R   0.174037 0.079349 0.222461 -0.129300
H5    H     H_    0.189009 0.996534 0.189597 0.139346
C29   C     C_R   0.200875 0.058215 0.292143 -0.092502
H6    H     H_    0.243210 0.957688 0.311700 0.161755
C30   C     C_R   0.180205 0.165500 0.335039 0.038228
C31   C     C_R   0.782539 0.137689 0.311701 0.232443
C32   C     C_R   0.793159 0.158916 0.243005 -0.095964
H7    H     H_    0.888063 0.145495 0.224408 0.163815
C33   C     C_R   0.684090 0.197442 0.198150 -0.035284
C34   C     C_R   0.558772 0.222185 0.222796 0.220313
C35   C     C_R   0.548160 0.201056 0.291654 -0.048914
H8    H     H_    0.453294 0.213920 0.309993 0.172207
C36   C     C_R   0.659732 0.154793 0.335628 0.005455
O14   O     O_R   0.821500 0.119550 0.952820 -0.499031
O15   O     O_R   0.037130 0.162750 0.957360 -0.489629
C37   C     C_R   0.082355 0.230950 0.928727 0.550343
O16   O     O_R   0.056440 0.344950 0.951330 -0.500273
O17   O     O_R   0.797900 0.560570 0.957460 -0.488076
C38   C     C_R   0.683650 0.605093 0.929576 0.557053
O18   O     O_R   0.596140 0.579600 0.952720 -0.498545
O19   O     O_R   0.639070 0.321380 0.958660 -0.493178
C39   C     C_R   0.707917 0.206548 0.930282 0.548478
O20   O     O_R   0.821240 0.124490 0.104360 -0.511771
O21   O     O_R   0.036900 0.167320 0.097830 -0.512016
C40   C     C_R   0.081264 0.237564 0.125862 0.539740
O22   O     O_R   0.056190 0.349890 0.102870 -0.517570
O23   O     O_R   0.797670 0.565150 0.097930 -0.501355
C41   C     C_R   0.712043 0.545927 0.132425 0.566730
O24   O     O_R   0.595880 0.584540 0.104260 -0.495615
O25   O     O_R   0.638830 0.325960 0.099140 -0.518393
C42   C     C_R   0.709050 0.212747 0.127374 0.515131
Cr4   Cr    Cr6+3 0.926180 0.152240 0.028110 1.032863
Cr5   Cr    Cr6+3 0.921340 0.452070 0.027460 1.038549
Cr6   Cr    Cr6+3 0.626260 0.447120 0.028700 1.040804
O26   O     O_3   0.824590 0.350480 0.028090 -0.284155
N1    N     N_R   0.533743 0.540396 0.359815 0.088599
O27   O     O_R   0.436054 0.528052 0.333811 -0.332406
O28   O     O_R   0.571175 0.501768 0.422393 -0.327360
O29   O     O_3   0.447235 0.260305 0.182066 -0.686399
H9    H     H_    0.471963 0.256686 0.133250 0.337992
O30   O     O_3   0.850193 0.705257 0.331893 -0.658743
H10   H     H_    0.914206 0.702912 0.297079 0.328493
O31   O     O_3   0.893285 0.100905 0.352783 -0.682461
H11   H     H_    0.865367 0.113402 0.401538 0.342959

loop_
_geom_bond_atom_site_label_1
_geom_bond_atom_site_label_2
_geom_bond_distance
_ccdc_geom_bond_type
O11   Cr3   2.047074 S    
O20   C42   1.256229 A    
C23   C24   1.414720 A    
C19   C20   1.392970 A    
C41   O24   1.300819 A    
O21   Cr4   1.925857 S    
Cr6   O26   1.974230 S    
C34   C35   1.384312 A    
C6    C30   1.448543 S    
C22   C23   1.391421 A    
O4    Cr2   1.926568 S    
C2    C10   1.424527 S    
C31   C32   1.381528 A    
C33   C34   1.404939 A    
O8    Cr1   1.925088 S    
O19   Cr6   1.930826 S    
C7    C38   1.424594 S    
C20   H1    1.083557 S    
C8    C10   1.200185 T    
C21   C22   1.396719 A    
C25   C30   1.399771 A    
C11   C13   1.200772 T    
C35   C36   1.410380 A    
C5    O11   1.271504 A    
C33   C42   1.441101 S    
C34   O29   1.382095 S    
C19   C24   1.417229 A    
C27   C28   1.402308 A    
O19   C39   1.273474 A    
C29   C30   1.402884 A    
C15   C17   1.201107 T    
C28   C29   1.390636 A    
C38   O18   1.265448 A    
O2    Cr1   1.925635 S    
O17   Cr5   1.925173 S    
O23   Cr5   1.927989 S    
Cr3   O13   1.977263 S    
O16   Cr5   2.045503 S    
C31   C36   1.403313 A    
C29   H6    1.083225 S    
C21   C41   1.451725 S    
C26   C27   1.399358 A    
O7    C6    1.263841 A    
C32   C33   1.408594 A    
O1    Cr1   2.043386 S    
O23   C41   1.301301 A    
O10   Cr2   1.929987 S    
O15   Cr4   1.925487 S    
Cr1   O13   1.980616 S    
O1    C3    1.268273 A    
C8    C9    1.403503 S    
Cr5   O26   1.977646 S    
C22   H2    1.082890 S    
C19   N1    1.439266 S    
O29   H9    0.988361 S    
O6    C3    1.273651 A    
C1    C18   1.426172 S    
C35   H8    1.084580 S    
O25   C42   1.274095 A    
O12   Cr3   1.924301 S    
O3    Cr2   2.047493 S    
C25   H3    1.083938 S    
O15   C37   1.273164 A    
N1    O27   1.301557 A    
O25   Cr6   1.925422 S    
O7    Cr1   2.041869 S    
O12   C6    1.275461 A    
C4    O9    1.272849 A    
C25   C26   1.373815 A    
C11   C37   1.425594 S    
C3    C14   1.425549 S    
C28   H5    1.083213 S    
N1    O28   1.301581 A    
Cr2   O13   1.974467 S    
O18   Cr6   2.043961 S    
C1    O3    1.266928 A    
O14   C39   1.266654 A    
C23   O30   1.383530 S    
C32   H7    1.084312 S    
C12   C13   1.404420 S    
O9    Cr2   2.042645 S    
O20   Cr4   2.042205 S    
C5    C24   1.466908 S    
C40   O22   1.266363 A    
O6    Cr3   1.929384 S    
O24   Cr6   2.048206 S    
Cr4   O26   1.980604 S    
O8    C4    1.259502 A    
C2    O5    1.265610 A    
C16   C17   1.405005 S    
C12   C14   1.200758 T    
O2    C1    1.271364 A    
O21   C40   1.271223 A    
O5    Cr3   2.043052 S    
O31   H11   0.989491 S    
O4    C2    1.271129 A    
O14   Cr4   2.044579 S    
C20   C21   1.395201 A    
O22   Cr5   2.041141 S    
C7    C9    1.200199 T    
C27   C40   1.447604 S    
C37   O16   1.267320 A    
C4    C36   1.443856 S    
C26   H4    1.081941 S    
C15   C39   1.426078 S    
O30   H10   0.991861 S    
O17   C38   1.270656 A    
C31   O31   1.381298 S    
O10   C5    1.272272 A    
C16   C18   1.201137 T    
