data_mof_unit_2114.cif
_audit_creation_date              2013-03-05T16:41:01-0500
_audit_creation_method            fapswitch 2.2
_symmetry_space_group_name_H-M    P1
_symmetry_Int_Tables_number       1
_space_group_crystal_system       triclinic
_cell_length_a                    18.841785
_cell_length_b                    18.788655
_cell_length_c                    18.869215
_cell_angle_alpha                 109.639137
_cell_angle_beta                  109.403126
_cell_angle_gamma                 109.431923
_cell_volume                      5138.34443145

loop_
_atom_site_label
_atom_site_type_symbol
_atom_site_description
_atom_site_fract_x
_atom_site_fract_y
_atom_site_fract_z
_atom_type_partial_charge
O1    O     O_R   0.408360 0.551710 0.460090 -0.642028
O2    O     O_R   0.408400 0.448280 0.356670 -0.562599
C1    C     C_R   0.379972 0.501093 0.380408 0.954576
O3    O     O_R   0.591600 0.643340 0.551710 -0.620015
O4    O     O_R   0.591630 0.539900 0.448290 -0.554748
C2    C     C_R   0.622683 0.620634 0.502822 1.025030
Zn1   Zn    Zn3+2 0.499980 0.569060 0.569060 1.048251
Zn2   Zn    Zn3+2 0.500020 0.430940 0.430940 1.104671
O5    O     O_R   0.591600 0.551720 0.643330 -0.630619
O6    O     O_R   0.591640 0.448290 0.539910 -0.622419
O7    O     O_R   0.408370 0.460100 0.551710 -0.624752
O8    O     O_R   0.408400 0.356660 0.448290 -0.593409
C3    C     C_R   0.618912 0.499263 0.620227 0.915146
C4    C     C_R   0.377163 0.380249 0.497637 0.935547
C5    C     C_R   0.728425 0.850412 0.781245 -0.333205
H1    H     H_    0.686128 0.868956 0.800335 0.174925
C6    C     C_R   0.709659 0.819264 0.694863 -0.003222
C7    C     C_R   0.761375 0.788808 0.668220 -0.140902
C8    C     C_R   0.835974 0.798569 0.732692 0.453380
C9    C     C_R   0.860237 0.842390 0.820655 0.535187
C10   C     C_R   0.802575 0.861838 0.844481 -0.155329
C11   C     C_R   0.816190 0.831149 0.577272 0.391828
C12   C     C_R   0.811445 0.813861 0.497332 -0.187823
C13   C     C_R   0.738869 0.740538 0.418547 -0.118878
C14   C     C_R   0.682719 0.673135 0.422520 0.479586
C15   C     C_R   0.688559 0.688236 0.503152 -0.101187
C16   C     C_R   0.752957 0.769070 0.580958 -0.099791
C17   C     C_R   0.640357 0.740604 0.286730 -0.033260
C18   C     C_R   0.624865 0.743709 0.208983 -0.116546
C19   C     C_R   0.679537 0.735579 0.173814 -0.077571
C20   C     C_R   0.747192 0.722124 0.215576 0.013133
C21   C     C_R   0.766062 0.726592 0.295598 -0.187548
H2    H     H_    0.821768 0.722778 0.330020 0.128215
C22   C     C_R   0.715304 0.737642 0.333091 0.097809
C23   C     C_R   0.422800 0.777718 0.540742 -0.091189
C24   C     C_R   0.375452 0.690002 0.473504 -0.044583
H3    H     H_    0.335268 0.639679 0.481065 0.181760
C25   C     C_R   0.376776 0.666504 0.395362 0.097076
C26   C     C_R   0.419985 0.733061 0.382033 -0.190678
H4    H     H_    0.414465 0.715667 0.318872 0.116345
C27   C     C_R   0.462895 0.821397 0.444963 0.051827
C28   C     C_R   0.468542 0.844518 0.527310 -0.020458
C29   C     C_R   0.254150 0.570241 0.247878 -0.232311
H5    H     H_    0.259232 0.629484 0.247766 0.161142
C30   C     C_R   0.182569 0.490776 0.180662 -0.029770
C31   C     C_R   0.165948 0.413173 0.184984 0.110112
C32   C     C_R   0.229944 0.416587 0.253711 0.001688
C33   C     C_R   0.307444 0.497924 0.317119 -0.123948
C34   C     C_R   0.314281 0.576323 0.319245 -0.020217
C35   C     C_R   0.005770 0.315640 0.129767 -0.062457
C36   C     C_R   0.924807 0.238232 0.065756 -0.252915
C37   C     C_R   0.917928 0.177214 0.991254 0.510902
C38   C     C_R   0.991704 0.188672 0.984024 0.375297
C39   C     C_R   0.074286 0.261710 0.050452 -0.282702
C40   C     C_R   0.080524 0.329529 0.119934 -0.022883
C41   C     C_R   0.255385 0.548342 0.584712 -0.138567
H6    H     H_    0.291151 0.610314 0.644515 0.225947
C42   C     C_R   0.275052 0.482795 0.584034 0.511660
C43   C     C_R   0.228564 0.400623 0.506123 -0.108741
C44   C     C_R   0.158115 0.384683 0.432338 -0.074281
C45   C     C_R   0.138932 0.451570 0.436206 -0.087738
H7    H     H_    0.083549 0.438797 0.381590 0.233711
C46   C     C_R   0.188230 0.533848 0.511254 -0.093994
C47   C     C_R   0.182515 0.264069 0.513678 -0.121105
C48   C     C_R   0.189397 0.189771 0.506448 -0.086502
C49   C     C_R   0.261829 0.183409 0.505106 0.000855
C50   C     C_R   0.320412 0.246215 0.499685 -0.232544
H8    H     H_    0.376374 0.242246 0.498987 0.187852
C51   C     C_R   0.309940 0.315609 0.498310 -0.049245
C52   C     C_R   0.241339 0.326174 0.506190 -0.087976
C53   C     C_R   0.304322 0.117015 0.593858 -0.221883
H9    H     H_    0.304613 0.165747 0.645253 0.164551
C54   C     C_R   0.326209 0.057163 0.608500 -0.064663
C55   C     C_R   0.329659 0.995992 0.542924 0.346755
C56   C     C_R   0.320673 0.002916 0.468800 -0.090941
C57   C     C_R   0.292171 0.059013 0.451560 0.421683
C58   C     C_R   0.282051 0.115637 0.514459 0.007642
H10   H     H_    0.397160 0.434305 0.796371 0.182735
C59   C     C_R   0.514951 0.535350 0.820200 0.555367
C60   C     C_R   0.586635 0.552868 0.807270 0.562791
C61   C     C_R   0.595394 0.482456 0.759673 -0.127328
C62   C     C_R   0.530669 0.395254 0.724054 -0.029636
C63   C     C_R   0.459683 0.379709 0.737916 -0.156921
H11   H     H_    0.409669 0.313856 0.711797 0.200131
C64   C     C_R   0.452551 0.448659 0.786456 -0.388055
C65   C     C_R   0.742789 0.503174 0.823527 0.448398
C66   C     C_R   0.815271 0.504695 0.816191 -0.237906
C67   C     C_R   0.824307 0.507191 0.745274 -0.009388
C68   C     C_R   0.761767 0.510368 0.682724 -0.031352
C69   C     C_R   0.687218 0.503246 0.687860 -0.229973
C70   C     C_R   0.677365 0.499012 0.757473 -0.100164
C71   C     C_R   0.958908 0.562318 0.733955 0.410493
C72   C     C_R   0.013026 0.544522 0.701559 -0.048679
C73   C     C_R   0.002515 0.460604 0.671027 -0.145562
H12   H     H_    0.043157 0.444842 0.646887 0.201058
C74   C     C_R   0.940748 0.395955 0.672284 -0.159301
H13   H     H_    0.938946 0.334718 0.654570 0.217248
C75   C     C_R   0.881297 0.409449 0.695183 -0.091402
C76   C     C_R   0.891834 0.493827 0.728414 -0.014363
O9    O     O_R   0.051730 0.908360 0.460060 -0.647929
O10   O     O_R   0.948280 0.908380 0.356650 -0.621182
C77   C     C_R   0.999798 0.879177 0.380458 0.921869
O11   O     O_R   0.960110 0.908350 0.551690 -0.579683
O12   O     O_R   0.856660 0.908370 0.448270 -0.646622
C78   C     C_R   0.879537 0.878299 0.497686 0.934034
Zn3   Zn    Zn3+2 0.069070 0.999960 0.569030 1.036315
Zn4   Zn    Zn3+2 0.930930 0.999990 0.430930 1.016382
O13   O     O_R   0.051720 0.091580 0.643310 -0.575692
O14   O     O_R   0.948270 0.091600 0.539890 -0.601458
O15   O     O_R   0.143340 0.091590 0.551680 -0.641373
O16   O     O_R   0.039890 0.091610 0.448270 -0.578839
C79   C     C_R   0.001473 0.121697 0.619673 1.023253
C80   C     C_R   0.120687 0.119312 0.499842 1.013363
O17   O     O_R   0.051730 0.460050 0.908360 -0.601378
O18   O     O_R   0.948290 0.356630 0.908390 -0.633110
C81   C     C_R   0.004782 0.380298 0.884181 0.885120
O19   O     O_R   0.143340 0.551690 0.091580 -0.633226
O20   O     O_R   0.039900 0.448270 0.091610 -0.611666
C82   C     C_R   0.119241 0.494699 0.115318 0.864900
Zn5   Zn    Zn3+2 0.069070 0.569030 0.999960 1.049754
Zn6   Zn    Zn3+2 0.930930 0.430930 0.000000 1.010126
O21   O     O_R   0.051710 0.643320 0.091560 -0.618382
O22   O     O_R   0.948270 0.539900 0.091590 -0.584312
O23   O     O_R   0.960100 0.551680 0.908340 -0.589705
O24   O     O_R   0.856660 0.448270 0.908370 -0.612249
C83   C     C_R   0.000359 0.620474 0.119856 0.870002
C84   C     C_R   0.880138 0.500903 0.880437 0.854147
C85   C     C_R   0.067404 0.763841 0.546688 -0.112894
C86   C     C_R   0.073279 0.775410 0.478530 -0.083464
H14   H     H_    0.134647 0.821395 0.489889 0.182410
C87   C     C_R   0.000266 0.728592 0.395407 0.031032
C88   C     C_R   0.923328 0.662801 0.377991 -0.184796
H15   H     H_    0.868539 0.621652 0.312377 0.223427
C89   C     C_R   0.914720 0.650771 0.444422 0.466717
C90   C     C_R   0.986029 0.703632 0.530390 0.300733
C91   C     C_R   0.007740 0.680921 0.260875 0.447040
C92   C     C_R   0.005175 0.688835 0.188621 -0.191121
C93   C     C_R   0.010689 0.763794 0.183694 -0.083166
C94   C     C_R   0.012570 0.828882 0.249158 -0.084071
C95   C     C_R   0.005681 0.816153 0.316802 -0.200191
C96   C     C_R   0.005656 0.743353 0.324101 -0.005900
C97   C     C_R   0.109311 0.822364 0.130267 -0.160800
C98   C     C_R   0.123308 0.839230 0.067047 0.253473
C99   C     C_R   0.051816 0.803394 0.984726 0.414093
C100  C     C_R   0.966961 0.754870 0.966779 0.481203
C101  C     C_R   0.951906 0.744272 0.032046 0.241039
C102  C     C_R   0.023648 0.778539 0.114539 -0.178936
H16   H     H_    0.390586 0.594415 0.109729 0.143988
C103  C     C_R   0.283813 0.557941 0.990891 -0.003708
C104  C     C_R   0.207885 0.487563 0.912165 -0.032659
C105  C     C_R   0.175780 0.401606 0.899223 -0.184145
C106  C     C_R   0.230778 0.384776 0.956134 0.503551
C107  C     C_R   0.309728 0.455207 0.031070 -0.004428
C108  C     C_R   0.331505 0.540649 0.050471 -0.412137
C109  C     C_R   0.085240 0.263819 0.753093 0.432498
C110  C     C_R   0.004155 0.191937 0.684590 -0.084039
C111  C     C_R   0.925896 0.187149 0.677488 -0.064866
C112  C     C_R   0.928975 0.246080 0.747738 -0.211458
H17   H     H_    0.868735 0.238689 0.745867 0.213623
C113  C     C_R   0.008583 0.316280 0.818844 -0.140019
C114  C     C_R   0.088653 0.328076 0.821884 -0.154323
C115  C     C_R   0.804798 0.114812 0.520486 0.054948
C116  C     C_R   0.728115 0.039211 0.447087 -0.071209
C117  C     C_R   0.690228 0.965979 0.454215 -0.023606
H18   H     H_    0.634271 0.906885 0.397935 0.163480
C118  C     C_R   0.724171 0.967683 0.532817 -0.055741
H19   H     H_    0.694041 0.910652 0.536925 0.227111
C119  C     C_R   0.798065 0.041979 0.605779 -0.168490
H20   H     H_    0.824538 0.041198 0.665844 0.174091
C120  C     C_R   0.840227 0.115391 0.600632 0.136278
C121  C     C_2   0.816627 0.893256 0.934013 0.507450
H21   H     H_    0.782731 0.925516 0.953820 0.115452
O25   O     O_2   0.862656 0.880206 0.985265 -0.559446
C122  C     C_2   0.666684 0.742633 0.094680 0.506705
H22   H     H_    0.650400 0.790573 0.086369 0.127871
O26   O     O_2   0.672164 0.693949 0.037318 -0.488924
C123  C     C_2   0.801036 0.705999 0.177960 0.452581
H23   H     H_    0.824286 0.744344 0.150465 0.092834
O27   O     O_2   0.817902 0.648212 0.175590 -0.579146
C124  C     C_2   0.523961 0.936469 0.599918 0.460885
H24   H     H_    0.500102 0.965206 0.639792 0.123634
O28   O     O_2   0.598637 0.980036 0.618173 -0.521531
C125  C     C_2   0.424637 0.797948 0.624885 0.377903
H25   H     H_    0.457177 0.864556 0.677027 0.093120
O29   O     O_2   0.390431 0.739696 0.637829 -0.591693
C126  C     C_2   0.493394 0.885502 0.417358 0.450064
H26   H     H_    0.486811 0.862410 0.353242 0.066225
O30   O     O_2   0.523029 0.963488 0.462950 -0.480674
C127  C     C_2   0.212456 0.335357 0.259262 0.427493
H27   H     H_    0.160095 0.272005 0.204626 0.088774
O31   O     O_2   0.253862 0.337573 0.325827 -0.615485
C128  C     C_2   0.010886 0.379996 0.207240 0.488702
H28   H     H_    0.962326 0.359967 0.225772 0.091405
O32   O     O_2   0.068410 0.456295 0.251471 -0.568108
C129  C     C_2   0.846947 0.221251 0.076069 0.418879
H29   H     H_    0.833650 0.273630 0.100113 0.062173
O33   O     O_2   0.797767 0.148674 0.059231 -0.510431
O34   O     O_3   0.839486 0.105221 0.922604 -0.709582
H30   H     H_    0.792086 0.118178 0.919356 0.351064
O35   O     O_3   0.979932 0.126420 0.909491 -0.727475
H31   H     H_    0.022948 0.155064 0.894881 0.315034
C130  C     C_2   0.152563 0.259742 0.049956 0.428421
H32   H     H_    0.146731 0.199388 0.008304 0.136513
O36   O     O_2   0.224881 0.323931 0.096802 -0.542405
C131  C     C_2   0.168379 0.604483 0.515010 0.493750
H33   H     H_    0.205761 0.667008 0.574741 0.105417
O37   O     O_2   0.110380 0.593995 0.451686 -0.528254
O38   O     O_3   0.337841 0.501345 0.661851 -0.741487
H34   H     H_    0.341128 0.448445 0.655551 0.339110
C132  C     C_2   0.100039 0.296316 0.353454 0.413709
H35   H     H_    0.118701 0.246617 0.344372 0.123157
O39   O     O_2   0.029750 0.277210 0.297977 -0.599943
C133  C     C_2   0.637237 0.823767 0.637466 0.522219
H36   H     H_    0.603978 0.851405 0.664499 0.032297
O40   O     O_2   0.613211 0.797015 0.560607 -0.557314
C134  C     C_2   0.118141 0.280665 0.535278 0.456667
H37   H     H_    0.087061 0.312034 0.508814 0.091478
O41   O     O_2   0.102232 0.262894 0.586644 -0.536186
C135  C     C_2   0.350629 0.065354 0.695290 0.535733
H38   H     H_    0.329094 0.098475 0.735359 0.064710
O42   O     O_2   0.398034 0.039362 0.724916 -0.521820
O43   O     O_3   0.342937 0.929978 0.549442 -0.818097
H39   H     H_    0.317843 0.912869 0.583473 0.386916
C136  C     C_2   0.342643 0.951372 0.410103 0.575004
H40   H     H_    0.336563 0.890065 0.404832 0.061817
O44   O     O_2   0.371036 0.978536 0.369401 -0.454838
O45   O     O_3   0.274062 0.055691 0.372797 -0.727743
H41   H     H_    0.240480 0.085396 0.362201 0.362368
O46   O     O_3   0.507616 0.604559 0.866335 -0.643823
H42   H     H_    0.454120 0.581651 0.870015 0.356797
O47   O     O_3   0.647040 0.639521 0.843688 -0.663672
H43   H     H_    0.690135 0.643899 0.824170 0.340405
O48   O     O_3   0.892076 0.774446 0.713700 -0.628877
H44   H     H_    0.863266 0.734234 0.650552 0.368548
C137  C     C_2   0.538186 0.320209 0.674680 0.448257
H45   H     H_    0.587239 0.329899 0.655401 0.067489
O49   O     O_2   0.489968 0.246249 0.655355 -0.564975
O50   O     O_3   0.731665 0.502435 0.892285 -0.698137
H46   H     H_    0.788856 0.530591 0.944423 0.362383
C138  C     C_2   0.773959 0.518375 0.610913 0.546235
H47   H     H_    0.800507 0.483190 0.580263 0.045648
O51   O     O_2   0.757389 0.566862 0.587594 -0.597139
O52   O     O_3   0.965775 0.643415 0.767042 -0.657144
H48   H     H_    0.024440 0.688252 0.786344 0.356541
C139  C     C_2   0.079141 0.610585 0.696944 0.486519
H49   H     H_    0.081466 0.671615 0.707104 0.067386
O53   O     O_2   0.132392 0.597025 0.680480 -0.579596
C140  C     C_2   0.805174 0.334038 0.678582 0.369688
H50   H     H_    0.768692 0.343402 0.711179 0.088652
O54   O     O_2   0.779776 0.259671 0.625160 -0.582332
O55   O     O_3   0.973903 0.694828 0.595860 -0.794144
H51   H     H_    0.013817 0.751364 0.650795 0.348589
O56   O     O_3   0.943254 0.869992 0.881330 -0.619593
H52   H     H_    0.962799 0.922897 0.934936 0.348638
C141  C     C_2   0.147059 0.812275 0.633023 0.420682
H53   H     H_    0.148928 0.793222 0.681513 0.088231
O57   O     O_2   0.212640 0.873934 0.650924 -0.580348
O58   O     O_3   0.834745 0.588218 0.422786 -0.742282
H54   H     H_    0.836884 0.585959 0.475066 0.393859
O59   O     O_3   0.013272 0.613518 0.272261 -0.690094
H55   H     H_    0.046632 0.595779 0.246308 0.354109
C142  C     C_2   0.023989 0.910242 0.246448 0.433880
H56   H     H_    0.995290 0.907398 0.184580 0.113774
O60   O     O_2   0.068721 0.981431 0.312715 -0.601231
C143  C     C_2   0.182990 0.841509 0.208812 0.563271
H57   H     H_    0.181609 0.858803 0.269009 0.039856
O61   O     O_2   0.243188 0.832476 0.205197 -0.539258
O62   O     O_3   0.205699 0.889961 0.083492 -0.708372
H58   H     H_    0.243725 0.931940 0.146665 0.393483
O63   O     O_3   0.062147 0.815554 0.919774 -0.633278
H59   H     H_    0.124563 0.848729 0.939142 0.380487
O64   O     O_3   0.899979 0.717648 0.883408 -0.628621
H60   H     H_    0.843332 0.687942 0.879289 0.364083
O65   O     O_3   0.882221 0.911142 0.649978 -0.740554
H61   H     H_    0.863709 0.928318 0.693196 0.342967
O66   O     O_3   0.866888 0.699525 0.012332 -0.740860
H62   H     H_    0.865019 0.682954 0.056292 0.362386
C144  C     C_2   0.319207 0.650472 0.013037 0.606569
H63   H     H_    0.350019 0.701129 0.080099 0.045601
O67   O     O_2   0.319968 0.671748 0.958767 -0.476080
C145  C     C_2   0.162411 0.501250 0.841719 0.547069
H64   H     H_    0.135179 0.452500 0.774913 0.048408
O68   O     O_2   0.151985 0.564343 0.857327 -0.533372
O69   O     O_3   0.211748 0.301025 0.938593 -0.689447
H65   H     H_    0.149500 0.259303 0.896066 0.322477
C146  C     C_2   0.372898 0.442774 0.090562 0.591201
H66   H     H_    0.425675 0.498170 0.153589 0.026594
O70   O     O_2   0.368859 0.371983 0.069574 -0.453191
O71   O     O_3   0.159209 0.268315 0.750537 -0.713931
H67   H     H_    0.208431 0.328876 0.789379 0.343103
C147  C     C_2   0.847543 0.190062 0.510766 0.364039
H68   H     H_    0.809641 0.215409 0.481815 0.092630
O72   O     O_2   0.924070 0.222090 0.531276 -0.554987
C148  C     C_2   0.689111 0.033579 0.361206 0.409413
H69   H     H_    0.721939 0.084838 0.350307 0.067958
O73   O     O_2   0.619093 0.970903 0.300793 -0.562270
O74   O     O_3   0.616143 0.595232 0.347709 -0.738946
H70   H     H_    0.630426 0.586214 0.300562 0.348202
C149  C     C_2   0.573805 0.733518 0.313956 0.349701
H71   H     H_    0.506395 0.703447 0.265498 0.020194
O75   O     O_2   0.592752 0.761150 0.389827 -0.570149
C150  C     C_2   0.550748 0.754893 0.165012 0.331405
H72   H     H_    0.529341 0.790880 0.202792 0.106560
O76   O     O_2   0.511148 0.722017 0.086189 -0.545391

loop_
_geom_bond_atom_site_label_1
_geom_bond_atom_site_label_2
_geom_bond_distance
_ccdc_geom_bond_type
O10   Zn4   2.022664 S    
C118  C119  1.387042 A    
C66   C67   1.417767 A    
C141  O57   1.220742 D    
C83   C92   1.437199 S    
C32   C127  1.498220 S    
O10   C77   1.294393 A    
O18   Zn6   2.025169 S    
C3    C69   1.439123 S    
C148  O73   1.221227 D    
C137  O49   1.220097 D    
O74   H70   0.990270 S    
O20   C82   1.273403 A    
C116  C117  1.398393 A    
C97   C143  1.481724 S    
C59   C64   1.404292 A    
C56   C57   1.412845 A    
C85   C86   1.407137 A    
C66   C84   1.449156 S    
C61   C62   1.417428 A    
C69   C70   1.410186 A    
C9    O56   1.377553 S    
C26   C27   1.401012 A    
C25   C34   1.494411 S    
C131  H33   1.085566 S    
C109  C114  1.409286 A    
Zn1   O7    2.024964 S    
C121  O25   1.221122 D    
C17   C18   1.423082 A    
C15   C16   1.423285 A    
C72   C73   1.401062 A    
C130  O36   1.217469 D    
C20   C123  1.470803 S    
C100  O64   1.382279 S    
O4    C2    1.289313 A    
C24   H3    1.083372 S    
C147  O72   1.219166 D    
C134  O41   1.218503 D    
O65   H61   0.988841 S    
C101  O66   1.381679 S    
C65   C70   1.388765 A    
O19   C82   1.298990 A    
O56   H52   0.989907 S    
Zn2   O6    2.032437 S    
O7    C4    1.274008 A    
C23   C125  1.488471 S    
O52   H48   0.985302 S    
C129  O33   1.221264 D    
C1    C33   1.452893 S    
C85   C141  1.484843 S    
C41   H6    1.082913 S    
C54   C135  1.483286 S    
C45   C46   1.398931 A    
C7    C8    1.425360 A    
C27   C28   1.421295 A    
C11   O65   1.387312 S    
C127  O31   1.216626 D    
C23   C28   1.421799 A    
O5    C3    1.274352 A    
C122  H22   1.084846 S    
C59   O46   1.380729 S    
C35   C36   1.421245 A    
O2    Zn2   2.030736 S    
C14   O74   1.386201 S    
C39   C40   1.425272 A    
C132  H35   1.084387 S    
C111  C112  1.380589 A    
C8    C9    1.403073 A    
C140  O54   1.218717 D    
O38   H34   0.986038 S    
C123  O27   1.219917 D    
C74   C75   1.393797 A    
C31   C40   1.508197 S    
C91   O59   1.384430 S    
C137  H45   1.084270 S    
O34   H30   0.989425 S    
C128  H28   1.083041 S    
C47   C52   1.401540 A    
C148  H69   1.083386 S    
C35   C128  1.499679 S    
O48   H44   0.988683 S    
C17   C149  1.488945 S    
C71   O52   1.379811 S    
C87   C96   1.490113 S    
Zn2   O8    2.028443 S    
C18   C150  1.491754 S    
C51   C52   1.418032 A    
Zn4   O16   2.027008 S    
C67   C68   1.398300 A    
C30   C82   1.446230 S    
C147  H68   1.084973 S    
C119  C120  1.398297 A    
C49   C50   1.382343 A    
C105  C106  1.426162 A    
C17   C22   1.423612 A    
C43   C44   1.420343 A    
C107  C108  1.395115 A    
C103  C108  1.394810 A    
C62   C137  1.487840 S    
C109  O71   1.385968 S    
C57   O45   1.384081 S    
C112  C113  1.395217 A    
C117  C118  1.390704 A    
Zn4   O14   2.024160 S    
C68   C138  1.494090 S    
C118  H19   1.075538 S    
C127  H27   1.082110 S    
O12   Zn4   2.026964 S    
H16   C108  1.084164 S    
C23   C24   1.409198 A    
O3    Zn1   2.028440 S    
C6    C133  1.482784 S    
C140  H50   1.081852 S    
C8    O48   1.382925 S    
O9    C77   1.275561 A    
O12   C78   1.274201 A    
O46   H42   0.991966 S    
C124  O28   1.220877 D    
C100  C101  1.412857 A    
Zn1   O5    2.030737 S    
C11   C12   1.396619 A    
C54   C55   1.415439 A    
C95   C96   1.419912 A    
C25   C26   1.399971 A    
C150  O76   1.220196 D    
C109  C110  1.403736 A    
C143  H57   1.083348 S    
C130  H32   1.084567 S    
C101  C102  1.419126 A    
C63   H11   1.080519 S    
C50   H8    1.085541 S    
C67   C76   1.486901 S    
C32   C33   1.422862 A    
O55   H51   0.989333 S    
C13   C14   1.397783 A    
O16   C80   1.297488 A    
C115  C147  1.481906 S    
C55   C56   1.407641 A    
O19   Zn5   2.031673 S    
C28   C124  1.486671 S    
C135  H38   1.085863 S    
C53   C54   1.397401 A    
C149  H71   1.082647 S    
C65   C66   1.409755 A    
C98   O62   1.382489 S    
O22   C83   1.288554 A    
C142  O60   1.219989 D    
C129  H29   1.084706 S    
C136  H40   1.085102 S    
C105  C114  1.509047 S    
C14   C15   1.408990 A    
C133  H36   1.083235 S    
C13   C22   1.499829 S    
O58   H54   0.989666 S    
C36   C37   1.415664 A    
C44   C45   1.404770 A    
O1    C1    1.271685 A    
O20   Zn6   2.031754 S    
C21   C22   1.393249 A    
O21   C83   1.275317 A    
C99   O63   1.381777 S    
C125  H25   1.082181 S    
Zn6   O24   2.031800 S    
C18   C19   1.419727 A    
O24   C84   1.290591 A    
C145  O68   1.220359 D    
C111  C120  1.486177 S    
C135  O42   1.220968 D    
O66   H62   0.985867 S    
C149  O75   1.218209 D    
O45   H41   0.988824 S    
C115  C120  1.430439 A    
C42   O38   1.380067 S    
C93   C102  1.499607 S    
C12   C13   1.413163 A    
C134  H37   1.082979 S    
C74   H13   1.069876 S    
C138  O51   1.220008 D    
C6    C7    1.425755 A    
C41   C46   1.395754 A    
C146  H66   1.086301 S    
C73   H12   1.083319 S    
O11   C78   1.294981 A    
O17   Zn5   2.021764 S    
C77   C95   1.441153 S    
C103  C144  1.482202 S    
C57   C58   1.418944 A    
C61   C70   1.488450 S    
C73   C74   1.388343 A    
C143  O61   1.221338 D    
C121  H21   1.085741 S    
C89   O58   1.381658 S    
C75   C140  1.487888 S    
C142  H56   1.085111 S    
C72   C139  1.488621 S    
C123  H23   1.082759 S    
O23   C84   1.279151 A    
C141  H53   1.083385 S    
C12   C78   1.437770 S    
H10   C64   1.083206 S    
O3    C2    1.279315 A    
C119  H20   1.083511 S    
O47   H43   0.988103 S    
O8    C4    1.292334 A    
C56   C136  1.478620 S    
C62   C63   1.402334 A    
C132  O39   1.220069 D    
C11   C16   1.403465 A    
C139  O53   1.221514 D    
C29   H5    1.085792 S    
C79   C110  1.439613 S    
C112  H17   1.083534 S    
C4    C51   1.441186 S    
C144  O67   1.220557 D    
O14   C79   1.280205 A    
C37   O34   1.382762 S    
O64   H60   0.987985 S    
C60   O47   1.383341 S    
C126  O30   1.219827 D    
C87   C88   1.398413 A    
C53   C58   1.403690 A    
C116  C148  1.489642 S    
C37   C38   1.394236 A    
Zn5   O21   2.024955 S    
O71   H67   0.988755 S    
C86   H14   1.084221 S    
Zn3   O15   2.027218 S    
C145  H64   1.082911 S    
O13   C79   1.288790 A    
C5    C6    1.400878 A    
C49   C58   1.492274 S    
C150  H72   1.084691 S    
C117  H18   1.075516 S    
C138  H47   1.084887 S    
C63   C64   1.391129 A    
O1    Zn1   2.032433 S    
C38   O35   1.381855 S    
C48   C80   1.444164 S    
C97   C102  1.415775 A    
C47   C134  1.493056 S    
C20   C21   1.397025 A    
C29   C34   1.380880 A    
C7    C16   1.500252 S    
C90   O55   1.380375 S    
C60   C61   1.424473 A    
O6    C3    1.287457 A    
C136  O44   1.221186 D    
O4    Zn2   2.024960 S    
O17   C81   1.275267 A    
C94   C95   1.413452 A    
C38   C39   1.415112 A    
C89   C90   1.415652 A    
C115  C116  1.416299 A    
C92   C93   1.414225 A    
C55   O43   1.380095 S    
O9    Zn3   2.024197 S    
C35   C40   1.431089 A    
C104  C105  1.421458 A    
C99   C100  1.401773 A    
C21   H2    1.075671 S    
O62   H58   0.990404 S    
C125  O29   1.219774 D    
C98   C99   1.408531 A    
C42   C43   1.425148 A    
C133  O40   1.217897 D    
C53   H9    1.084026 S    
C29   C30   1.381128 A    
C10   C121  1.483601 S    
C103  C104  1.418013 A    
O59   H55   0.990052 S    
C24   C25   1.401364 A    
C146  O70   1.220760 D    
C81   C113  1.446031 S    
C19   C20   1.410922 A    
O18   C81   1.297713 A    
C2    C15   1.447243 S    
Zn3   O13   2.022793 S    
O35   H31   0.990205 S    
C33   C34   1.420763 A    
C5    H1    1.085079 S    
C47   C48   1.410077 A    
O50   H46   0.987625 S    
C71   C72   1.424373 A    
C65   O50   1.385010 S    
C91   C96   1.386326 A    
C41   C42   1.396564 A    
C27   C126  1.487394 S    
C88   H15   1.082873 S    
O11   Zn3   2.026919 S    
C48   C49   1.416659 A    
C45   H7    1.077585 S    
C85   C90   1.422651 A    
C113  C114  1.428282 A    
C122  O26   1.220852 D    
C126  H26   1.085785 S    
Zn6   O22   2.021550 S    
C31   C32   1.411890 A    
O69   H65   0.986970 S    
C93   C94   1.396177 A    
C43   C52   1.496519 S    
C59   C60   1.403306 A    
C26   H4    1.082232 S    
C106  O69   1.381974 S    
C5    C10   1.393694 A    
C110  C111  1.404515 A    
C9    C10   1.412213 A    
C88   C89   1.396357 A    
C75   C76   1.409108 A    
C46   C131  1.480175 S    
C94   C142  1.492207 S    
O15   C80   1.274061 A    
C107  C146  1.484899 S    
C97   C98   1.414399 A    
C144  H63   1.085744 S    
C91   C92   1.407308 A    
C19   C122  1.489961 S    
O2    C1    1.298650 A    
C106  C107  1.413591 A    
C50   C51   1.389265 A    
C68   C69   1.405121 A    
C139  H49   1.080172 S    
C131  O37   1.221315 D    
C44   C132  1.489059 S    
O43   H39   0.989228 S    
C104  C145  1.478795 S    
C36   C129  1.487210 S    
O63   H59   0.989280 S    
C124  H24   1.082991 S    
Zn5   O23   2.031753 S    
C71   C76   1.415544 A    
C39   C130  1.490623 S    
C30   C31   1.422586 A    
C86   C87   1.400054 A    
C128  O32   1.219533 D    
