data_mof_unit_3417.cif
_audit_creation_date              2012-10-26T20:33:15-0400
_audit_creation_method            fapswitch 2.2
_symmetry_space_group_name_H-M    P1
_symmetry_Int_Tables_number       1
_space_group_crystal_system       triclinic
_cell_length_a                    17.758208
_cell_length_b                    10.747913
_cell_length_c                    9.583962
_cell_angle_alpha                 88.505249
_cell_angle_beta                  89.316833
_cell_angle_gamma                 90.943988
_cell_volume                      1828.21993271

loop_
_atom_site_label
_atom_site_type_symbol
_atom_type_description
_atom_site_fract_x
_atom_site_fract_y
_atom_site_fract_z
_atom_type_partial_charge
C1    C     C_R   0.498442 0.262660 0.501840 0.598171
C2    C     C_R   0.115299 0.494303 0.510720 0.041974
C3    C     C_R   0.438133 0.062192 0.458955 -0.082510
C4    C     C_R   0.355769 0.499861 0.500965 0.569990
C5    C     C_R   0.500342 0.129270 0.505548 -0.018411
C6    C     C_R   0.567023 0.066760 0.540007 0.251102
C7    C     C_R   0.567986 0.936077 0.537240 0.264120
C8    C     C_R   0.502699 0.870331 0.497303 0.013169
C9    C     C_R   0.439939 0.934558 0.452155 0.011157
C10   C     C_3   0.359651 0.917445 0.496979 0.121103
C11   C     C_3   0.357020 0.058621 0.506791 0.110625
C12   C     C_R   0.886692 0.504503 0.504768 -0.022044
C13   C     C_R   0.505735 0.610172 0.069635 0.171768
C14   C     C_R   0.484760 0.394328 0.077354 0.038837
C15   C     C_R   0.483993 0.394692 0.929119 0.055125
C16   C     C_R   0.500267 0.737137 0.498936 0.593481
C17   C     C_R   0.510320 0.607399 0.923171 0.129356
C18   C     C_3   0.575695 0.695328 0.913137 0.123341
C19   C     C_3   0.567514 0.708629 0.070164 0.132226
C20   C     C_R   0.644664 0.497759 0.498488 0.618008
C21   C     C_R   0.844185 0.476129 0.625899 0.224919
C22   C     C_R   0.766038 0.473355 0.620670 -0.055590
C23   C     C_1   0.967247 0.500222 0.511074 0.169901
C24   C     C_R   0.728351 0.495537 0.495021 -0.028762
C25   C     C_R   0.771546 0.515618 0.370144 0.245255
C26   C     C_R   0.850664 0.529435 0.376635 0.224204
C27   C     C_1   0.034701 0.496654 0.512681 0.178700
C28   C     C_R   0.155406 0.518909 0.632602 0.231152
C29   C     C_R   0.233921 0.520416 0.628872 -0.055326
C30   C     C_R   0.273074 0.498273 0.504026 -0.035126
C31   C     C_R   0.232693 0.473143 0.382898 -0.067744
C32   C     C_R   0.154195 0.470419 0.385837 0.234040
Cl1   Cl    Cl    0.887251 0.444111 0.787462 -0.362417
Cl2   Cl    Cl    0.650770 0.855492 0.580665 -0.407679
Cl3   Cl    Cl    0.302602 0.858064 0.361139 -0.486100
Cl4   Cl    Cl    0.662802 0.624569 0.871485 -0.450541
Cl5   Cl    Cl    0.729492 0.510118 0.203794 -0.395134
Cl6   Cl    Cl    0.108963 0.548637 0.791539 -0.376989
Cl7   Cl    Cl    0.106536 0.436004 0.231056 -0.366641
Cl8   Cl    Cl    0.648439 0.151259 0.588316 -0.434716
Cu1   Cu    Cu3+1 0.500000 0.499980 0.640670 1.089587
Cu2   Cu    Cu3+1 0.500000 0.500020 0.359330 1.098159
H1    H     H_    0.353201 0.864035 0.597554 0.177765
H2    H     H_    0.449405 0.094467 0.785603 0.354413
H3    H     H_    0.426147 0.942070 0.143372 0.393475
H4    H     H_    0.882752 0.676185 0.030297 0.412421
H5    H     H_    0.319148 0.104630 0.430443 0.173679
H6    H     H_    0.473297 0.307757 0.133827 0.150689
H7    H     H_    0.471845 0.308828 0.877247 0.159092
H8    H     H_    0.563457 0.777677 0.845803 0.206162
H9    H     H_    0.617003 0.680006 0.132019 0.209933
H10   H     H_    0.734769 0.449882 0.715430 0.241480
H11   H     H_    0.264180 0.539886 0.723540 0.190108
H12   H     H_    0.261988 0.454573 0.286044 0.184636
N1    N     N_R   0.500470 0.500930 0.147930 -0.253238
N2    N     N_R   0.500480 0.500890 0.852020 -0.231267
O1    O     O_R   0.500000 0.319640 0.618810 -0.482358
O2    O     O_2   0.263617 0.062939 0.729152 -0.152154
O3    O     O_3   0.404428 0.038844 0.790670 -0.495964
O4    O     O_2   0.580010 0.907579 0.232139 -0.235967
O5    O     O_2   0.547631 0.951906 0.990536 -0.262576
O6    O     O_3   0.443247 0.855014 0.152774 -0.470592
O7    O     O_2   0.975256 0.643657 0.261678 -0.215131
O8    O     O_2   0.923612 0.460981 0.145795 -0.128567
O9    O     O_3   0.854183 0.671156 0.119734 -0.389545
O10   O     O_R   0.500010 0.319680 0.381230 -0.510476
O11   O     O_R   0.391250 0.499990 0.618840 -0.486781
O12   O     O_R   0.391260 0.500020 0.381250 -0.498497
O13   O     O_R   0.499990 0.680320 0.618770 -0.519487
O14   O     O_R   0.500000 0.680360 0.381190 -0.442631
O15   O     O_R   0.608740 0.499980 0.618750 -0.449029
O16   O     O_R   0.608750 0.500010 0.381160 -0.453611
O17   O     O_2   0.346636 0.244118 0.691641 -0.297940
S1    S     S_3+6 0.341345 0.104969 0.683295 0.023268
S2    S     S_3+6 0.535465 0.861490 0.111497 0.042319
S3    S     S_3+6 0.904029 0.575694 0.223970 0.162626

loop_
_geom_bond_atom_site_label_1
_geom_bond_atom_site_label_2
_ccdc_geom_bond_type
Cu1   Cu2   S    
C11   H5    S    
C7    C8    A    
Cu1   O11   S    
O5    S2    D    
C12   C23   S    
C18   H8    S    
O9    S3    S    
C1    C5    S    
Cu1   O13   S    
C28   C29   A    
C30   C31   A    
C21   Cl1   S    
O7    S3    D    
H2    O3    S    
H3    O6    S    
Cu2   O14   S    
C2    C32   A    
C18   C19   S    
O17   S1    D    
C32   Cl7   S    
C25   Cl5   S    
C20   C24   S    
C8    C9    A    
C26   S3    S    
C20   O15   A    
C2    C27   S    
C23   C27   T    
C9    C10   S    
Cu1   O15   S    
C14   N1    A    
C8    C16   S    
C21   C22   A    
Cu2   O12   S    
C1    O10   A    
C13   C19   S    
C16   O14   A    
C24   C25   A    
H4    O9    S    
C4    O12   A    
C14   H6    S    
C25   C26   A    
C12   C21   A    
C12   C26   A    
Cu1   N2    S    
C29   C30   A    
C3    C9    A    
C1    O1    A    
Cu2   N1    S    
C31   C32   A    
C17   N2    A    
C28   Cl6   S    
Cu2   O16   S    
C17   C18   S    
O8    S3    D    
O3    S1    S    
C10   Cl3   S    
C7    Cl2   S    
C22   C24   A    
O6    S2    S    
O2    S1    D    
C22   H10   S    
C10   H1    S    
C16   O13   A    
C3    C5    A    
C11   S1    S    
C4    O11   A    
C6    C7    A    
O4    S2    D    
C13   C17   A    
C15   N2    A    
C19   S2    S    
Cu1   O1    S    
C5    C6    A    
C29   H11   S    
C6    Cl8   S    
C15   H7    S    
C31   H12   S    
C3    C11   S    
C10   C11   S    
C19   H9    S    
Cu2   O10   S    
C14   C15   A    
C20   O16   A    
C2    C28   A    
C18   Cl4   S    
C4    C30   S    
C13   N1    A    
