data_mof_unit_2533.cif
_audit_creation_date              2012-12-10T18:58:43-0500
_audit_creation_method            fapswitch 2.2
_symmetry_space_group_name_H-M    P1
_symmetry_Int_Tables_number       1
_space_group_crystal_system       triclinic
_cell_length_a                    10.633251
_cell_length_b                    9.984463
_cell_length_c                    17.556612
_cell_angle_alpha                 89.492741
_cell_angle_beta                  93.470217
_cell_angle_gamma                 90.221294
_cell_volume                      1860.43714544

loop_
_atom_site_label
_atom_site_type_symbol
_atom_type_description
_atom_site_fract_x
_atom_site_fract_y
_atom_site_fract_z
_atom_type_partial_charge
C1    C     C_R   0.260813 0.499835 0.499581 0.946191
C2    C     C_R   0.498206 0.499505 0.646845 0.883476
C3    C     C_R   0.871898 0.500505 0.500537 -0.054011
C4    C     C_R   0.128270 0.499668 0.499965 -0.052008
C5    C     C_R   0.535767 0.620668 0.850219 -0.210766
C6    C     C_R   0.595194 0.388563 0.159027 -0.238052
C7    C     C_R   0.526143 0.618830 0.149734 -0.222301
C8    C     C_R   0.545639 0.378885 0.851254 -0.207110
C9    C     C_R   0.506789 0.621758 0.771711 0.075278
C10   C     C_R   0.571802 0.384905 0.236231 0.065716
C11   C     C_R   0.501030 0.617902 0.226588 0.065612
C12   C     C_R   0.739259 0.500195 0.500751 0.949743
C13   C     C_R   0.516903 0.376089 0.772716 0.071234
C14   C     C_R   0.504476 0.498850 0.731210 -0.083624
C15   C     C_R   0.523602 0.500439 0.271108 -0.047257
C16   C     C_R   0.580957 0.070819 0.548904 0.145656
C17   C     C_R   0.418228 0.929321 0.451628 0.145957
C18   C     C_R   0.420105 0.071656 0.450613 0.142207
C19   C     C_R   0.581118 0.928453 0.548779 0.142920
C20   C     C_R   0.557665 0.500351 0.888746 0.105589
C21   C     C_R   0.572333 0.504793 0.116656 0.118750
C22   C     C_1   0.574917 0.500975 0.969021 -0.054117
C23   C     C_1   0.579590 0.502338 0.036771 -0.051562
C24   C     C_R   0.058425 0.446171 0.437257 0.010208
C25   C     C_R   0.941758 0.554169 0.563244 0.011149
C26   C     C_R   0.927824 0.446323 0.437647 0.031249
C27   C     C_R   0.072447 0.553955 0.562888 0.031907
C28   C     C_R   0.503726 0.500271 0.353473 0.895342
H1    H     H_    0.538400 0.713632 0.881785 0.131590
H2    H     H_    0.512122 0.814938 0.251103 0.183183
H3    H     H_    0.520070 0.169874 0.773504 0.161013
H4    H     H_    0.400769 0.240502 0.721003 0.194767
H5    H     H_    0.663202 0.238651 0.597227 0.260353
H6    H     H_    0.650628 0.110700 0.655986 0.173340
H7    H     H_    0.337412 0.762130 0.402269 0.260085
H8    H     H_    0.336498 0.895272 0.346528 0.167891
H9    H     H_    0.332854 0.239052 0.404560 0.267154
H10   H     H_    0.375118 0.127240 0.341922 0.161308
H11   H     H_    0.664992 0.760121 0.595925 0.270249
H12   H     H_    0.629076 0.299596 0.131896 0.136429
H13   H     H_    0.644245 0.881887 0.656465 0.174368
H14   H     H_    0.091926 0.450663 0.324614 0.178885
H15   H     H_    0.095304 0.295438 0.365097 0.196912
H16   H     H_    0.907994 0.549656 0.675834 0.181378
H17   H     H_    0.905114 0.704903 0.635422 0.199293
H18   H     H_    0.873991 0.293690 0.367342 0.190663
H19   H     H_    0.870012 0.447695 0.325190 0.178107
H20   H     H_    0.127106 0.706399 0.633395 0.191710
H21   H     H_    0.130139 0.552282 0.675383 0.172753
H22   H     H_    0.505888 0.707806 0.115315 0.134976
H23   H     H_    0.555881 0.286128 0.883616 0.132141
H24   H     H_    0.491950 0.827474 0.770894 0.159862
H25   H     H_    0.379731 0.745365 0.718576 0.196803
H26   H     H_    0.543151 0.186993 0.252906 0.165495
H27   H     H_    0.692378 0.238988 0.273340 0.181067
H28   H     H_    0.365033 0.758335 0.226961 0.169925
N1    N     N_R   0.500000 0.857200 0.500000 -0.144744
N2    N     N_3   0.669897 0.862489 0.601173 -0.440359
N3    N     N_3   0.121215 0.395574 0.373340 -0.483907
N4    N     N_3   0.878924 0.604863 0.627111 -0.479423
N5    N     N_3   0.850845 0.394200 0.374615 -0.449417
N6    N     N_3   0.149623 0.605743 0.626006 -0.463859
N7    N     N_R   0.500000 0.142800 0.500000 -0.143196
N8    N     N_3   0.476303 0.746823 0.733868 -0.444491
N9    N     N_3   0.597800 0.263528 0.278409 -0.420898
N10   N     N_3   0.449251 0.735623 0.258180 -0.462144
N11   N     N_3   0.497151 0.249098 0.735891 -0.450429
N12   N     N_3   0.671344 0.136061 0.600315 -0.433188
N13   N     N_3   0.324346 0.864254 0.402523 -0.430818
N14   N     N_3   0.337044 0.137737 0.395021 -0.449485
O1    O     O_R   0.316770 0.614620 0.500000 -0.624222
O2    O     O_R   0.683230 0.385380 0.500000 -0.622263
O3    O     O_R   0.683230 0.614620 0.500000 -0.628391
O4    O     O_R   0.316770 0.385380 0.500000 -0.632281
O5    O     O_R   0.500010 0.614710 0.389120 -0.619659
O6    O     O_R   0.499990 0.385290 0.610880 -0.624350
O7    O     O_R   0.499990 0.614710 0.610880 -0.612769
O8    O     O_R   0.500010 0.385290 0.389120 -0.610376
Zn1   Zn    Zn3+2 0.500000 0.653120 0.500000 0.941443
Zn2   Zn    Zn3+2 0.500000 0.346880 0.500000 0.940146

loop_
_geom_bond_atom_site_label_1
_geom_bond_atom_site_label_2
_ccdc_geom_bond_type
C18   N14   S    
H10   N14   S    
H17   N4    S    
C17   N13   S    
C8    C13   A    
C9    N8    S    
N1    Zn1   S    
O1    Zn1   S    
H26   N9    S    
C19   N1    A    
H3    N11   S    
C1    O1    A    
C1    O4    A    
C26   N5    S    
C24   C26   A    
H13   N2    S    
C10   C15   A    
C16   C19   A    
C4    C24   A    
H25   N8    S    
O8    Zn2   S    
C18   N7    A    
C3    C12   S    
C11   C15   A    
C16   N12   S    
C16   N7    A    
C28   O8    A    
C11   N10   S    
H15   N3    S    
C12   O2    A    
O4    Zn2   S    
H9    N14   S    
C12   O3    A    
H27   N9    S    
C5    H1    S    
N7    Zn2   S    
O7    Zn1   S    
C19   N2    S    
H18   N5    S    
C3    C25   A    
H24   N8    S    
H6    N12   S    
C5    C20   A    
C7    C21   A    
C6    C21   A    
C7    C11   A    
C9    C14   A    
C5    C9    A    
C27   N6    S    
H20   N6    S    
C17   C18   A    
O3    Zn1   S    
C8    C20   A    
C8    H23   S    
H2    N10   S    
H4    N11   S    
C25   N4    S    
C20   C22   S    
C21   C23   S    
C6    H12   S    
C4    C27   A    
C2    O6    A    
H8    N13   S    
C13   N11   S    
C10   N9    S    
H21   N6    S    
C3    C26   A    
O6    Zn2   S    
C7    H22   S    
H14   N3    S    
H19   N5    S    
C25   C27   A    
C1    C4    S    
O2    Zn2   S    
C2    O7    A    
H11   N2    S    
C15   C28   S    
H16   N4    S    
C24   N3    S    
H28   N10   S    
C2    C14   S    
C6    C10   A    
H7    N13   S    
C22   C23   T    
C13   C14   A    
C28   O5    A    
O5    Zn1   S    
H5    N12   S    
C17   N1    A    
