data_mof_unit_2592.cif
_audit_creation_date              2012-10-26T19:06:50-0400
_audit_creation_method            fapswitch 2.2
_symmetry_space_group_name_H-M    P1
_symmetry_Int_Tables_number       1
_space_group_crystal_system       triclinic
_cell_length_a                    12.448303
_cell_length_b                    13.210887
_cell_length_c                    27.771602
_cell_angle_alpha                 75.309431
_cell_angle_beta                  101.457533
_cell_angle_gamma                 117.020009
_cell_volume                      3917.12092161

loop_
_atom_site_label
_atom_site_type_symbol
_atom_type_description
_atom_site_fract_x
_atom_site_fract_y
_atom_site_fract_z
_atom_type_partial_charge
C1    C     C_R   0.854850 0.286248 0.504713 0.553177
C2    C     C_R   0.907870 0.386365 0.030531 0.028290
C3    C     C_R   0.116519 0.535620 0.031856 0.006780
C4    C     C_R   0.000548 0.500459 0.592362 0.557927
C5    C     C_R   0.011206 0.461692 0.056520 0.011557
C6    C     C_R   0.798450 0.329058 0.053040 -0.087946
C7    C     C_R   0.793248 0.333298 0.102172 0.094003
C8    C     C_R   0.899391 0.398525 0.130337 0.056707
C9    C     C_R   0.008609 0.464214 0.107145 -0.085498
C10   C     C_R   0.114925 0.533220 0.134322 0.060573
C11   C     C_R   0.109303 0.533986 0.184471 0.442052
C12   C     C_R   0.044357 0.416226 0.732545 0.142707
C13   C     C_R   0.899713 0.402927 0.180610 0.454598
C14   C     C_R   0.012884 0.389301 0.296067 0.289362
C15   C     C_R   0.014517 0.398317 0.346112 0.189937
C16   C     C_R   0.144805 0.713820 0.492614 0.532700
C17   C     C_R   0.976075 0.570692 0.314795 0.009087
C18   C     C_R   0.981496 0.564059 0.266171 -0.067311
C19   C     C_R   0.000122 0.474763 0.256747 0.215415
C20   C     C_R   0.914965 0.375627 0.981654 0.036389
C21   C     C_R   0.012709 0.461438 0.954788 -0.021517
C22   C     C_R   0.112426 0.543735 0.979590 0.007393
C23   C     C_R   0.002951 0.483304 0.748709 0.254743
C24   C     C_R   0.829977 0.280040 0.959670 0.271852
C25   C     C_R   0.201159 0.640736 0.900127 0.106243
C26   C     C_R   0.222391 0.599743 0.060154 -0.131242
C27   C     C_R   0.222895 0.598790 0.110551 0.108354
C28   C     C_R   0.998703 0.498212 0.407747 0.577446
C29   C     C_R   0.203900 0.633490 0.951225 -0.130260
C30   C     C_R   0.276787 0.031083 0.435401 0.243378
C31   C     C_R   0.227783 0.836909 0.482833 -0.055843
C32   C     C_R   0.808238 0.080493 0.540250 -0.121268
C33   C     C_R   0.727393 0.965159 0.550879 -0.129444
C34   C     C_R   0.010991 0.465039 0.903096 -0.089711
C35   C     C_R   0.606261 0.930056 0.532600 -0.113728
C36   C     C_R   0.563566 0.010127 0.501539 0.037131
C37   C     C_R   0.649758 0.124908 0.485841 0.026250
C38   C     C_R   0.438516 0.979690 0.485154 -0.001238
C39   C     C_R   0.402036 0.061177 0.450671 0.039824
C40   C     C_R   0.913796 0.388771 0.826825 0.420916
C41   C     C_R   0.491465 0.167735 0.430389 -0.132729
C42   C     C_R   0.612761 0.198439 0.447285 -0.110929
C43   C     C_R   0.348539 0.869991 0.502110 -0.149264
C44   C     C_R   0.191741 0.918025 0.450389 -0.063856
C45   C     C_R   0.914798 0.378588 0.878963 -0.003118
C46   C     C_R   0.771210 0.162170 0.508483 0.005891
C47   C     C_R   0.355478 0.345882 0.588784 0.142038
C48   C     C_R   0.761216 0.648478 0.431931 0.434030
C49   C     C_R   0.664508 0.681183 0.416978 0.063938
C50   C     C_R   0.563500 0.627193 0.444135 -0.149083
C51   C     C_R   0.556822 0.542171 0.487151 -0.081458
C52   C     C_R   0.099589 0.559632 0.823948 0.430987
C53   C     C_R   0.655983 0.509576 0.501112 0.131295
C54   C     C_R   0.453720 0.486873 0.516243 -0.077027
C55   C     C_R   0.459269 0.412577 0.562597 0.048653
C56   C     C_R   0.825972 0.283782 0.908075 0.098446
C57   C     C_R   0.565066 0.398112 0.579910 0.082561
C58   C     C_R   0.649160 0.426771 0.546565 0.244385
C59   C     C_R   0.344777 0.502234 0.501736 0.026498
C60   C     C_R   0.248245 0.355370 0.569247 0.244746
C61   C     C_R   0.960911 0.557424 0.713785 -0.038449
C62   C     C_R   0.958710 0.565018 0.662515 0.059416
C63   C     C_R   0.042940 0.423492 0.681362 -0.156202
C64   C     C_R   0.105144 0.556036 0.875497 0.068313
C65   C     C_R   0.999872 0.496811 0.645839 -0.000894
C66   C     C_R   0.993997 0.488400 0.355428 0.014165
Cu1   Cu    Cu3+1 0.098270 0.475420 0.511360 0.969373
Cu2   Cu    Cu3+1 0.901730 0.524580 0.488640 1.033351
H1    H     H_    0.074836 0.370685 0.669523 0.121329
H2    H     H_    0.549421 0.839202 0.542996 0.109323
H3    H     H_    0.757973 0.902954 0.575009 0.132785
H4    H     H_    0.677359 0.279716 0.428583 0.153124
H5    H     H_    0.335315 0.562968 0.468961 0.132070
H6    H     H_    0.493032 0.656586 0.431408 0.118774
H7    H     H_    0.713489 0.284364 0.032114 0.174400
H8    H     H_    0.379182 0.733512 0.890176 0.234458
H9    H     H_    0.298420 0.812772 0.878074 0.232778
H10   H     H_    0.870495 0.628162 0.335219 0.286241
H11   H     H_    0.022504 0.707439 0.347744 0.262502
H12   H     H_    0.930207 0.609804 0.726688 0.146865
H13   H     H_    0.398756 0.636990 0.135152 0.238751
H14   H     H_    0.364530 0.752126 0.118651 0.233853
H15   H     H_    0.286828 0.186062 0.412112 0.322953
H16   H     H_    0.036335 0.256989 0.761714 0.238288
H17   H     H_    0.177631 0.365344 0.762051 0.234638
H18   H     H_    0.088224 0.301652 0.598709 0.268027
H19   H     H_    0.091722 0.216525 0.562167 0.244768
H20   H     H_    0.675124 0.406023 0.645125 0.252550
H21   H     H_    0.582515 0.269238 0.635630 0.247330
H22   H     H_    0.293613 0.177724 0.624415 0.246467
H23   H     H_    0.308135 0.649289 0.044405 0.107002
H24   H     H_    0.324655 0.274209 0.661417 0.252872
H25   H     H_    0.863392 0.771230 0.382348 0.341529
H26   H     H_    0.674431 0.219307 0.860254 0.282399
H27   H     H_    0.768413 0.150107 0.871049 0.278260
H28   H     H_    0.661331 0.835795 0.385964 0.247001
H29   H     H_    0.593847 0.735363 0.348933 0.254910
H30   H     H_    0.669784 0.285930 0.571983 0.305162
H31   H     H_    0.088659 0.292973 0.377138 0.344395
H32   H     H_    0.990081 0.229474 0.310670 0.345163
H33   H     H_    0.618030 0.303069 0.100142 0.227670
H34   H     H_    0.969898 0.628349 0.235180 0.163006
H35   H     H_    0.645775 0.184435 0.120900 0.248982
H36   H     H_    0.714025 0.115505 0.972079 0.362380
H37   H     H_    0.985085 0.700156 0.604380 0.246112
H38   H     H_    0.838311 0.600089 0.608137 0.257873
H39   H     H_    0.277157 0.703090 0.967411 0.105867
H40   H     H_    0.097569 0.893358 0.435936 0.179559
H41   H     H_    0.469500 0.228050 0.400547 0.135250
H42   H     H_    0.369813 0.806592 0.529791 0.134769
H43   H     H_    0.898876 0.105641 0.558399 0.123929
N1    N     N_R   0.005067 0.477494 0.801163 -0.386120
N2    N     N_3   0.587992 0.352130 0.631771 -0.571138
N3    N     N_3   0.354417 0.259162 0.632382 -0.582499
N4    N     N_3   0.730895 0.189342 0.886757 -0.631629
N5    N     N_3   0.668978 0.770277 0.374262 -0.641691
N6    N     N_3   0.678554 0.271803 0.122646 -0.539681
N7    N     N_3   0.918677 0.645666 0.628726 -0.628377
N8    N     N_R   0.003248 0.469780 0.206078 -0.390386
N9    N     N_R   0.246290 0.438210 0.528570 -0.237045
N10   N     N_R   0.754320 0.561170 0.471730 -0.209747
N11   N     N_3   0.296936 0.735812 0.873692 -0.543583
N12   N     N_3   0.955073 0.663694 0.321661 -0.598835
N13   N     N_3   0.334342 0.665784 0.136993 -0.538115
N14   N     N_3   0.088401 0.341201 0.768352 -0.587129
N15   N     N_3   0.139456 0.267162 0.589268 -0.650623
O1    O     O_R   0.972510 0.318140 0.514280 -0.504993
O2    O     O_R   0.082990 0.479230 0.439860 -0.454174
O3    O     O_R   0.917010 0.520730 0.420680 -0.481072
O4    O     O_2   0.822918 0.311841 0.801330 -0.505013
O5    O     O_3   0.233813 0.107677 0.404941 -0.686916
O6    O     O_3   0.866192 0.705317 0.408316 -0.680812
O7    O     O_3   0.720446 0.368981 0.559712 -0.651080
O8    O     O_3   0.035172 0.320734 0.386359 -0.683502
O9    O     O_3   0.022098 0.298463 0.284093 -0.652015
O10   O     O_3   0.758450 0.180332 0.990399 -0.714236
O11   O     O_2   0.797930 0.341344 0.204216 -0.422808
O12   O     O_2   0.187677 0.644001 0.796394 -0.442183
O13   O     O_2   0.208334 0.598446 0.211725 -0.431837
O14   O     O_R   0.806530 0.359640 0.495100 -0.457139
O15   O     O_R   0.082990 0.479270 0.579320 -0.525092
O16   O     O_R   0.917010 0.520770 0.560140 -0.443664
O17   O     O_R   0.193470 0.640360 0.504900 -0.515348
O18   O     O_R   0.027490 0.681860 0.485720 -0.462742

loop_
_geom_bond_atom_site_label_1
_geom_bond_atom_site_label_2
_ccdc_geom_bond_type
C10   C27   A    
C47   N3    S    
C63   C65   A    
C59   N9    A    
C32   H43   S    
H18   N15   S    
C41   C42   A    
C7    N6    S    
H17   N14   S    
C35   C36   A    
C11   N8    A    
C6    H7    S    
C39   C41   A    
C15   O8    S    
H35   N6    S    
C16   C31   S    
C5    C9    A    
C23   N1    S    
C12   C23   A    
C17   C66   A    
C8    C13   A    
C31   C43   A    
C36   C37   A    
C22   C29   A    
C18   C19   A    
C50   H6    S    
C4    O16   A    
C4    C65   S    
C1    C46   S    
C14   O9    S    
C52   N1    A    
C61   H12   S    
C30   O5    S    
H20   N2    S    
C28   O3    A    
C18   H34   S    
C37   C42   A    
C11   O13   S    
H9    N11   S    
C47   C60   A    
C17   N12   S    
C20   C24   A    
C45   C56   A    
H27   N4    S    
C8    C9    A    
C52   O12   S    
Cu2   O16   S    
C43   H42   S    
H25   O6    S    
C25   N11   S    
C59   H5    S    
C61   C62   A    
H32   O9    S    
C53   C58   A    
C24   O10   S    
C19   N8    S    
C41   H41   S    
C21   C22   A    
H38   N7    S    
C30   C44   A    
Cu1   O17   S    
C2    C6    A    
C9    C10   A    
H14   N13   S    
C13   N8    A    
C50   C51   A    
C54   C59   A    
C44   H40   S    
C58   O7    S    
C25   C29   A    
C40   C45   A    
H21   N2    S    
C31   C44   A    
H13   N13   S    
C2    C20   A    
Cu1   Cu2   S    
C63   H1    S    
C7    C8    A    
C16   O17   A    
C35   H2    S    
C40   N1    A    
C52   C64   A    
C4    O15   A    
C12   C63   A    
C57   N2    S    
C12   N14   S    
C26   H23   S    
C15   C66   A    
H11   N12   S    
H31   O8    S    
C51   C53   A    
C25   C64   A    
C13   O11   S    
C28   C66   S    
H15   O5    S    
Cu1   O1    S    
H30   O7    S    
C27   N13   S    
C34   C64   A    
C17   C18   A    
C26   C27   A    
C42   H4    S    
C34   C45   A    
H29   N5    S    
H10   N12   S    
C1    O14   A    
C48   C49   A    
C55   C57   A    
H37   N7    S    
Cu2   O14   S    
C2    C5    A    
Cu1   O15   S    
C48   N10   A    
C47   C55   A    
Cu1   N9    S    
H16   N14   S    
C40   O4    S    
C54   C55   A    
H36   O10   S    
C62   C65   A    
C16   O18   A    
C32   C46   A    
C14   C19   A    
C3    C26   A    
C48   O6    S    
C1    O1    A    
C3    C5    A    
Cu2   N10   S    
H26   N4    S    
C6    C7    A    
C21   C34   A    
C24   C56   A    
C51   C54   A    
H33   N6    S    
C32   C33   A    
C60   N15   S    
H8    N11   S    
C38   C43   A    
C53   N10   A    
Cu1   O2    S    
C57   C58   A    
C38   C39   A    
H24   N3    S    
C36   C38   A    
C33   C35   A    
C56   N4    S    
C30   C39   A    
Cu2   O18   S    
H22   N3    S    
Cu2   O3    S    
C62   N7    S    
C10   C11   A    
C33   H3    S    
C60   N9    A    
C23   C61   A    
C49   N5    S    
C20   C21   A    
C49   C50   A    
C14   C15   A    
H28   N5    S    
C3    C22   A    
C37   C46   A    
C29   H39   S    
H19   N15   S    
C28   O2    A    
