data_mof_unit_3249.cif
_audit_creation_date              2012-12-10T17:50:45-0500
_audit_creation_method            fapswitch 2.2
_symmetry_space_group_name_H-M    P1
_symmetry_Int_Tables_number       1
_space_group_crystal_system       triclinic
_cell_length_a                    14.73818
_cell_length_b                    14.953761
_cell_length_c                    15.840343
_cell_angle_alpha                 75.686951
_cell_angle_beta                  102.51371
_cell_angle_gamma                 115.686373
_cell_volume                      3024.35803271

loop_
_atom_site_label
_atom_site_type_symbol
_atom_type_description
_atom_site_fract_x
_atom_site_fract_y
_atom_site_fract_z
_atom_type_partial_charge
C1    C     C_R   0.879992 0.312741 0.515884 0.784243
C2    C     C_R   0.119487 0.687179 0.487749 0.775289
C3    C     C_R   0.774208 0.039353 0.620652 -0.181913
C4    C     C_R   0.216435 0.966946 0.411842 -0.170298
C5    C     C_R   0.844291 0.135753 0.592204 -0.210348
C6    C     C_R   0.150072 0.866745 0.429252 -0.234348
C7    C     C_R   0.708585 0.177524 0.502054 -0.211601
C8    C     C_R   0.284147 0.826161 0.523104 -0.228108
C9    C     C_R   0.635278 0.082162 0.532480 0.032609
C10   C     C_R   0.354276 0.927037 0.505235 0.050407
C11   C     C_R   0.669668 0.012382 0.593248 0.064612
C12   C     C_R   0.319224 0.997384 0.446680 0.074793
C13   C     C_R   0.529172 0.055607 0.506118 -0.016914
C14   C     C_R   0.459105 0.957824 0.538653 -0.005185
C15   C     C_R   0.495888 0.893365 0.602972 -0.314775
C16   C     C_R   0.490531 0.124302 0.450002 -0.308024
C17   C     C_R   0.599460 0.917806 0.627615 0.410230
C18   C     C_R   0.387097 0.096673 0.422697 0.424584
C19   C     C_R   0.689440 0.616528 0.325252 -0.387496
C20   C     C_R   0.280730 0.331516 0.650258 -0.386545
C21   C     C_R   0.784245 0.614536 0.361190 0.564978
C22   C     C_R   0.201637 0.364704 0.627330 0.583610
C23   C     C_R   0.999869 0.500026 0.659919 0.823336
C24   C     C_R   0.000478 0.500399 0.340008 0.828126
C25   C     C_R   0.718517 0.519816 0.495409 0.567430
C26   C     C_R   0.285738 0.485628 0.509315 0.558371
C27   C     C_R   0.617877 0.512034 0.458633 -0.100978
C28   C     C_R   0.361948 0.445677 0.524412 -0.122372
C29   C     C_R   0.606950 0.565579 0.372955 -0.033409
C30   C     C_R   0.361431 0.372916 0.600283 -0.019027
C31   C     C_R   0.529061 0.457203 0.503873 -0.075485
C32   C     C_R   0.439790 0.476886 0.469444 -0.106139
C33   C     C_R   0.428272 0.518720 0.379052 0.479922
C34   C     C_R   0.521819 0.376282 0.575668 0.510051
C35   C     C_R   0.512970 0.566059 0.333503 -0.268601
C36   C     C_R   0.438793 0.337908 0.624328 -0.302113
C37   C     C_3   0.033010 0.431394 0.050454 -0.165753
C38   C     C_3   0.968191 0.570410 0.949026 -0.156282
C39   C     C_3   0.938284 0.409409 0.980464 -0.159525
C40   C     C_3   0.062930 0.592409 0.019040 -0.155405
C41   C     C_1   0.000259 0.500594 0.749664 -0.196669
C42   C     C_1   0.000972 0.500598 0.250166 -0.142202
C43   C     C_3   0.095164 0.522956 0.985454 -0.162832
C44   C     C_3   0.906021 0.478866 0.014032 -0.151240
C45   C     C_3   0.000479 0.500953 0.917044 0.198313
C46   C     C_3   0.000771 0.500855 0.082514 0.189017
C47   C     C_1   0.000604 0.500854 0.825333 -0.101094
C48   C     C_1   0.000969 0.500744 0.174430 -0.081701
C49   C     C_R   0.811201 0.206073 0.534654 -0.047786
C50   C     C_R   0.185112 0.794961 0.480715 -0.047607
Cu1   Cu    Cu3+1 0.081740 0.475690 0.522610 1.010835
Cu2   Cu    Cu3+1 0.918260 0.524310 0.477390 1.013410
H1    H     H_    0.887093 0.334365 0.963137 0.130619
H2    H     H_    0.114199 0.667437 0.036353 0.131889
H3    H     H_    0.059676 0.374404 0.093498 0.129507
H4    H     H_    0.941492 0.627351 0.905929 0.127919
H5    H     H_    0.828361 0.460784 0.027071 0.133872
H6    H     H_    0.172667 0.541207 0.971924 0.128074
H7    H     H_    0.305002 0.768875 0.566582 0.134405
H8    H     H_    0.688391 0.233091 0.454536 0.155733
H9    H     H_    0.801994 0.987090 0.666467 0.176866
H10   H     H_    0.187473 0.019474 0.368176 0.183273
H11   H     H_    0.504938 0.603835 0.266273 0.154701
H12   H     H_    0.432494 0.279947 0.681800 0.148818
N1    N     N_R   0.795440 0.560790 0.443380 -0.274947
N2    N     N_R   0.204560 0.439210 0.556620 -0.267826
O1    O     O_R   0.977900 0.338120 0.529810 -0.548426
O2    O     O_R   0.022100 0.661880 0.470190 -0.576072
O3    O     O_R   0.839850 0.379180 0.491620 -0.568708
O4    O     O_R   0.160150 0.620820 0.508380 -0.561275
O5    O     O_R   0.069010 0.479460 0.640020 -0.570615
O6    O     O_R   0.930990 0.520540 0.359980 -0.525231
O7    O     O_R   0.930960 0.520530 0.601820 -0.539739
O8    O     O_R   0.069040 0.479470 0.398180 -0.542245
O9    O     O_3   0.291810 0.571620 0.448642 -0.496699
C51   C     C_3   0.375965 0.656030 0.476091 0.089521
H13   H     H_    0.448531 0.646291 0.489346 0.106477
H14   H     H_    0.364116 0.670409 0.537283 0.113518
C52   C     C_3   0.388540 0.747427 0.403744 -0.733662
H15   H     H_    0.316871 0.759020 0.385443 0.254789
H16   H     H_    0.450241 0.815654 0.426439 0.192838
H17   H     H_    0.408459 0.735755 0.344754 0.248192
O10   O     O_3   0.741418 0.492065 0.584367 -0.504863
C53   C     C_3   0.760015 0.572425 0.626517 0.079726
H18   H     H_    0.701596 0.604702 0.603239 0.099075
H19   H     H_    0.835951 0.633362 0.615005 0.145747
C54   C     C_3   0.758487 0.533971 0.724756 -0.777230
H20   H     H_    0.806322 0.490433 0.749151 0.263494
H21   H     H_    0.787829 0.598287 0.760327 0.190073
H22   H     H_    0.679660 0.484136 0.738527 0.236583
O11   O     O_3   0.115463 0.316571 0.669896 -0.552005
C55   C     C_3   0.138808 0.311098 0.762216 0.064839
H23   H     H_    0.098128 0.347698 0.783311 0.177401
H24   H     H_    0.220737 0.350797 0.786052 0.111138
C56   C     C_3   0.100111 0.201216 0.807259 -0.848647
H25   H     H_    0.115653 0.196822 0.879630 0.211670
H26   H     H_    0.016967 0.163430 0.788516 0.253059
H27   H     H_    0.138446 0.161255 0.787762 0.240351
O12   O     O_3   0.862326 0.654191 0.309674 -0.534731
C57   C     C_3   0.888213 0.757950 0.277274 0.044569
H28   H     H_    0.906606 0.799980 0.331960 0.120488
H29   H     H_    0.826295 0.771736 0.229637 0.132793
C58   C     C_3   0.980292 0.798696 0.228348 -0.779989
H30   H     H_    0.008047 0.881930 0.209636 0.196523
H31   H     H_    0.042154 0.778932 0.270148 0.250988
H32   H     H_    0.959296 0.765351 0.167935 0.243081
H33   H     H_    0.678188 0.652885 0.258050 0.155995
H34   H     H_    0.277519 0.271051 0.705379 0.166009
O13   O     O_3   0.333862 0.512946 0.335570 -0.538499
C59   C     C_3   0.303894 0.463072 0.262595 0.072779
H35   H     H_    0.230762 0.397321 0.272592 0.165934
H36   H     H_    0.357791 0.433321 0.252981 0.123251
C60   C     C_3   0.286200 0.533394 0.179355 -0.808664
H37   H     H_    0.357132 0.601312 0.167409 0.232721
H38   H     H_    0.261208 0.493691 0.122475 0.197199
H39   H     H_    0.226644 0.557217 0.185567 0.265970
O14   O     O_3   0.591251 0.331919 0.587827 -0.556346
C61   C     C_3   0.570108 0.239053 0.646460 0.098190
H40   H     H_    0.608343 0.199156 0.627142 0.186340
H41   H     H_    0.488496 0.187181 0.641132 0.106358
C62   C     C_3   0.616436 0.255493 0.740298 -0.812235
H42   H     H_    0.600654 0.181462 0.784402 0.204049
H43   H     H_    0.699932 0.298216 0.742864 0.266170
H44   H     H_    0.584726 0.298127 0.764443 0.227817
O15   O     O_3   0.631575 0.853592 0.693473 -0.580728
C63   C     C_3   0.614062 0.766518 0.661475 0.055261
H45   H     H_    0.667851 0.785498 0.613739 0.134664
H46   H     H_    0.535037 0.731245 0.629285 0.119604
C64   C     C_3   0.630628 0.688617 0.738045 -0.801322
H47   H     H_    0.581009 0.672355 0.788425 0.253785
H48   H     H_    0.611057 0.617681 0.714562 0.200313
H49   H     H_    0.711121 0.717153 0.768101 0.243982
O16   O     O_3   0.353536 0.165376 0.365061 -0.596829
C65   C     C_3   0.351336 0.234271 0.411038 0.071739
H50   H     H_    0.393536 0.311500 0.376825 0.164593
H51   H     H_    0.387328 0.229251 0.480676 0.140320
C66   C     C_3   0.242047 0.219270 0.409606 -0.837031
H52   H     H_    0.201357 0.146712 0.451634 0.238474
H53   H     H_    0.240449 0.281158 0.435198 0.229488
H54   H     H_    0.202538 0.218856 0.341442 0.242444
H55   H     H_    0.072103 0.845117 0.399995 0.164056
H56   H     H_    0.923677 0.156360 0.617923 0.190658
H57   H     H_    0.445813 0.823816 0.637862 0.152515
H58   H     H_    0.537650 0.201267 0.426141 0.168880

loop_
_geom_bond_atom_site_label_1
_geom_bond_atom_site_label_2
_ccdc_geom_bond_type
C54   H20   S    
C63   H45   S    
C27   C29   A    
C24   C42   S    
C56   H25   S    
C51   C52   S    
C24   O8    A    
C65   C66   S    
C56   H27   S    
C20   C30   A    
C40   C46   S    
C66   H53   S    
O10   C53   S    
C16   H58   S    
C53   H19   S    
C64   H47   S    
C2    O2    A    
C8    H7    S    
C21   O12   S    
C4    H10   S    
C18   O16   S    
C7    C9    A    
C39   H1    S    
C9    C13   A    
C59   H35   S    
C22   N2    A    
C62   H44   S    
Cu2   O3    S    
C2    C50   S    
C43   H6    S    
C1    O1    A    
C61   H40   S    
C35   H11   S    
C40   C43   S    
C31   C32   A    
C38   C45   S    
C22   O11   S    
C53   C54   S    
Cu1   O4    S    
C4    C12   A    
O13   C59   S    
Cu2   O2    S    
C39   C45   S    
C64   H49   S    
C21   N1    A    
C34   O14   S    
C45   C47   S    
C13   C14   A    
C5    C49   A    
Cu1   O5    S    
C23   O7    A    
C55   H24   S    
C44   C46   S    
C61   H41   S    
C3    H9    S    
C66   H54   S    
C46   C48   S    
C27   C31   A    
Cu1   Cu2   S    
C26   N2    A    
C23   O5    A    
C28   C32   A    
C25   N1    A    
C51   H13   S    
C7    C49   A    
C4    C6    A    
Cu2   O7    S    
C10   C14   A    
O11   C55   S    
C52   H16   S    
C42   C48   T    
C63   C64   S    
C57   C58   S    
C1    O3    A    
Cu1   O8    S    
C60   H38   S    
C61   C62   S    
C37   C43   S    
O9    C51   S    
C38   C44   S    
Cu2   O6    S    
C43   C45   S    
O12   C57   S    
C44   H5    S    
C57   H29   S    
C26   O9    S    
C41   C47   T    
C31   C34   A    
C58   H31   S    
Cu1   O1    S    
C53   H18   S    
C6    H55   S    
C9    C11   A    
C59   C60   S    
C62   H42   S    
C65   H50   S    
C10   C12   A    
C15   H57   S    
C16   C18   A    
C20   C22   A    
C40   H2    S    
C54   H21   S    
O15   C63   S    
C13   C16   A    
C33   O13   S    
C19   C29   A    
C8    C50   A    
C7    H8    S    
C24   O6    A    
C60   H37   S    
C15   C17   A    
C11   C17   A    
C63   H46   S    
C6    C50   A    
C19   C21   A    
C51   H14   S    
C3    C5    A    
C52   H17   S    
C65   H51   S    
C56   H26   S    
C39   C44   S    
C25   C27   A    
C66   H52   S    
C29   C35   A    
C26   C28   A    
C23   C41   S    
C30   C36   A    
C32   C33   A    
C60   H39   S    
C28   C30   A    
C37   C39   S    
C36   H12   S    
O14   C61   S    
C38   C40   S    
C17   O15   S    
C5    H56   S    
O16   C65   S    
C55   H23   S    
C33   C35   A    
C58   H32   S    
C34   C36   A    
C55   C56   S    
C59   H36   S    
C62   H43   S    
C3    C11   A    
C52   H15   S    
C37   H3    S    
C38   H4    S    
C8    C10   A    
C54   H22   S    
C12   C18   A    
C58   H30   S    
C25   O10   S    
C14   C15   A    
C57   H28   S    
C20   H34   S    
C37   C46   S    
C2    O4    A    
C1    C49   S    
Cu1   N2    S    
Cu2   N1    S    
C64   H48   S    
C19   H33   S    
