data_mof_unit_756.cif
_audit_creation_date              2012-12-10T17:49:42-0500
_audit_creation_method            fapswitch 2.2
_symmetry_space_group_name_H-M    P1
_symmetry_Int_Tables_number       1
_space_group_crystal_system       triclinic
_cell_length_a                    10.512949
_cell_length_b                    10.653902
_cell_length_c                    9.976476
_cell_angle_alpha                 88.468362
_cell_angle_beta                  89.998048
_cell_angle_gamma                 90.559432
_cell_volume                      1116.95198213

loop_
_atom_site_label
_atom_site_type_symbol
_atom_type_description
_atom_site_fract_x
_atom_site_fract_y
_atom_site_fract_z
_atom_type_partial_charge
C1    C     C_R   0.505892 0.260722 0.501406 0.958731
C2    C     C_R   0.606116 0.063113 0.580982 -0.019451
C3    C     C_R   0.513850 0.127742 0.503028 -0.178113
C4    C     C_R   0.257647 0.500692 0.500011 0.894049
C5    C     C_R   0.427524 0.064734 0.421374 0.665997
C6    C     C_R   0.429771 0.936852 0.417554 -0.270583
C7    C     C_R   0.517025 0.871207 0.495782 -0.179689
C8    C     C_R   0.300478 0.381759 0.141499 -0.078928
C9    C     C_R   0.186635 0.362591 0.073492 -0.161574
C10   C     C_R   0.186793 0.370830 0.934163 -0.254736
C11   C     C_R   0.304584 0.368686 0.869376 0.450004
C12   C     C_3   0.959738 0.499367 0.370622 -0.150661
C13   C     C_R   0.404454 0.436907 0.930443 0.048375
C14   C     C_R   0.403696 0.439414 0.074039 0.130794
C15   C     C_R   0.592830 0.558191 0.069529 -0.065564
C16   C     C_R   0.504868 0.739054 0.498508 0.893125
C17   C     C_R   0.592400 0.558817 0.926793 -0.050944
C18   C     C_R   0.742455 0.501024 0.499550 0.818259
C19   C     C_3   0.040361 0.505161 0.626050 -0.138227
C20   C     C_3   0.956827 0.400432 0.566962 -0.144893
C21   C     C_3   0.877821 0.502248 0.497473 0.016293
C22   C     C_3   0.959066 0.606988 0.555845 -0.179919
C23   C     C_3   0.041342 0.397515 0.440708 -0.144389
C24   C     C_3   0.043784 0.603990 0.429544 -0.169163
C25   C     C_3   0.122462 0.502045 0.499793 0.019003
C26   C     C_R   0.696093 0.124849 0.662727 -0.197980
C27   C     C_R   0.780687 0.055880 0.743324 0.515982
C28   C     C_R   0.784778 0.925942 0.734249 -0.224988
C29   C     C_R   0.701225 0.864447 0.649877 -0.245201
C30   C     C_R   0.608044 0.931704 0.576077 0.116649
F1    F     F_    0.337086 0.126996 0.349424 -0.660733
H1    H     H_    0.915948 0.316654 0.619251 0.166658
H2    H     H_    0.076176 0.511145 0.730008 0.135829
H3    H     H_    0.922888 0.692650 0.602987 0.139475
H4    H     H_    0.083934 0.686790 0.373738 0.156298
H5    H     H_    0.923164 0.496952 0.266294 0.160092
H6    H     H_    0.079620 0.312117 0.394390 0.178304
H7    H     H_    0.700704 0.225896 0.666667 0.169886
H8    H     H_    0.273939 0.027659 0.896225 0.387596
H9    H     H_    0.876329 0.335701 0.851391 0.337159
H10   H     H_    0.853077 0.871903 0.792325 0.173934
H11   H     H_    0.710796 0.764007 0.643639 0.161750
H12   H     H_    0.359880 0.888415 0.357260 0.185476
H13   H     H_    0.668646 0.606327 0.121196 0.141949
H14   H     H_    0.306390 0.347945 0.242860 0.243477
H15   H     H_    0.102275 0.330490 0.126931 0.195155
H16   H     H_    0.102688 0.339269 0.882995 0.218557
H17   H     H_    0.667773 0.607548 0.872243 0.133816
N1    N     N_R   0.498800 0.498800 0.142780 -0.116330
N2    N     N_R   0.498760 0.498720 0.857170 -0.120724
O1    O     O_R   0.500000 0.316780 0.614690 -0.553376
O2    O     O_2   0.475150 0.184739 0.836213 -0.284598
O3    O     O_3   0.257924 0.112233 0.931117 -0.469822
O4    O     O_2   0.902551 0.050853 0.978419 -0.247616
O5    O     O_2   0.009882 0.149617 0.785252 -0.314511
O6    O     O_3   0.823531 0.270594 0.897739 -0.548824
O7    O     O_R   0.499990 0.316750 0.385360 -0.601880
O8    O     O_R   0.313960 0.499980 0.614650 -0.632658
O9    O     O_R   0.313940 0.499960 0.385310 -0.656293
O10   O     O_R   0.500010 0.683250 0.614640 -0.619685
O11   O     O_R   0.500000 0.683220 0.385310 -0.615792
O12   O     O_R   0.686060 0.500040 0.614690 -0.644826
O13   O     O_R   0.686040 0.500020 0.385350 -0.623113
O14   O     O_2   0.287582 0.190439 0.685859 -0.300088
S1    S     S_3+6 0.335592 0.212043 0.825274 0.075553
S2    S     S_3+6 0.883827 0.131483 0.854215 0.014746
Zn1   Zn    Zn3+2 0.500010 0.500020 0.653130 0.991129
Zn2   Zn    Zn3+2 0.499990 0.499980 0.346870 0.971770

loop_
_geom_bond_atom_site_label_1
_geom_bond_atom_site_label_2
_ccdc_geom_bond_type
C17   N2    A    
C20   C23   S    
C6    C7    A    
O4    S2    D    
N1    Zn2   S    
C1    O7    A    
O9    Zn2   S    
C12   H5    S    
C18   C21   S    
O3    S1    S    
N2    Zn1   S    
C28   H10   S    
C19   C20   S    
C12   C23   S    
C17   H17   S    
C2    C30   A    
C10   C11   A    
O14   S1    D    
O5    S2    D    
H9    O6    S    
C15   N1    A    
C2    C3    A    
C9    H15   S    
C2    C26   A    
C27   S2    S    
O1    Zn1   S    
C21   C22   S    
C24   C25   S    
C11   C13   A    
O11   Zn2   S    
C26   C27   A    
C29   C30   A    
O12   Zn1   S    
O6    S2    S    
C4    O9    A    
C28   C29   A    
H8    O3    S    
C15   H13   S    
C29   H11   S    
C6    H12   S    
C23   C25   S    
C20   H1    S    
C5    C6    A    
C22   H3    S    
C22   C24   S    
C18   O13   A    
C5    F1    S    
C14   N1    A    
C16   O11   A    
C19   C25   S    
C13   N2    A    
C24   H4    S    
C4    C25   S    
O8    Zn1   S    
C10   H16   S    
C19   C22   S    
C20   C21   S    
C15   C17   A    
C9    C10   A    
C4    O8    A    
C27   C28   A    
C7    C30   A    
C12   C24   S    
O13   Zn2   S    
C26   H7    S    
C8    C14   A    
C1    O1    A    
O7    Zn2   S    
C13   C14   A    
C3    C5    A    
C18   O12   A    
C23   H6    S    
C16   O10   A    
C11   S1    S    
C12   C21   S    
C7    C16   S    
O2    S1    D    
C8    H14   S    
O10   Zn1   S    
C19   H2    S    
C8    C9    A    
C1    C3    S    
