data_mof_unit_1120.cif
_audit_creation_date              2012-12-10T18:04:01-0500
_audit_creation_method            fapswitch 2.2
_symmetry_space_group_name_H-M    P1
_symmetry_Int_Tables_number       1
_space_group_crystal_system       monoclinic
_cell_length_a                    10.834095
_cell_length_b                    9.515975
_cell_length_c                    10.863316
_cell_angle_alpha                 90.0
_cell_angle_beta                  90.156476
_cell_angle_gamma                 90.0
_cell_volume                      1119.97086496

loop_
_atom_site_label
_atom_site_type_symbol
_atom_type_description
_atom_site_fract_x
_atom_site_fract_y
_atom_site_fract_z
_atom_type_partial_charge
C1    C     C_R   0.262053 0.499962 0.499910 0.787680
C2    C     C_R   0.737947 0.499962 0.500089 0.787680
C3    C     C_R   0.424984 0.074424 0.421744 -0.029528
C4    C     C_R   0.575016 0.074424 0.578256 -0.029528
C5    C     C_R   0.424981 0.925568 0.421748 -0.028852
C6    C     C_R   0.575019 0.925568 0.578252 -0.028852
C7    C     C_R   0.499860 0.499869 0.262611 0.808191
C8    C     C_R   0.500140 0.499869 0.737389 0.808191
C9    C     C_R   0.499868 0.621436 0.061966 0.133131
C10   C     C_R   0.500131 0.621436 0.938034 0.133131
C11   C     C_R   0.499823 0.498160 0.130041 -0.106768
C12   C     C_R   0.500177 0.498160 0.869959 -0.106768
C13   C     C_R   0.499903 0.369959 0.064557 -0.219539
C14   C     C_R   0.500097 0.369959 0.935443 -0.219540
C15   C     C_3   0.500184 0.777665 0.929094 -0.473463
C16   C     C_3   0.499816 0.777665 0.070906 -0.473464
C17   C     C_R   0.063847 0.372271 0.499933 -0.186824
C18   C     C_R   0.936153 0.372271 0.500067 -0.186824
C19   C     C_R   0.871788 0.499975 0.500103 -0.016929
C20   C     C_R   0.128212 0.499975 0.499897 -0.016930
C21   C     C_R   0.936150 0.627683 0.500067 -0.188294
C22   C     C_R   0.063850 0.627683 0.499933 -0.188293
Cu1   Cu    Cu3+1 0.500000 0.640660 0.500000 0.939260
Cu2   Cu    Cu3+1 0.500000 0.359340 0.500000 0.939104
H1    H     H_    0.587056 0.818958 0.888638 0.190720
H2    H     H_    0.412944 0.818958 0.111362 0.190720
H3    H     H_    0.413567 0.819012 0.887672 0.202788
H4    H     H_    0.586434 0.819011 0.112328 0.202788
H5    H     H_    0.111870 0.272423 0.499869 0.148434
H6    H     H_    0.888130 0.272423 0.500131 0.148434
H7    H     H_    0.888122 0.727528 0.500131 0.148205
H8    H     H_    0.111878 0.727528 0.499869 0.148205
H9    H     H_    0.364865 0.130537 0.359089 0.116308
H10   H     H_    0.635135 0.130537 0.640911 0.116308
H11   H     H_    0.364849 0.869439 0.359121 0.114382
H12   H     H_    0.635151 0.869439 0.640879 0.114382
N1    N     N_R   0.500000 0.852070 0.500000 -0.155637
N2    N     N_R   0.500000 0.147940 0.500000 -0.156025
O1    O     O_R   0.319640 0.618740 0.499990 -0.589892
O2    O     O_R   0.680360 0.618740 0.500010 -0.589892
O3    O     O_R   0.319620 0.381170 0.499990 -0.588701
O4    O     O_R   0.680380 0.381170 0.500010 -0.588701
O5    O     O_R   0.499990 0.618810 0.319660 -0.581775
O6    O     O_R   0.500010 0.618810 0.680340 -0.581775
O7    O     O_R   0.499960 0.381240 0.319650 -0.588793
O8    O     O_R   0.500040 0.381240 0.680350 -0.588793
H13   H     H_    0.499831 0.270032 0.112301 0.166170
H14   H     H_    0.500169 0.270032 0.887699 0.166170

loop_
_geom_bond_atom_site_label_1
_geom_bond_atom_site_label_2
_ccdc_geom_bond_type
C16   H4    S    
Cu2   N2    S    
Cu1   Cu2   S    
C6    H12   S    
C18   H6    S    
C2    O2    A    
C11   C13   A    
C9    C10   A    
C15   H3    S    
Cu1   N1    S    
C8    C12   S    
Cu2   O8    S    
C17   C18   A    
C6    N1    A    
Cu1   O5    S    
C4    N2    A    
C13   C14   A    
C7    C11   S    
Cu2   O3    S    
C21   H7    S    
C8    O6    A    
C22   H8    S    
C2    O4    A    
Cu1   O1    S    
Cu2   O7    S    
C7    O7    A    
C1    O3    A    
C19   C21   A    
C9    C16   S    
C20   C22   A    
C10   C12   A    
C10   C15   S    
C9    C11   A    
C4    H10   S    
C16   H2    S    
C8    O8    A    
C15   H1    S    
Cu2   O4    S    
C3    H9    S    
Cu1   O2    S    
C5    H11   S    
C17   C20   A    
C17   H5    S    
C4    C6    A    
C18   C19   A    
C7    O5    A    
C13   H13   S    
C1    O1    A    
C5    N1    A    
C1    C20   S    
C14   H14   S    
C2    C19   S    
C21   C22   A    
Cu1   O6    S    
C15   C16   S    
C3    N2    A    
C12   C14   A    
C3    C5    A    
