data_mof_unit_562.cif
_audit_creation_date              2012-12-11T16:44:13-0500
_audit_creation_method            fapswitch 2.2
_symmetry_space_group_name_H-M    P1
_symmetry_Int_Tables_number       1
_space_group_crystal_system       triclinic
_cell_length_a                    27.150755
_cell_length_b                    7.209558
_cell_length_c                    22.812669
_cell_angle_alpha                 89.963738
_cell_angle_beta                  101.387222
_cell_angle_gamma                 90.024834
_cell_volume                      4377.56186065

loop_
_atom_site_label
_atom_site_type_symbol
_atom_type_description
_atom_site_fract_x
_atom_site_fract_y
_atom_site_fract_z
_atom_type_partial_charge
O1    O     O_R   0.707300 0.594030 0.176840 -0.530375
O2    O     O_R   0.292700 0.405970 0.823160 -0.529983
O3    O     O_R   0.792700 0.094030 0.323160 -0.530009
O4    O     O_R   0.207300 0.905970 0.676840 -0.529930
O5    O     O_R   0.697330 0.262360 0.295660 -0.538003
O6    O     O_R   0.302670 0.737640 0.704340 -0.537784
O7    O     O_R   0.802670 0.762360 0.204340 -0.535047
O8    O     O_R   0.197330 0.237640 0.795660 -0.537767
C1    C     C_R   0.684684 0.432421 0.311514 0.680695
C2    C     C_R   0.315317 0.567578 0.688487 0.681627
C3    C     C_R   0.815314 0.932540 0.188449 0.683383
C4    C     C_R   0.184670 0.067452 0.811550 0.681279
O9    O     O_R   0.701410 0.264250 0.175600 -0.541042
O10   O     O_R   0.298590 0.735750 0.824400 -0.540879
O11   O     O_R   0.798590 0.764250 0.324400 -0.540616
O12   O     O_R   0.201410 0.235750 0.675600 -0.540862
O13   O     O_R   0.796800 0.094950 0.202240 -0.539272
O14   O     O_R   0.203200 0.905050 0.797760 -0.538046
O15   O     O_R   0.703200 0.594950 0.297760 -0.538221
O16   O     O_R   0.296800 0.405050 0.702240 -0.537851
C5    C     C_R   0.689841 0.432662 0.153465 0.725290
C6    C     C_R   0.310157 0.567339 0.846536 0.725908
C7    C     C_R   0.810157 0.932616 0.346536 0.726461
C8    C     C_R   0.189842 0.067383 0.653465 0.726123
O17   O     O_3   0.781290 0.427390 0.258880 -0.373849
O18   O     O_3   0.218710 0.572610 0.741120 -0.374839
O19   O     O_3   0.718710 0.927390 0.241120 -0.375373
O20   O     O_3   0.281290 0.072610 0.758880 -0.374671
V1    V     V_3+5 0.744190 0.152150 0.248350 1.423815
V2    V     V_3+5 0.255810 0.847850 0.751650 1.422562
V3    V     V_3+5 0.755810 0.652150 0.251650 1.428332
V4    V     V_3+5 0.244190 0.347850 0.748350 1.422498
C9    C     C_R   0.155370 0.060769 0.594652 -0.050954
C10   C     C_R   0.844629 0.939229 0.405350 -0.051151
C11   C     C_R   0.344627 0.560594 0.905350 -0.050866
C12   C     C_R   0.655370 0.439416 0.094652 -0.050802
C13   C     C_R   0.140732 0.089120 0.486843 -0.194509
C14   C     C_R   0.859267 0.910851 0.513158 -0.194803
C15   C     C_R   0.359258 0.588458 0.013160 -0.195201
C16   C     C_R   0.640740 0.411653 0.986840 -0.195118
C17   C     C_R   0.173972 0.091639 0.542261 0.199599
C18   C     C_R   0.826027 0.908340 0.457741 0.199360
C19   C     C_R   0.326019 0.591109 0.957741 0.199749
C20   C     C_R   0.673978 0.408977 0.042258 0.199411
C21   C     C_R   0.103728 0.028642 0.591102 -0.274322
C22   C     C_R   0.896271 0.971362 0.408900 -0.272920
C23   C     C_R   0.396271 0.528697 0.908899 -0.274587
C24   C     C_R   0.603724 0.471289 0.091105 -0.274643
C25   C     C_R   0.069293 0.027943 0.535177 0.089159
C26   C     C_R   0.930706 0.972046 0.464826 0.088990
C27   C     C_R   0.430704 0.527857 0.964826 0.089127
C28   C     C_R   0.569292 0.472173 0.035177 0.089140
C29   C     C_R   0.089117 0.058708 0.482975 0.103387
C30   C     C_R   0.910882 0.941269 0.517027 0.104398
C31   C     C_R   0.410875 0.558253 0.017029 0.104365
C32   C     C_R   0.589122 0.441822 0.982973 0.104329
C33   C     C_R   0.016078 0.998872 0.529108 0.067457
C34   C     C_R   0.983920 0.001114 0.470895 0.066386
C35   C     C_R   0.483920 0.498992 0.970895 0.067310
C36   C     C_R   0.516076 0.501043 0.029109 0.067320
C37   C     C_R   0.006084 0.031987 0.420764 -0.183815
C38   C     C_R   0.993915 0.967989 0.579239 -0.185954
C39   C     C_R   0.493908 0.531552 0.079241 -0.186243
C40   C     C_R   0.506088 0.468507 0.920762 -0.186222
C41   C     C_R   0.057425 0.059920 0.426854 -0.187583
C42   C     C_R   0.942573 0.940050 0.573148 -0.189065
C43   C     C_R   0.442565 0.559303 0.073151 -0.189295
C44   C     C_R   0.557433 0.440784 0.926851 -0.189191
H1    H     H_    0.072528 0.083335 0.386874 0.125188
H2    H     H_    0.927471 0.916624 0.613128 0.123925
H3    H     H_    0.427459 0.582441 0.113132 0.123904
H4    H     H_    0.572539 0.417676 0.886869 0.124047
H5    H     H_    0.908173 0.993295 0.367104 0.105781
H6    H     H_    0.091825 0.006727 0.632899 0.104058
H7    H     H_    0.591817 0.492879 0.132904 0.103970
H8    H     H_    0.408177 0.507050 0.867102 0.104037
H9    H     H_    0.155192 0.112536 0.446418 0.112281
H10   H     H_    0.844807 0.887423 0.553583 0.112314
H11   H     H_    0.344795 0.611597 0.053586 0.112018
H12   H     H_    0.655205 0.388553 0.946414 0.112287
H13   H     H_    0.984751 0.035706 0.375698 0.125416
H14   H     H_    0.015248 0.964261 0.624305 0.122677
H15   H     H_    0.515240 0.535132 0.124308 0.122684
H16   H     H_    0.484757 0.464947 0.875695 0.122730
C45   C     C_R   0.882253 0.108912 0.150138 -0.133692
C46   C     C_R   0.118536 0.889417 0.850971 -0.214855
C47   C     C_R   0.617653 0.608239 0.349607 -0.213418
C48   C     C_R   0.382356 0.391758 0.650409 -0.213348
H17   H     H_    0.876476 0.225076 0.178125 0.145362
H18   H     H_    0.125323 0.771111 0.824390 0.132185
H19   H     H_    0.623657 0.725061 0.321939 0.131471
H20   H     H_    0.376347 0.274937 0.678074 0.131600
C49   C     C_R   0.918266 0.125844 0.114039 0.213265
C50   C     C_R   0.082107 0.873781 0.886783 0.214435
C51   C     C_R   0.581229 0.623748 0.385398 0.212470
C52   C     C_R   0.418790 0.376250 0.614633 0.212459
C53   C     C_R   0.926554 0.976506 0.076766 0.032714
C54   C     C_R   0.072502 0.025002 0.922035 0.090761
C55   C     C_R   0.572709 0.474234 0.422161 0.094992
C56   C     C_R   0.427316 0.525761 0.577873 0.095011
C57   C     C_R   0.899513 0.810898 0.078826 -0.163587
C58   C     C_R   0.099028 0.191270 0.919453 -0.213819
C59   C     C_R   0.600141 0.309389 0.420599 -0.210990
C60   C     C_R   0.399877 0.690603 0.579423 -0.211006
H21   H     H_    0.905427 0.694278 0.051131 0.124303
H22   H     H_    0.092597 0.308071 0.946755 0.124493
H23   H     H_    0.594549 0.193248 0.448688 0.124643
H24   H     H_    0.405470 0.806738 0.551331 0.124581
C61   C     C_R   0.864081 0.794656 0.115684 -0.144949
C62   C     C_R   0.134789 0.207055 0.882973 -0.160725
C63   C     C_R   0.635787 0.293796 0.384016 -0.162410
C64   C     C_R   0.364223 0.706195 0.615995 -0.162401
H25   H     H_    0.843460 0.665948 0.115440 0.147871
H26   H     H_    0.154904 0.336684 0.882626 0.140329
H27   H     H_    0.656611 0.165506 0.384520 0.141455
H28   H     H_    0.343396 0.834481 0.615484 0.141499
C65   C     C_R   0.854506 0.944465 0.151174 -0.114648
C66   C     C_R   0.145359 0.055548 0.848694 -0.071513
C67   C     C_R   0.645404 0.443921 0.348598 -0.071173
C68   C     C_R   0.354602 0.556074 0.651411 -0.071379
C69   C     C_R   0.002842 0.858363 0.041611 -0.171737
C70   C     C_R   0.995605 0.140862 0.956231 -0.163192
C71   C     C_R   0.499782 0.346538 0.462498 -0.184419
C72   C     C_R   0.500247 0.653450 0.537543 -0.184364
H29   H     H_    0.006365 0.748815 0.074698 0.121668
H30   H     H_    0.991993 0.250036 0.923009 0.125263
H31   H     H_    0.498705 0.227492 0.433322 0.126500
H32   H     H_    0.501321 0.772498 0.566717 0.126551
C73   C     C_R   0.038080 0.869752 0.004358 -0.104175
C74   C     C_R   0.960003 0.127971 0.992929 -0.150775
C75   C     C_R   0.464611 0.359116 0.499745 -0.098422
C76   C     C_R   0.535418 0.640872 0.500296 -0.098343
H33   H     H_    0.068210 0.768998 0.009515 0.121915
H34   H     H_    0.929135 0.225601 0.986458 0.111510
H35   H     H_    0.436979 0.249927 0.498164 0.128048
H36   H     H_    0.563049 0.750066 0.501875 0.128119
C77   C     C_R   0.034921 0.011589 0.961426 0.113728
C78   C     C_R   0.963754 0.988662 0.036775 0.082065
C79   C     C_R   0.464608 0.512228 0.537971 0.110783
C80   C     C_R   0.535421 0.487760 0.462070 0.110779
N1    N     N_3   0.773245 0.876317 0.454310 -0.680581
H37   H     H_    0.764680 0.746198 0.434723 0.226784
H38   H     H_    0.765033 0.868980 0.497141 0.225701
N2    N     N_3   0.226754 0.123657 0.545692 -0.680487
H39   H     H_    0.235315 0.253805 0.565266 0.226859
H40   H     H_    0.234969 0.130939 0.502858 0.225579
N3    N     N_3   0.726764 0.377215 0.045689 -0.680269
H41   H     H_    0.735333 0.246952 0.065217 0.226560
H42   H     H_    0.734986 0.370319 0.002855 0.225442
N4    N     N_3   0.273235 0.622910 0.954309 -0.680609
H43   H     H_    0.264658 0.753077 0.934715 0.226646
H44   H     H_    0.265022 0.630045 0.997145 0.225099
N5    N     N_3   0.947314 0.293088 0.118363 -0.684036
H45   H     H_    0.938520 0.364581 0.077881 0.220005
H46   H     H_    0.985446 0.258320 0.126665 0.235703
N6    N     N_3   0.054111 0.705273 0.886161 -0.686320
H47   H     H_    0.035512 0.680408 0.842192 0.230003
H48   H     H_    0.079766 0.597658 0.898631 0.219381
N7    N     N_3   0.552004 0.789902 0.382942 -0.690186
H49   H     H_    0.576752 0.900990 0.394353 0.220093
H50   H     H_    0.533254 0.809435 0.338733 0.230995
N8    N     N_3   0.448016 0.210090 0.617095 -0.690120
H51   H     H_    0.466737 0.190475 0.661309 0.231078
H52   H     H_    0.423268 0.099036 0.605642 0.220080

loop_
_geom_bond_atom_site_label_1
_geom_bond_atom_site_label_2
_ccdc_geom_bond_type
O17   V3    S    
C55   C59   A    
C48   C52   A    
O1    C5    A    
C47   H19   S    
O19   V1    S    
C9    C21   A    
C72   C79   A    
O3    C7    A    
N3    H41   S    
C10   C18   A    
C56   C60   A    
O15   V3    S    
C62   C66   A    
C61   C65   A    
C33   C38   A    
C5    C12   S    
O7    C3    A    
C6    C11   S    
C35   C40   A    
C26   C30   A    
C36   C39   A    
C51   N7    S    
C40   C44   A    
O2    V4    S    
O9    V1    S    
N6    H47   S    
N3    H42   S    
C23   H8    S    
C14   C18   A    
C75   H35   S    
N1    H38   S    
O4    C8    A    
C51   C55   A    
C44   H4    S    
C43   H3    S    
C50   C54   A    
C57   C61   A    
C60   H24   S    
O1    V3    S    
C20   N3    S    
O13   V1    S    
C31   C43   A    
C72   C76   A    
C59   C63   A    
O3    V1    S    
C40   H16   S    
C46   C50   A    
C69   H29   S    
C45   C49   A    
N6    H48   S    
C1    O15   A    
C15   C31   A    
C76   C80   A    
C48   H20   S    
C2    O16   A    
C16   C32   A    
C47   C51   A    
O2    C6    A    
N7    H50   S    
C58   H22   S    
C10   C22   A    
C48   C68   A    
C11   C19   A    
C62   H26   S    
C16   C20   A    
N8    H52   S    
C37   H13   S    
C76   H36   S    
C72   H32   S    
C13   C29   A    
C34   C37   A    
O11   C7    A    
C38   H14   S    
C11   C23   A    
C35   C36   A    
O12   C8    A    
C24   H7    S    
C47   C67   A    
C74   H34   S    
O10   V2    S    
C73   C77   A    
O5    V1    S    
C57   H21   S    
C39   C43   A    
O7    V3    S    
C38   C42   A    
C54   C77   S    
O8    V4    S    
C2    C68   S    
C17   N2    S    
N2    H40   S    
C46   H18   S    
C64   C68   A    
C45   H17   S    
O18   V4    S    
C15   C19   A    
C14   H10   S    
C32   C44   A    
C13   H9    S    
C71   C80   A    
C39   H15   S    
C21   H6    S    
C26   C34   A    
C69   C78   A    
C70   H30   S    
O5    C1    A    
C56   C79   S    
C63   H27   S    
C71   H31   S    
N7    H49   S    
C14   C30   A    
C21   C25   A    
O8    C4    A    
C7    C10   S    
C18   N1    S    
C16   H12   S    
O9    C5    A    
C46   C66   A    
C45   C65   A    
C19   N4    S    
C73   H33   S    
C63   C67   A    
C50   N6    S    
O6    V2    S    
O14   V2    S    
C1    C67   S    
N4    H44   S    
C55   C80   S    
C12   C20   A    
N5    H46   S    
C3    C65   S    
C49   C53   A    
C53   C78   S    
C64   H28   S    
C29   C41   A    
C60   C64   A    
N8    H51   S    
O16   V4    S    
C3    O13   A    
C71   C75   A    
C8    C9    S    
C70   C77   A    
C69   C73   A    
N2    H39   S    
O6    C2    A    
C25   C33   A    
C23   C27   A    
O11   V3    S    
C30   C42   A    
C61   H25   S    
O12   V4    S    
C22   C26   A    
C4    C66   S    
C9    C17   A    
O10   C6    A    
C49   N5    S    
C54   C58   A    
N1    H37   S    
C33   C34   A    
C42   H2    S    
C58   C62   A    
C41   H1    S    
C52   C56   A    
O20   V2    S    
C52   N8    S    
C12   C24   A    
C27   C31   A    
C13   C17   A    
O4    V2    S    
C25   C29   A    
C75   C79   A    
C37   C41   A    
C24   C28   A    
C27   C35   A    
C28   C36   A    
C4    O14   A    
N4    H43   S    
C59   H23   S    
N5    H45   S    
C70   C74   A    
C22   H5    S    
C53   C57   A    
C28   C32   A    
C15   H11   S    
C74   C78   A    
