data_mof_unit_3358.cif
_audit_creation_date              2012-12-10T20:34:54-0500
_audit_creation_method            fapswitch 2.2
_symmetry_space_group_name_H-M    P1
_symmetry_Int_Tables_number       1
_space_group_crystal_system       triclinic
_cell_length_a                    10.645282
_cell_length_b                    10.710335
_cell_length_c                    9.897985
_cell_angle_alpha                 91.344838
_cell_angle_beta                  89.127718
_cell_angle_gamma                 90.358944
_cell_volume                      1128.05287849

loop_
_atom_site_label
_atom_site_type_symbol
_atom_type_description
_atom_site_fract_x
_atom_site_fract_y
_atom_site_fract_z
_atom_type_partial_charge
C1    C     C_R   0.493583 0.259860 0.498190 0.882283
C2    C     C_3   0.878490 0.508221 0.499572 0.122232
C3    C     C_3   0.928622 0.609872 0.403265 -0.410816
C4    C     C_3   0.929165 0.379111 0.453237 -0.387156
C5    C     C_R   0.463598 0.066367 0.616123 0.103274
C6    C     C_R   0.467274 0.128366 0.494826 -0.160238
C7    C     C_R   0.433381 0.060416 0.375551 -0.112408
C8    C     C_R   0.425266 0.929472 0.379812 -0.207712
C9    C     C_R   0.457059 0.869286 0.501079 -0.137373
C10   C     C_R   0.458093 0.940455 0.620064 0.052387
C11   C     C_3   0.514706 0.937937 0.758123 -0.152726
C12   C     C_R   0.258011 0.506577 0.500886 0.865976
C13   C     C_3   0.525352 0.081215 0.749867 -0.537030
C14   C     C_R   0.390817 0.512995 0.073747 0.304577
C15   C     C_R   0.609500 0.497256 0.069960 -0.078298
C16   C     C_R   0.609489 0.497503 0.926429 -0.088044
C17   C     C_R   0.390595 0.510789 0.931436 0.347198
C18   C     C_3   0.281910 0.422404 0.929361 -0.559547
C19   C     C_3   0.280481 0.428113 0.081924 -0.518271
C20   C     C_R   0.489196 0.739345 0.501035 0.909444
C21   C     C_R   0.742122 0.503981 0.499476 0.859358
C22   C     C_3   0.067830 0.539590 0.647857 -0.179998
C23   C     C_3   0.924643 0.540395 0.644453 -0.417973
C24   C     C_3   0.073051 0.611602 0.403834 -0.337786
C25   C     C_3   0.073086 0.381518 0.453059 -0.416165
C26   C     C_3   0.121309 0.511834 0.502089 0.066229
H1    H     H_    0.895852 0.354484 0.349831 0.190692
H2    H     H_    0.108548 0.592025 0.299547 0.199801
H3    H     H_    0.896165 0.590862 0.298339 0.192262
H4    H     H_    0.466525 0.136394 0.822696 0.233336
H5    H     H_    0.093859 0.459068 0.709473 0.119672
H6    H     H_    0.697980 0.493980 0.871750 0.147396
H7    H     H_    0.306098 0.328935 0.885399 0.218879
H8    H     H_    0.196195 0.475642 0.124958 0.217455
H9    H     H_    0.302833 0.338686 0.128624 0.250887
H10   H     H_    0.888589 0.470616 0.717530 0.177239
H11   H     H_    0.886231 0.633006 0.677552 0.195406
H12   H     H_    0.107213 0.706537 0.432346 0.231498
H13   H     H_    0.892213 0.703189 0.435946 0.195535
H14   H     H_    0.107863 0.307377 0.519883 0.176436
H15   H     H_    0.893959 0.305712 0.522356 0.176979
N1    N     N_R   0.499150 0.499140 0.142800 -0.118086
N2    N     N_R   0.499150 0.499180 0.857150 -0.113630
O1    O     O_R   0.500020 0.316790 0.614690 -0.623770
O2    O     O_R   0.500000 0.316760 0.385350 -0.595292
O3    O     O_R   0.314800 0.500000 0.614670 -0.623401
O4    O     O_R   0.314790 0.499960 0.385330 -0.629047
O5    O     O_R   0.500000 0.683240 0.614650 -0.574668
O6    O     O_R   0.499980 0.683210 0.385310 -0.614959
O7    O     O_R   0.685210 0.500040 0.614670 -0.636831
O8    O     O_R   0.685200 0.500000 0.385330 -0.630588
Zn1   Zn    Zn3+2 0.500010 0.500020 0.653130 0.994327
Zn2   Zn    Zn3+2 0.499990 0.499980 0.346870 0.995912
C27   C     C_2   0.115862 0.657690 0.719519 0.944720
O9    O     O_2   0.185940 0.731090 0.662370 -0.627915
O10   O     O_R   0.078655 0.681662 0.853679 -0.816728
H16   H     H_    0.116117 0.761960 0.892033 0.364537
C28   C     C_2   0.406902 0.120798 0.246307 0.942956
O11   O     O_2   0.298581 0.125580 0.207713 -0.634470
O12   O     O_R   0.506104 0.163075 0.164834 -0.779989
H17   H     H_    0.476564 0.197932 0.076553 0.337000
C29   C     C_2   0.391406 0.857805 0.255058 1.014212
O13   O     O_2   0.287512 0.809786 0.246233 -0.602091
O14   O     O_R   0.478836 0.841077 0.149667 -0.739294
H18   H     H_    0.562519 0.882799 0.169202 0.325605
C30   C     C_2   0.417403 0.892429 0.859127 1.042470
O15   O     O_2   0.395251 0.780725 0.866115 -0.575846
O16   O     O_R   0.348308 0.977195 0.939571 -0.793027
H19   H     H_    0.281195 0.934893 0.996339 0.374427
C31   C     C_2   0.641547 0.874564 0.764751 0.936096
O17   O     O_2   0.720862 0.891112 0.676043 -0.650467
O18   O     O_R   0.668370 0.797748 0.872825 -0.769524
H20   H     H_    0.755648 0.760606 0.865593 0.340472
H21   H     H_    0.623170 0.117329 0.739229 0.216399
H22   H     H_    0.697915 0.493201 0.121893 0.149368
H23   H     H_    0.196891 0.465499 0.890188 0.232492
H24   H     H_    0.108992 0.359355 0.349017 0.203736

loop_
_geom_bond_atom_site_label_1
_geom_bond_atom_site_label_2
_ccdc_geom_bond_type
C15   H22   S    
C30   O16   S    
C4    C25   S    
C11   C31   S    
C7    C8    A    
C22   C27   S    
C20   O6    A    
C25   H24   S    
C24   C26   S    
C25   H14   S    
C5    C6    A    
N2    Zn1   S    
C4    H15   S    
C28   O12   S    
C15   C16   A    
O3    Zn1   S    
O10   H16   S    
C18   C19   S    
C3    H3    S    
C29   O14   S    
C9    C20   S    
O16   H19   S    
C24   H12   S    
C31   O17   D    
C9    C10   A    
C7    C28   S    
C5    C13   S    
C11   C30   S    
C14   N1    A    
O1    Zn1   S    
C30   O15   D    
C3    H13   S    
C14   C17   A    
C3    C24   S    
C12   O4    A    
C21   O7    A    
C27   O10   S    
C22   H5    S    
C1    C6    S    
C13   H4    S    
C12   O3    A    
C8    C9    A    
C28   O11   D    
C23   H11   S    
C12   C26   S    
O12   H17   S    
O8    Zn2   S    
C2    C4    S    
C17   N2    A    
C29   O13   D    
C1    O1    A    
O7    Zn1   S    
C2    C21   S    
C17   C18   S    
C16   N2    A    
C20   O5    A    
C21   O8    A    
C4    H1    S    
C27   O9    D    
C18   H23   S    
C14   C19   S    
C24   H2    S    
C15   N1    A    
O18   H20   S    
C19   H8    S    
C6    C7    A    
C16   H6    S    
O4    Zn2   S    
O14   H18   S    
C2    C3    S    
C25   C26   S    
C5    C10   A    
N1    Zn2   S    
C19   H9    S    
C11   C13   S    
C1    O2    A    
O6    Zn2   S    
C18   H7    S    
C10   C11   S    
O2    Zn2   S    
O5    Zn1   S    
C13   H21   S    
C23   H10   S    
C22   C26   S    
C2    C23   S    
C22   C23   S    
C31   O18   S    
C8    C29   S    
