data_mof_unit_2298.cif
_audit_creation_date              2012-12-10T18:06:39-0500
_audit_creation_method            fapswitch 2.2
_symmetry_space_group_name_H-M    P1
_symmetry_Int_Tables_number       1
_space_group_crystal_system       triclinic
_cell_length_a                    12.703347
_cell_length_b                    13.230719
_cell_length_c                    15.370783
_cell_angle_alpha                 84.689137
_cell_angle_beta                  99.66044
_cell_angle_gamma                 96.917619
_cell_volume                      2521.34311841

loop_
_atom_site_label
_atom_site_type_symbol
_atom_type_description
_atom_site_fract_x
_atom_site_fract_y
_atom_site_fract_z
_atom_type_partial_charge
C1    C     C_R   0.443176 0.309005 0.508115 0.841321
C2    C     C_R   0.673746 0.478000 0.941100 0.024922
C3    C     C_R   0.584126 0.530833 0.903324 0.052068
C4    C     C_R   0.435472 0.513916 0.336182 0.823148
C5    C     C_R   0.734733 0.439215 0.886060 0.619705
C6    C     C_R   0.701723 0.444987 0.794705 -0.245810
C7    C     C_R   0.552778 0.535491 0.811799 -0.239364
C8    C     C_R   0.664954 0.943084 0.395385 -0.137682
C9    C     C_R   0.586863 0.799437 0.479268 -0.078711
C10   C     C_R   0.352050 0.165636 0.588734 -0.293040
C11   C     C_R   0.356537 0.067694 0.628364 -0.217808
C12   C     C_R   0.457753 0.551247 0.099651 -0.020639
C13   C     C_R   0.421793 0.002819 0.602155 0.631870
C14   C     C_R   0.474406 0.031458 0.526953 -0.059455
C15   C     C_R   0.467228 0.130852 0.485725 -0.044083
C16   C     C_R   0.556170 0.690818 0.490384 0.908041
C17   C     C_R   0.536369 0.967028 0.492420 0.005740
C18   C     C_R   0.599084 0.005674 0.425640 0.045356
C19   C     C_R   0.588335 0.103097 0.385169 0.560851
C20   C     C_R   0.518047 0.161892 0.411245 -0.277757
C21   C     C_R   0.529792 0.862931 0.516064 -0.139575
C22   C     C_R   0.659524 0.839856 0.422894 -0.205439
C23   C     C_R   0.389673 0.628958 0.069715 0.001620
C24   C     C_R   0.413561 0.199684 0.522206 -0.064553
C25   C     C_R   0.146990 0.638326 0.631444 -0.086440
C26   C     C_R   0.756317 0.380218 0.394553 0.037938
C27   C     C_R   0.850387 0.354232 0.372598 -0.214556
C28   C     C_R   0.565451 0.489036 0.663841 0.948610
C29   C     C_R   0.948425 0.399145 0.413730 -0.165356
C30   C     C_R   0.952884 0.471027 0.477505 -0.012571
C31   C     C_R   0.854771 0.494791 0.498092 0.078062
C32   C     C_R   0.050593 0.520097 0.521254 -0.026932
C33   C     C_R   0.049992 0.589993 0.586676 -0.037295
C34   C     C_R   0.535127 0.533683 0.048446 0.062750
C35   C     C_R   0.952664 0.610858 0.605358 -0.296962
C36   C     C_R   0.857908 0.565951 0.562084 0.603875
C37   C     C_R   0.149872 0.502964 0.502205 -0.153004
C38   C     C_R   0.241848 0.617604 0.607267 0.724566
C39   C     C_R   0.401705 0.539482 0.242283 -0.051805
C40   C     C_R   0.608148 0.489732 0.758013 -0.153836
C41   C     C_R   0.328869 0.661792 0.127730 -0.129019
C42   C     C_R   0.340117 0.621347 0.215284 -0.254649
C43   C     C_R   0.445868 0.494150 0.180052 0.072666
C44   C     C_3   0.152675 0.710636 0.703844 -0.339241
C45   C     C_R   0.522016 0.568930 0.958431 0.020649
C46   C     C_3   0.133987 0.818956 0.664243 -0.353459
C47   C     C_3   0.135784 0.890780 0.736729 -0.785438
C48   C     C_3   0.459831 0.380322 0.192510 -0.431605
C49   C     C_3   0.355273 0.315872 0.210208 -0.368414
C50   C     C_3   0.355184 0.204246 0.192152 -0.811790
C51   C     C_R   0.447439 0.640397 0.926964 -0.304251
C52   C     C_R   0.385220 0.673077 0.983107 0.609973
C53   C     C_R   0.628451 0.487410 0.086031 -0.233740
C54   C     C_R   0.698219 0.461844 0.032982 -0.151530
F1    F     F_    0.319245 0.746327 0.952027 -0.673909
F2    F     F_    0.822713 0.391234 0.920720 -0.665369
F3    F     F_    0.640797 0.139365 0.316718 -0.705166
F4    F     F_    0.439646 0.918116 0.656886 -0.665783
F5    F     F_    0.337878 0.662854 0.645521 -0.662193
F6    F     F_    0.772343 0.597523 0.586143 -0.645554
H1    H     H_    0.704772 0.790705 0.394340 0.167504
H2    H     H_    0.679740 0.345716 0.363007 0.153884
H3    H     H_    0.018713 0.375460 0.394309 0.139731
H4    H     H_    0.847409 0.299363 0.323938 0.186657
H5    H     H_    0.746895 0.411175 0.753227 0.193892
H6    H     H_    0.767846 0.424369 0.063760 0.201412
H7    H     H_    0.278652 0.723101 0.107382 0.199251
H8    H     H_    0.303000 0.655561 0.262209 0.172561
H9    H     H_    0.440751 0.676755 0.860681 0.207733
H10   H     H_    0.648277 0.471301 0.156841 0.160943
H11   H     H_    0.071566 0.863485 0.776901 0.268877
H12   H     H_    0.715459 0.972233 0.346487 0.195777
H13   H     H_    0.214979 0.895250 0.780518 0.296898
H14   H     H_    0.121800 0.968404 0.706231 0.236455
H15   H     H_    0.197994 0.848556 0.624347 0.254404
H16   H     H_    0.055337 0.818459 0.619891 0.222627
H17   H     H_    0.094860 0.681533 0.749407 0.203866
H18   H     H_    0.232709 0.713834 0.746535 0.269113
H19   H     H_    0.428244 0.172608 0.228799 0.286364
H20   H     H_    0.283393 0.158569 0.213288 0.248747
H21   H     H_    0.352399 0.197532 0.120280 0.268327
H22   H     H_    0.345146 0.319770 0.280204 0.203613
H23   H     H_    0.471529 0.827402 0.555580 0.250331
H24   H     H_    0.285141 0.346316 0.166861 0.244492
H25   H     H_    0.480857 0.354001 0.131752 0.236482
H26   H     H_    0.525880 0.365046 0.247377 0.206988
H27   H     H_    0.309572 0.217782 0.616672 0.190007
H28   H     H_    0.316230 0.044896 0.684870 0.181579
H29   H     H_    0.505410 0.233562 0.373373 0.172963
H30   H     H_    0.480646 0.568705 0.781742 0.213143
H31   H     H_    0.947354 0.664339 0.653096 0.195748
H32   H     H_    0.160041 0.452161 0.454253 0.154380
N1    N     N_R   0.239390 0.551900 0.544730 -0.164117
N2    N     N_R   0.759950 0.448600 0.455730 -0.123993
O1    O     O_R   0.374950 0.371210 0.521360 -0.623638
O2    O     O_R   0.542050 0.338030 0.492790 -0.617790
O3    O     O_R   0.368720 0.526070 0.390200 -0.622822
O4    O     O_R   0.535820 0.492890 0.361630 -0.630138
O5    O     O_R   0.457950 0.661970 0.507210 -0.584638
O6    O     O_R   0.625050 0.628790 0.478640 -0.543982
O7    O     O_R   0.464180 0.507110 0.638370 -0.578285
O8    O     O_R   0.631280 0.473930 0.609800 -0.544590
Zn1   Zn    Zn3+2 0.388420 0.522150 0.519080 0.987961
Zn2   Zn    Zn3+2 0.611580 0.477850 0.480920 0.991338

loop_
_geom_bond_atom_site_label_1
_geom_bond_atom_site_label_2
_ccdc_geom_bond_type
C26   N2    A    
O5    Zn1   S    
C29   H3    S    
C4    O4    A    
C27   C29   A    
C41   C42   A    
C5    F2    S    
C19   C20   A    
C50   H19   S    
N1    Zn1   S    
C46   H16   S    
C41   H7    S    
C53   C54   A    
C19   F3    S    
C12   C23   A    
C26   C27   A    
C49   H24   S    
C44   H17   S    
C9    C16   S    
C12   C43   A    
C3    C7    A    
C31   C36   A    
C30   C31   A    
C9    C22   A    
C45   C51   A    
O6    Zn2   S    
C18   C19   A    
C28   O7    A    
C6    H5    S    
C21   H23   S    
C44   C46   S    
C8    C22   A    
C7    C40   A    
C43   C48   S    
C52   F1    S    
N2    Zn2   S    
O7    Zn1   S    
C13   C14   A    
C42   H8    S    
C14   C17   A    
C53   H10   S    
C25   C44   S    
C46   H15   S    
O1    Zn1   S    
C39   C42   A    
C15   C20   A    
C10   H27   S    
C8    H12   S    
C51   C52   A    
C47   H13   S    
C2    C54   A    
C16   O6    A    
C39   C43   A    
C13   F4    S    
C10   C24   A    
C7    H30   S    
C3    C45   A    
C8    C18   A    
C35   C36   A    
C49   H22   S    
C29   C30   A    
C25   C38   A    
C4    C39   S    
C11   H28   S    
C1    O1    A    
C17   C18   A    
C37   N1    A    
C34   C45   A    
C32   C37   A    
O8    Zn2   S    
C47   H11   S    
O3    Zn1   S    
C1    C24   S    
C48   C49   S    
O2    Zn2   S    
C48   H26   S    
C2    C5    A    
C12   C34   A    
C46   C47   S    
C15   C24   A    
C37   H32   S    
C48   H25   S    
C47   H14   S    
C36   F6    S    
C50   H20   S    
C16   O5    A    
C54   H6    S    
C31   N2    A    
C20   H29   S    
C23   C41   A    
C32   C33   A    
C44   H18   S    
C2    C3    A    
C26   H2    S    
C22   H1    S    
C30   C32   A    
C11   C13   A    
C9    C21   A    
C23   C52   A    
C5    C6    A    
C1    O2    A    
O4    Zn2   S    
C38   N1    A    
C33   C35   A    
C6    C40   A    
C17   C21   A    
C10   C11   A    
C38   F5    S    
C28   O8    A    
C34   C53   A    
C49   C50   S    
C27   H4    S    
C28   C40   S    
C14   C15   A    
C51   H9    S    
C4    O3    A    
C50   H21   S    
C25   C33   A    
C35   H31   S    
