data_mof_unit_2048.cif
_audit_creation_date              2012-12-10T17:28:38-0500
_audit_creation_method            fapswitch 2.2
_symmetry_space_group_name_H-M    P1
_symmetry_Int_Tables_number       1
_space_group_crystal_system       triclinic
_cell_length_a                    10.514034
_cell_length_b                    12.072595
_cell_length_c                    12.836901
_cell_angle_alpha                 93.104856
_cell_angle_beta                  88.195416
_cell_angle_gamma                 92.983369
_cell_volume                      1624.14060042

loop_
_atom_site_label
_atom_site_type_symbol
_atom_type_description
_atom_site_fract_x
_atom_site_fract_y
_atom_site_fract_z
_atom_type_partial_charge
C1    C     C_R   0.501419 0.522295 0.699603 0.933888
C2    C     C_R   0.425437 0.527415 0.131567 0.405592
C3    C     C_R   0.546289 0.464289 0.975370 -0.113260
C4    C     C_R   0.453581 0.535651 0.024627 -0.113256
C5    C     C_R   0.562552 0.936644 0.374163 0.379218
C6    C     C_R   0.437400 0.063367 0.625822 0.379289
C7    C     C_R   0.536543 0.825659 0.391937 -0.078308
C8    C     C_R   0.463427 0.174348 0.608044 -0.078307
C9    C     C_R   0.434625 0.866102 0.555240 0.542128
C10   C     C_R   0.565402 0.133898 0.444779 0.542144
C11   C     C_R   0.466567 0.981983 0.546433 -0.208350
C12   C     C_R   0.498569 0.477702 0.300397 0.933871
C13   C     C_R   0.533432 0.018020 0.453577 -0.208393
C14   C     C_R   0.740829 0.507797 0.499384 0.877203
C15   C     C_R   0.259170 0.492203 0.500612 0.877198
C16   C     C_R   0.891132 0.492354 0.301244 -0.088214
C17   C     C_R   0.108804 0.507562 0.698771 -0.088249
C18   C     C_R   0.946375 0.433250 0.216781 -0.131044
C19   C     C_R   0.053458 0.566540 0.783266 -0.131043
C20   C     C_R   0.051587 0.371341 0.230416 0.453911
C21   C     C_R   0.948240 0.628440 0.769647 0.454057
C22   C     C_R   0.109895 0.375972 0.327686 -0.128513
C23   C     C_R   0.501297 0.463707 0.189175 -0.204252
C24   C     C_R   0.890054 0.623955 0.672331 -0.128581
C25   C     C_R   0.059786 0.443785 0.412553 -0.006856
C26   C     C_R   0.940209 0.556207 0.587438 -0.006929
C27   C     C_R   0.940804 0.488285 0.402454 0.052038
C28   C     C_R   0.059184 0.511700 0.597544 0.052031
C29   C     C_R   0.123449 0.470625 0.506600 -0.136724
C30   C     C_R   0.876549 0.529375 0.493392 -0.136723
C31   C     C_1   0.804490 0.575056 0.276837 0.222451
C32   C     C_1   0.195479 0.424880 0.723153 0.222394
C33   C     C_1   0.206530 0.297597 0.341435 0.327542
C34   C     C_R   0.498643 0.536273 0.810824 -0.204194
C35   C     C_1   0.793522 0.702407 0.658565 0.327634
C36   C     C_R   0.394366 0.612827 0.964766 0.476291
C37   C     C_R   0.605476 0.387092 0.035219 0.476322
C38   C     C_R   0.412957 0.607817 0.858260 -0.282995
C39   C     C_R   0.586926 0.392124 0.141727 -0.283056
C40   C     C_R   0.574476 0.472548 0.868441 0.405679
Cl1   Cl    Cl    0.887332 0.706509 0.878402 -0.452837
Cl2   Cl    Cl    0.334420 0.810047 0.653397 -0.483467
Cl3   Cl    Cl    0.112310 0.293040 0.121718 -0.452614
Cl4   Cl    Cl    0.626487 0.962185 0.248478 -0.379607
Cl5   Cl    Cl    0.373270 0.037859 0.751418 -0.379719
Cl6   Cl    Cl    0.287440 0.581217 0.195163 -0.517133
Cl7   Cl    Cl    0.712508 0.418757 0.804880 -0.517092
Cl8   Cl    Cl    0.304383 0.724614 0.014124 -0.368582
Cl9   Cl    Cl    0.695342 0.275241 0.985836 -0.368556
Cl10  Cl    Cl    0.665710 0.189940 0.346683 -0.483532
H1    H     H_    0.908448 0.436446 0.139452 0.198599
H2    H     H_    0.091309 0.563249 0.860608 0.198617
H3    H     H_    0.640629 0.339839 0.188121 0.244960
H4    H     H_    0.359240 0.660085 0.811857 0.244962
H5    H     H_    0.433656 0.235144 0.666536 0.213818
H6    H     H_    0.566281 0.764868 0.333417 0.213814
N1    N     N_R   0.523130 0.207800 0.519340 -0.166053
N2    N     N_R   0.476870 0.792200 0.480660 -0.166047
N3    N     N_1   0.738187 0.643001 0.254867 -0.135355
N4    N     N_1   0.261806 0.356953 0.745110 -0.135418
N5    N     N_1   0.282456 0.233105 0.351146 -0.107594
N6    N     N_1   0.717689 0.766955 0.648840 -0.107643
O1    O     O_R   0.506170 0.421700 0.658830 -0.601165
O2    O     O_R   0.493830 0.578300 0.341170 -0.601146
O3    O     O_R   0.491330 0.609310 0.646410 -0.586273
O4    O     O_R   0.508670 0.390690 0.353590 -0.586324
O5    O     O_R   0.690650 0.406190 0.506220 -0.539548
O6    O     O_R   0.309350 0.593810 0.493780 -0.539565
O7    O     O_R   0.675800 0.593810 0.493800 -0.648020
O8    O     O_R   0.324200 0.406190 0.506200 -0.648033
Zn1   Zn    Zn3+2 0.509910 0.374730 0.508290 1.036452
Zn2   Zn    Zn3+2 0.490090 0.625270 0.491710 1.036468

loop_
_geom_bond_atom_site_label_1
_geom_bond_atom_site_label_2
_ccdc_geom_bond_type
C18   H1    S    
O7    Zn2   S    
C2    C4    A    
C14   O5    A    
C4    C36   A    
C26   C30   A    
O8    Zn1   S    
C6    Cl5   S    
C8    N1    A    
C25   C27   A    
O3    Zn2   S    
C37   Cl9   S    
C9    C11   A    
C15   O8    A    
C7    N2    A    
C5    C13   A    
O4    Zn1   S    
C38   H4    S    
C20   C22   A    
O6    Zn2   S    
C20   Cl3   S    
C16   C27   A    
C36   C38   A    
C5    C7    A    
C37   C39   A    
C2    Cl6   S    
C27   C30   A    
C11   C13   A    
C12   C23   S    
N2    Zn2   S    
C9    Cl2   S    
C39   H3    S    
C12   O4    A    
C7    H6    S    
C14   C30   S    
C23   C39   A    
C15   O6    A    
C1    O1    A    
C8    H5    S    
C33   N5    T    
C28   C29   A    
C17   C19   A    
C5    Cl4   S    
O1    Zn1   S    
C3    C40   A    
C15   C29   S    
C36   Cl8   S    
O5    Zn1   S    
O2    Zn2   S    
C25   C29   A    
C12   O2    A    
C14   O7    A    
C34   C40   A    
C40   Cl7   S    
C24   C35   S    
C32   N4    T    
C3    C4    A    
C10   Cl10  S    
C6    C11   A    
C10   N1    A    
C1    C34   S    
C3    C37   A    
C18   C20   A    
C16   C18   A    
C9    N2    A    
C21   Cl1   S    
C21   C24   A    
C31   N3    T    
C2    C23   A    
C17   C32   S    
C22   C33   S    
C1    O3    A    
C6    C8    A    
C19   C21   A    
C34   C38   A    
C17   C28   A    
C26   C28   A    
C19   H2    S    
C10   C13   A    
N1    Zn1   S    
C24   C26   A    
C35   N6    T    
C16   C31   S    
C22   C25   A    
