data_mof_unit_97.cif
_audit_creation_date              2012-12-10T17:29:22-0500
_audit_creation_method            fapswitch 2.2
_symmetry_space_group_name_H-M    P1
_symmetry_Int_Tables_number       1
_space_group_crystal_system       triclinic
_cell_length_a                    12.021355
_cell_length_b                    12.823526
_cell_length_c                    13.389721
_cell_angle_alpha                 86.875026
_cell_angle_beta                  111.973968
_cell_angle_gamma                 93.932696
_cell_volume                      1908.72266747

loop_
_atom_site_label
_atom_site_type_symbol
_atom_type_description
_atom_site_fract_x
_atom_site_fract_y
_atom_site_fract_z
_atom_type_partial_charge
C1    C     C_R   0.476894 0.299627 0.498065 1.033818
C2    C     C_R   0.602825 0.488825 0.826508 -0.254487
C3    C     C_R   0.538322 0.811378 0.501159 -0.278284
C4    C     C_R   0.564343 0.492117 0.707820 0.980694
C5    C     C_R   0.463912 0.188022 0.501221 -0.458762
C6    C     C_R   0.408204 0.029972 0.579568 0.622387
C7    C     C_R   0.404516 0.137090 0.563437 0.487014
C8    C     C_R   0.524556 0.132822 0.452106 0.608240
C9    C     C_R   0.531990 0.025670 0.469930 -0.255688
C10   C     C_R   0.473095 0.973753 0.534475 -0.345528
C11   C     C_R   0.479135 0.866533 0.551214 0.707658
C12   C     C_R   0.547225 0.491918 0.984786 -0.118521
C13   C     C_R   0.600633 0.861966 0.441495 -0.398459
C14   C     C_R   0.597843 0.969270 0.425702 0.739201
C15   C     C_R   0.024655 0.619730 0.426149 0.593121
C16   C     C_R   0.523470 0.700185 0.502374 0.951905
C17   C     C_R   0.142220 0.607102 0.432487 0.536705
C18   C     C_R   0.143400 0.439587 0.515922 0.716281
C19   C     C_R   0.026054 0.450100 0.515457 -0.412342
C20   C     C_R   0.965856 0.541903 0.469518 -0.435897
C21   C     C_R   0.849509 0.553761 0.470135 0.746279
C22   C     C_R   0.857512 0.393352 0.568420 0.582022
C23   C     C_R   0.516791 0.468308 0.875636 -0.261616
C24   C     C_R   0.969054 0.373716 0.563047 0.436346
C25   C     C_R   0.434286 0.498118 0.293545 0.945921
C26   C     C_R   0.242401 0.486082 0.998407 0.605152
C27   C     C_R   0.393849 0.485015 0.178300 -0.451039
C28   C     C_R   0.721412 0.524010 0.889969 0.291343
C29   C     C_R   0.751930 0.542517 0.998949 0.442831
C30   C     C_R   0.664570 0.535442 0.044322 0.443980
C31   C     C_3   0.143564 0.408655 0.182723 0.192449
C32   C     C_3   0.040348 0.355207 0.091116 -0.291293
C33   C     C_3   0.979543 0.264960 0.134015 -0.916182
C34   C     C_R   0.455169 0.478490 0.027369 -0.160052
C35   C     C_3   0.975946 0.200138 0.541580 0.170173
C36   C     C_3   0.039855 0.100779 0.593676 -0.292173
C37   C     C_3   0.989912 0.007465 0.521005 -0.825415
C38   C     C_3   0.197112 0.585757 0.726537 0.082305
C39   C     C_3   0.230041 0.675413 0.806658 -0.458193
C40   C     C_3   0.210349 0.781620 0.747465 -0.771141
C41   C     C_3   0.808290 0.656705 0.819565 0.157423
C42   C     C_3   0.869297 0.678817 0.738406 -0.291503
C43   C     C_3   0.869619 0.794702 0.705593 -0.947589
C44   C     C_3   0.646019 0.675851 0.135819 0.125224
C45   C     C_R   0.333268 0.477482 0.957427 -0.357331
C46   C     C_3   0.732706 0.763355 0.121492 -0.322035
C47   C     C_3   0.690860 0.870844 0.130722 -0.822980
C48   C     C_R   0.305802 0.464169 0.848427 0.507154
C49   C     C_R   0.396370 0.434584 0.816604 0.633583
C50   C     C_R   0.480844 0.466087 0.136589 0.656567
C51   C     C_R   0.272168 0.491154 0.108963 0.303239
F1    F     F_    0.350742 0.982512 0.641283 -0.598657
F2    F     F_    0.124911 0.488597 0.932295 -0.604603
F3    F     F_    0.587480 0.426762 0.200870 -0.571521
F4    F     F_    0.864992 0.578924 0.058619 -0.622351
F5    F     F_    0.366814 0.368843 0.733884 -0.532311
F6    F     F_    0.426267 0.814540 0.614527 -0.638273
F7    F     F_    0.656814 0.016614 0.365200 -0.620616
F8    F     F_    0.349526 0.191504 0.614217 -0.528679
F9    F     F_    0.577563 0.184561 0.388630 -0.572317
F10   F     F_    0.787239 0.638587 0.421427 -0.610871
F11   F     F_    0.808280 0.324045 0.622236 -0.606706
F12   F     F_    0.970883 0.709396 0.380688 -0.584773
F13   F     F_    0.195529 0.682756 0.388529 -0.567758
F14   F     F_    0.199037 0.349330 0.551715 -0.517635
H1    H     H_    0.646838 0.817969 0.403329 0.238206
H2    H     H_    0.878307 0.186059 0.525465 0.188520
H3    H     H_    0.137347 0.113331 0.609993 0.316410
H4    H     H_    0.028517 0.083096 0.671630 0.233320
H5    H     H_    0.893645 0.990401 0.507636 0.285589
H6    H     H_    0.040451 0.937517 0.559855 0.280959
H7    H     H_    0.999429 0.023580 0.442148 0.282913
H8    H     H_    0.105906 0.599034 0.667090 0.158534
H9    H     H_    0.259268 0.590438 0.682148 0.140580
H10   H     H_    0.174274 0.667075 0.856725 0.273891
H11   H     H_    0.326157 0.673784 0.860636 0.209719
H12   H     H_    0.110714 0.425694 0.247164 0.170290
H13   H     H_    0.266599 0.792601 0.697978 0.345065
H14   H     H_    0.235268 0.844804 0.806622 0.277423
H15   H     H_    0.114747 0.787379 0.694114 0.244355
H16   H     H_    0.859916 0.699955 0.894084 0.187077
H17   H     H_    0.715841 0.686332 0.783290 0.085838
H18   H     H_    0.962938 0.653689 0.773779 0.248572
H19   H     H_    0.821031 0.632950 0.665510 0.249567
H20   H     H_    0.777252 0.823005 0.676501 0.271187
H21   H     H_    0.903702 0.806515 0.639179 0.280959
H22   H     H_    0.928334 0.841324 0.775126 0.272425
H23   H     H_    0.217475 0.353887 0.219850 0.092620
H24   H     H_    0.632185 0.687500 0.211903 0.213465
H25   H     H_    0.556139 0.681562 0.069671 0.072396
H26   H     H_    0.823650 0.753851 0.183986 0.323672
H27   H     H_    0.738503 0.758661 0.040978 0.201033
H28   H     H_    0.600289 0.882421 0.068259 0.261548
H29   H     H_    0.754662 0.932508 0.118870 0.276685
H30   H     H_    0.687620 0.878731 0.211796 0.299141
H31   H     H_    0.972584 0.412797 0.047122 0.313631
H32   H     H_    0.075718 0.324075 0.033661 0.243909
H33   H     H_    0.045605 0.205952 0.178040 0.265158
H34   H     H_    0.906709 0.226827 0.065707 0.289121
H35   H     H_    0.939642 0.294295 0.189072 0.280241
H36   H     H_    0.988449 0.217013 0.463712 0.144458
N1    N     N_R   0.798200 0.480260 0.519790 -0.243357
N2    N     N_R   0.201820 0.519740 0.480210 -0.273873
O1    O     O_R   0.579910 0.341070 0.505280 -0.530884
O2    O     O_3   0.025529 0.283785 0.612056 -0.516950
O3    O     O_3   0.193121 0.484098 0.773787 -0.541410
O4    O     O_3   0.806142 0.547871 0.843924 -0.543917
O5    O     O_3   0.695370 0.576846 0.145210 -0.522316
O6    O     O_R   0.388440 0.353740 0.492580 -0.547223
O7    O     O_R   0.643280 0.490550 0.663120 -0.578251
O8    O     O_R   0.451810 0.503220 0.650420 -0.591067
O9    O     O_R   0.611560 0.646260 0.507420 -0.621152
O10   O     O_R   0.420090 0.658930 0.494720 -0.520503
O11   O     O_R   0.548190 0.496780 0.349580 -0.530567
O12   O     O_R   0.356720 0.509450 0.336880 -0.601762
O13   O     O_3   0.181960 0.505686 0.146936 -0.535982
Zn1   Zn    Zn3+2 0.627850 0.491540 0.508480 1.097019
Zn2   Zn    Zn3+2 0.372150 0.508460 0.491520 1.088285

loop_
_geom_bond_atom_site_label_1
_geom_bond_atom_site_label_2
_ccdc_geom_bond_type
C41   C42   S    
C35   C36   S    
C16   O10   A    
C18   F14   S    
C12   C23   A    
C50   F3    S    
O8    Zn2   S    
C1    C5    S    
C36   C37   S    
C18   C19   A    
C25   O12   A    
C17   F13   S    
C38   C39   S    
C23   C49   A    
C46   H27   S    
C28   O4    S    
C32   H32   S    
C33   H33   S    
C26   C45   A    
C1    O6    A    
C48   O3    S    
C19   C20   A    
C44   C46   S    
C8    C9    A    
C40   H15   S    
C39   H10   S    
C9    C10   A    
C21   F10   S    
C3    C13   A    
C27   C50   A    
C12   C30   A    
C13   C14   A    
O7    Zn1   S    
C7    F8    S    
C27   C51   A    
O6    Zn2   S    
C31   H12   S    
C13   H1    S    
C44   O5    S    
C15   C20   A    
C14   F7    S    
C34   C50   A    
C43   H20   S    
C42   H19   S    
C39   C40   S    
C5    C7    A    
C25   O11   A    
C46   H26   S    
C29   F4    S    
C33   H34   S    
C38   O3    S    
C2    C4    S    
C9    C14   A    
C29   C30   A    
C35   O2    S    
C22   F11   S    
C31   C32   S    
C35   H2    S    
O12   Zn2   S    
C41   H16   S    
C47   H28   S    
C40   H14   S    
C34   C45   A    
C39   H11   S    
C1    O1    A    
N1    Zn1   S    
C21   N1    A    
C48   C49   A    
C32   H31   S    
C4    O8    A    
C37   H6    S    
C40   H13   S    
N2    Zn2   S    
C42   C43   S    
C12   C34   A    
C26   F2    S    
C31   O13   S    
C44   H25   S    
C36   H4    S    
C16   O9    A    
O1    Zn1   S    
C38   H9    S    
C45   C48   A    
C15   C17   A    
C4    O7    A    
C46   C47   S    
C28   C29   A    
C15   F12   S    
C31   H23   S    
C41   O4    S    
C30   O5    S    
C43   H21   S    
C42   H18   S    
C35   H36   S    
C6    C10   A    
C5    C8    A    
C36   H3    S    
C6    C7    A    
C25   C27   S    
C49   F5    S    
C51   O13   S    
C22   N1    A    
C33   H35   S    
C43   H22   S    
C32   C33   S    
C19   C24   A    
C17   N2    A    
C26   C51   A    
C8    F9    S    
O9    Zn1   S    
C41   H17   S    
C47   H29   S    
C22   C24   A    
C18   N2    A    
O11   Zn1   S    
C3    C11   A    
C10   C11   A    
C3    C16   S    
O10   Zn2   S    
C20   C21   A    
C37   H7    S    
C2    C23   A    
C47   H30   S    
C2    C28   A    
C24   O2    S    
C6    F1    S    
C11   F6    S    
C37   H5    S    
C44   H24   S    
C38   H8    S    
