data_mof_unit_3045.cif
_audit_creation_date              2012-12-10T16:57:42-0500
_audit_creation_method            fapswitch 2.2
_symmetry_space_group_name_H-M    P1
_symmetry_Int_Tables_number       1
_space_group_crystal_system       triclinic
_cell_length_a                    7.736027
_cell_length_b                    8.577956
_cell_length_c                    19.176282
_cell_angle_alpha                 91.086861
_cell_angle_beta                  85.524791
_cell_angle_gamma                 93.722119
_cell_volume                      1265.84528279

loop_
_atom_site_label
_atom_site_type_symbol
_atom_type_description
_atom_site_fract_x
_atom_site_fract_y
_atom_site_fract_z
_atom_type_partial_charge
C1    C     C_R   0.545967 0.794917 0.498158 0.967132
C2    C     C_R   0.634200 0.419983 0.177154 -0.005718
C3    C     C_R   0.453137 0.431324 0.855075 -0.010094
C4    C     C_R   0.490065 0.468057 0.144360 -0.054206
C5    C     C_R   0.608878 0.398247 0.817512 -0.182403
C6    C     C_R   0.354176 0.537258 0.183338 -0.074680
C7    C     C_R   0.635250 0.428324 0.746262 -0.004801
C8    C     C_R   0.356589 0.559213 0.255347 -0.024211
C9    C     C_R   0.497588 0.485238 0.711302 -0.127425
C10   C     C_R   0.495037 0.501541 0.289237 -0.181609
C11   C     C_R   0.478064 0.454423 0.069316 0.273224
C12   C     C_R   0.454026 0.205081 0.501784 0.967124
C13   C     C_R   0.450119 0.432996 0.930621 0.270077
C14   C     C_2   0.144838 0.514754 0.859293 0.394203
C15   C     C_2   0.790765 0.363256 0.136912 0.442152
C16   C     C_2   0.809750 0.401968 0.712747 0.481238
C17   C     C_2   0.218690 0.649730 0.292290 0.431228
C18   C     C_2   0.570255 0.958315 0.497074 -0.369530
C19   C     C_2   0.429724 0.041674 0.502762 -0.377718
C20   C     C_R   0.501546 0.498913 0.634900 0.875272
C21   C     C_R   0.498692 0.503582 0.365364 0.855315
C22   C     C_R   0.340186 0.514894 0.749714 -0.166918
C23   C     C_R   0.632420 0.434223 0.249737 -0.103521
C24   C     C_R   0.315592 0.487741 0.821181 -0.001429
H1    H     H_    0.233743 0.557800 0.723694 0.232160
H2    H     H_    0.809967 0.377320 0.080770 0.078418
H3    H     H_    0.870302 0.294615 0.722438 0.040379
H4    H     H_    0.242589 0.714628 0.339994 0.085113
H5    H     H_    0.740180 0.393393 0.275691 0.212513
H6    H     H_    0.715110 0.358743 0.845004 0.158890
H7    H     H_    0.246864 0.577620 0.156839 0.194246
H8    H     H_    0.702922 0.009494 0.491658 0.183125
H9    H     H_    0.297056 0.990491 0.508163 0.182269
H10   H     H_    0.013993 0.380806 0.448209 0.196139
H11   H     H_    0.986268 0.620472 0.551165 0.229657
H12   H     H_    0.114255 0.471784 0.911940 0.077713
N1    N     N_R   0.506006 0.311733 0.965103 -0.155146
N2    N     N_R   0.421455 0.574894 0.034695 -0.152314
N3    N     N_R   0.517903 0.321707 0.033787 -0.165002
N4    N     N_R   0.408703 0.564672 0.966307 -0.154978
N5    N     N_2   0.950330 0.457950 0.481240 -0.167928
N6    N     N_2   0.049670 0.542050 0.518760 -0.155706
O1    O     O_R   0.389250 0.738570 0.504600 -0.620730
O2    O     O_2   0.902958 0.302298 0.166358 -0.552766
O3    O     O_2   0.893281 0.504696 0.679303 -0.555487
O4    O     O_2   0.077019 0.655835 0.268794 -0.559430
O5    O     O_R   0.610750 0.261430 0.495400 -0.616884
O6    O     O_R   0.678400 0.711620 0.492580 -0.624052
O7    O     O_R   0.321600 0.288380 0.507420 -0.625540
O8    O     O_R   0.355380 0.513500 0.607880 -0.609418
O9    O     O_R   0.644620 0.486500 0.392120 -0.599839
O10   O     O_R   0.644530 0.486550 0.595850 -0.582677
O11   O     O_R   0.355470 0.513450 0.404150 -0.645203
O12   O     O_2   0.035564 0.584807 0.832225 -0.554718
Zn1   Zn    Zn3+2 0.306930 0.517990 0.508030 0.968766
Zn2   Zn    Zn3+2 0.693070 0.482010 0.491970 0.985730

loop_
_geom_bond_atom_site_label_1
_geom_bond_atom_site_label_2
_ccdc_geom_bond_type
C16   O3    D    
C11   N2    A    
C2    C4    A    
N5    Zn2   S    
C20   O8    A    
C10   C23   A    
C21   O11   A    
C5    C7    A    
N5    N6    D    
C9    C20   S    
C13   N1    A    
C8    C17   S    
C3    C13   S    
C16   H3    S    
C6    H7    S    
C3    C24   A    
N1    N3    A    
C4    C11   S    
N2    N4    A    
C2    C15   S    
C1    C18   S    
H10   N5    S    
O10   Zn2   S    
C12   O5    A    
C23   H5    S    
C12   C19   S    
O1    Zn1   S    
C7    C16   S    
C14   O12   D    
C15   O2    D    
C12   O7    A    
C7    C9    A    
O11   Zn1   S    
C1    O6    A    
C14   H12   S    
N6    Zn1   S    
C22   C24   A    
C9    C22   A    
C4    C6    A    
C18   H8    S    
C11   N3    A    
C21   O9    A    
C17   O4    D    
C20   O10   A    
C5    H6    S    
C19   H9    S    
C14   C24   S    
C2    C23   A    
O6    Zn2   S    
H11   N6    S    
C18   C19   D    
C13   N4    A    
C6    C8    A    
C3    C5    A    
O7    Zn1   S    
C17   H4    S    
C10   C21   S    
C1    O1    A    
C8    C10   A    
O8    Zn1   S    
O5    Zn2   S    
C15   H2    S    
C22   H1    S    
O9    Zn2   S    
