data_mof_unit_989.cif
_audit_creation_date              2013-03-05T15:51:50-0500
_audit_creation_method            fapswitch 2.2
_symmetry_space_group_name_H-M    P1
_symmetry_Int_Tables_number       1
_space_group_crystal_system       triclinic
_cell_length_a                    11.014323
_cell_length_b                    11.007732
_cell_length_c                    18.761947
_cell_angle_alpha                 90.629839
_cell_angle_beta                  90.505761
_cell_angle_gamma                 60.340045
_cell_volume                      1976.5717984

loop_
_atom_site_label
_atom_site_type_symbol
_atom_site_description
_atom_site_fract_x
_atom_site_fract_y
_atom_site_fract_z
_atom_type_partial_charge
O1    O     O_R   0.507380 0.255700 0.581440 -0.456622
O2    O     O_R   0.280320 0.527350 0.578930 -0.502907
C1    C     C_R   0.237689 0.646137 0.609570 0.531776
O3    O     O_R   0.260510 0.739590 0.584590 -0.526562
O4    O     O_R   0.532300 0.695080 0.573820 -0.495004
C2    C     C_R   0.648786 0.615293 0.603750 0.556868
O5    O     O_R   0.744840 0.503500 0.576370 -0.518639
O6    O     O_R   0.699120 0.276560 0.571960 -0.515443
C3    C     C_R   0.629781 0.225694 0.601785 0.551219
O7    O     O_R   0.498940 0.256500 0.419860 -0.506894
O8    O     O_R   0.272500 0.528080 0.429150 -0.501340
C4    C     C_R   0.217251 0.651659 0.402622 0.539693
O9    O     O_R   0.252060 0.740380 0.423010 -0.519963
O10   O     O_R   0.524480 0.695810 0.424040 -0.508737
C5    C     C_R   0.642912 0.623401 0.392836 0.546619
O11   O     O_R   0.736390 0.504290 0.414790 -0.473996
O12   O     O_R   0.691300 0.277290 0.422170 -0.502066
C6    C     C_R   0.614398 0.232206 0.394178 0.542759
Cr1   Cr    Cr6+3 0.392960 0.397920 0.502240 1.066134
Cr2   Cr    Cr6+3 0.398340 0.708480 0.501250 1.041439
Cr3   Cr    Cr6+3 0.708670 0.393570 0.496460 1.055075
O13   O     O_3   0.499990 0.499990 0.499980 -0.278943
C7    C     C_3   0.551566 0.790268 0.787660 0.104062
H1    H     H_    0.559579 0.886410 0.782524 0.200749
C8    C     C_3   0.523407 0.752627 0.712787 -0.223593
H2    H     H_    0.451337 0.709776 0.716051 0.141698
H3    H     H_    0.470560 0.847174 0.679609 0.200751
H4    H     H_    0.741858 0.784237 0.666054 0.200880
C9    C     C_3   0.812176 0.676419 0.768910 0.047798
C10   C     C_3   0.709258 0.525264 0.800755 -0.285064
C11   C     C_3   0.696363 0.670560 0.814352 0.054086
H5    H     H_    0.809451 0.440356 0.822504 0.127135
H6    H     H_    0.624615 0.516003 0.827209 0.178728
C12   C     C_3   0.663671 0.639244 0.679359 -0.020506
C13   C     C_3   0.778793 0.678830 0.689071 -0.220631
C14   C     C_3   0.705166 0.502215 0.720229 -0.257366
H7    H     H_    0.628054 0.467089 0.708638 0.129369
H8    H     H_    0.810170 0.419270 0.702743 0.152477
H9    H     H_    0.913401 0.580580 0.779609 0.155555
H10   H     H_    0.875660 0.604088 0.660202 0.127188
C15   C     C_R   0.676575 0.158212 0.823343 0.007965
C16   C     C_R   0.768166 0.187486 0.786308 -0.022596
C17   C     C_R   0.764769 0.192161 0.711936 -0.030755
C18   C     C_R   0.581257 0.133392 0.709717 0.202567
C19   C     C_R   0.574943 0.144178 0.783020 -0.098686
C20   C     C_3   0.922509 0.114538 0.789227 -0.240728
C21   C     C_3   0.920354 0.115317 0.708468 -0.257315
C22   C     C_R   0.672597 0.164208 0.672383 0.043653
H11   H     H_    0.497954 0.124709 0.807902 0.190763
H12   H     H_    0.962392 0.010560 0.812857 0.202662
H13   H     H_    0.962869 0.180388 0.813243 0.139168
H14   H     H_    0.962900 0.178867 0.685267 0.142173
H15   H     H_    0.959714 0.010812 0.683478 0.168778
C23   C     C_R   0.171523 0.673301 0.833031 0.064709
C24   C     C_R   0.155984 0.573921 0.793031 0.042439
C25   C     C_R   0.164637 0.570157 0.719125 0.005160
C26   C     C_R   0.187168 0.776066 0.722193 -0.162286
C27   C     C_R   0.184308 0.775903 0.795867 -0.095943
C28   C     C_3   0.236423 0.418888 0.798209 -0.281189
C29   C     C_3   0.245993 0.414934 0.717524 -0.237967
C30   C     C_R   0.185682 0.668110 0.682437 0.023784
H16   H     H_    0.201705 0.856117 0.697151 0.148281
H17   H     H_    0.186311 0.860960 0.823727 0.208300
H18   H     H_    0.171476 0.375404 0.818701 0.157652
H19   H     H_    0.338103 0.382074 0.825912 0.136834
H20   H     H_    0.353209 0.377661 0.697864 0.188759
H21   H     H_    0.187466 0.368454 0.691210 0.176617
C31   C     C_R   0.661709 0.677437 0.171433 -0.000733
C32   C     C_R   0.771724 0.570256 0.208642 -0.057870
C33   C     C_R   0.774584 0.562250 0.281342 0.054924
C34   C     C_R   0.557549 0.779487 0.286862 -0.167470
C35   C     C_R   0.551706 0.786621 0.211410 0.170927
C36   C     C_3   0.833886 0.416932 0.197434 -0.229760
C37   C     C_3   0.835105 0.406681 0.277627 0.120293
C38   C     C_R   0.663563 0.661828 0.321739 -0.044869
H22   H     H_    0.472835 0.859060 0.318081 0.168447
H23   H     H_    0.939348 0.369382 0.172984 0.190984
H24   H     H_    0.760002 0.389748 0.170663 0.115795
H25   H     H_    0.761030 0.375428 0.298175 0.155478
C39   C     C_R   0.652915 0.179689 0.171291 0.016855
C40   C     C_R   0.522396 0.255850 0.202800 -0.016097
C41   C     C_R   0.513311 0.261547 0.275939 0.002355
C42   C     C_R   0.762790 0.145290 0.288002 -0.166789
C43   C     C_R   0.772017 0.141496 0.214169 -0.159924
C44   C     C_3   0.390370 0.251218 0.194111 -0.229634
C45   C     C_3   0.385227 0.248245 0.274921 -0.201269
C46   C     C_R   0.632236 0.197561 0.319551 0.015646
H26   H     H_    0.856429 0.109632 0.320079 0.160658
H27   H     H_    0.873604 0.097330 0.190723 0.150655
H28   H     H_    0.405864 0.155375 0.167071 0.239808
H29   H     H_    0.305535 0.349652 0.170989 0.144927
H30   H     H_    0.295194 0.340735 0.298220 0.168365
H31   H     H_    0.405111 0.146681 0.296900 0.199263
C47   C     C_R   0.043654 0.731852 0.196321 0.002984
C48   C     C_R   0.056236 0.833849 0.234925 -0.026513
C49   C     C_R   0.093662 0.815936 0.305755 0.000783
C50   C     C_R   0.083772 0.602846 0.307152 -0.147384
C51   C     C_R   0.046472 0.620628 0.234271 -0.146441
C52   C     C_3   0.149287 0.892796 0.219352 -0.192152
C53   C     C_3   0.185394 0.879268 0.296993 -0.220342
C54   C     C_R   0.124004 0.692386 0.340564 0.011561
H32   H     H_    0.093487 0.513454 0.335258 0.187435
H33   H     H_    0.031497 0.542202 0.206816 0.164287
H34   H     H_    0.095873 0.002543 0.201038 0.191246
H35   H     H_    0.239039 0.818783 0.186257 0.218818
H36   H     H_    0.297502 0.803931 0.306223 0.163761
H37   H     H_    0.143939 0.981393 0.325217 0.199750
O14   O     O_R   0.089400 0.825690 0.930570 -0.486675
O15   O     O_R   0.818460 0.054440 0.929850 -0.490954
C55   C     C_R   0.700182 0.102874 0.896183 0.576038
O16   O     O_R   0.606060 0.077150 0.915510 -0.512847
O17   O     O_R   0.646550 0.806680 0.917570 -0.426125
C56   C     C_R   0.721993 0.686568 0.889519 0.631382
O18   O     O_R   0.837170 0.593410 0.915250 -0.536076
O19   O     O_R   0.065200 0.635530 0.931570 -0.488007
C57   C     C_R   0.117223 0.706545 0.905544 0.605226
O20   O     O_R   0.068260 0.828890 0.091840 -0.500156
O21   O     O_R   0.798870 0.057410 0.079340 -0.537239
C58   C     C_R   0.674973 0.110479 0.102729 0.530212
O22   O     O_R   0.584930 0.080350 0.076780 -0.511022
O23   O     O_R   0.626960 0.809650 0.067060 -0.437129
C59   C     C_R   0.695828 0.691110 0.097823 0.568240
O24   O     O_R   0.816040 0.596610 0.076510 -0.542805
O25   O     O_R   0.045610 0.638500 0.081060 -0.509704
C60   C     C_R   0.026831 0.747182 0.118803 0.550318
Cr4   Cr    Cr6+3 0.937650 0.938540 0.007610 1.063799
Cr5   Cr    Cr6+3 0.625330 0.937370 0.994520 1.141555
Cr6   Cr    Cr6+3 0.937940 0.625230 0.001190 1.036288
O26   O     O_3   0.833640 0.833710 0.001100 -0.291407
Cl1   Cl    Cl    0.468786 0.083085 0.667584 -0.678503
N1    N     N_R   0.435523 0.823498 0.836364 0.051266
O27   O     O_R   0.433648 0.726877 0.874921 -0.379184
O28   O     O_R   0.349443 0.953939 0.851977 -0.355696
N2    N     N_R   0.428861 0.896670 0.177703 0.051132
O29   O     O_R   0.389028 0.877236 0.115147 -0.323540
O30   O     O_R   0.339219 0.001983 0.215754 -0.413792
Cl2   Cl    Cl    0.007153 0.312406 0.314174 -0.660837
Cl3   Cl    Cl    0.835341 0.822458 0.789922 -0.693094

loop_
_geom_bond_atom_site_label_1
_geom_bond_atom_site_label_2
_geom_bond_distance
_ccdc_geom_bond_type
C49   C54   1.397733 A    
C5    C38   1.457049 S    
C24   C25   1.389494 A    
O11   Cr3   2.084260 S    
C24   C28   1.487438 S    
C15   C16   1.394068 A    
C42   C46   1.392074 A    
C48   C49   1.374932 A    
C39   C43   1.409885 A    
Cr6   O26   1.994267 S    
C40   C41   1.375228 A    
C44   H29   1.111973 S    
O22   Cr5   2.079102 S    
C26   H16   1.083010 S    
O4    Cr2   1.950943 S    
C44   C45   1.519012 S    
C9    Cl3   1.787456 S    
O8    Cr1   1.955340 S    
C28   H18   1.111950 S    
C14   H7    1.112701 S    
O23   Cr5   1.961085 S    
C16   C20   1.478523 S    
C10   C11   1.552459 S    
C48   C52   1.491452 S    
C47   C51   1.409992 A    
C18   Cl1   1.765837 S    
C51   H33   1.080501 S    
C12   C13   1.540090 S    
C36   C37   1.509479 S    
O21   C58   1.269651 A    
O17   Cr5   1.958592 S    
C55   O16   1.259294 A    
C42   C43   1.388528 A    
H4    C13   1.113118 S    
O6    C3    1.283567 A    
C23   C57   1.459230 S    
C33   C37   1.500061 S    
C7    H1    1.109920 S    
C32   C36   1.487464 S    
C17   C22   1.402453 A    
C50   H32   1.078885 S    
C10   H6    1.108706 S    
C8    C12   1.558653 S    
O25   Cr6   1.951548 S    
C52   H34   1.107142 S    
C39   C58   1.447395 S    
C29   H20   1.106253 S    
C28   C29   1.517050 S    
C34   C38   1.406227 A    
Cr3   O13   1.998944 S    
C47   C48   1.392388 A    
O17   C56   1.273044 A    
C50   C51   1.411809 A    
C2    O5    1.266772 A    
C1    C30   1.457767 S    
C52   H35   1.108683 S    
C37   Cl2   1.784518 S    
O1    Cr1   2.076675 S    
C5    O11   1.271679 A    
O10   Cr2   1.971681 S    
Cr1   O13   1.991660 S    
O1    C3    1.274885 A    
C29   H21   1.111897 S    
C31   C59   1.463193 S    
C31   C32   1.391366 A    
N2    O30   1.299936 A    
Cr4   O26   1.990395 S    
C8    H2    1.108346 S    
O5    Cr3   2.073040 S    
C36   H24   1.111115 S    
C20   H13   1.110969 S    
O12   Cr3   1.953490 S    
O19   Cr6   1.968910 S    
C2    C12   1.462594 S    
C7    C11   1.565627 S    
Cr5   O26   1.997127 S    
C45   H31   1.110916 S    
O18   Cr6   2.072481 S    
C35   N2    1.441421 S    
C52   C53   1.496064 S    
C19   H11   1.082582 S    
O7    Cr1   2.086951 S    
C31   C35   1.424808 A    
C9    H9    1.110367 S    
O12   C6    1.281409 A    
C7    N1    1.467300 S    
C20   C21   1.515243 S    
C58   O22   1.282215 A    
O23   C59   1.280776 A    
N2    O29   1.301554 A    
Cr2   O13   1.994330 S    
C37   H25   1.104052 S    
O16   Cr5   2.081190 S    
C43   H27   1.071190 S    
C1    O3    1.268728 A    
C34   H22   1.081854 S    
C18   C19   1.378528 A    
C56   O18   1.267491 A    
C23   C27   1.399304 A    
C47   C60   1.465512 S    
C27   H17   1.076957 S    
C9    C13   1.536618 S    
C23   C24   1.397930 A    
C53   H37   1.111672 S    
C36   H23   1.111795 S    
O9    Cr2   2.069704 S    
O2    Cr1   1.968865 S    
O10   C5    1.286019 A    
C39   C40   1.389341 A    
N1    O28   1.301826 A    
O6    Cr3   1.963015 S    
C44   H28   1.100524 S    
C26   C30   1.402983 A    
C21   H14   1.110484 S    
C8    H3    1.103516 S    
C20   H12   1.099838 S    
C53   H36   1.108310 S    
C6    C46   1.436453 S    
C10   C14   1.533190 S    
C15   C55   1.470240 S    
O14   Cr4   2.091481 S    
O14   C57   1.275017 A    
C14   H8    1.110803 S    
C13   H10   1.113659 S    
C34   C35   1.417796 A    
C9    C11   1.568453 S    
C41   C45   1.488604 S    
N1    O27   1.301481 A    
C28   H19   1.110766 S    
C10   H5    1.112446 S    
C26   C27   1.382944 A    
O4    C2    1.271114 A    
O20   C60   1.301288 A    
O7    C6    1.261866 A    
C21   H15   1.108711 S    
C49   C53   1.495471 S    
O2    C1    1.281129 A    
C12   C14   1.552108 S    
C7    C8    1.532303 S    
C32   C33   1.366894 A    
C50   C54   1.405202 A    
O3    Cr2   2.093425 S    
C18   C22   1.404725 A    
O15   Cr4   1.956799 S    
C4    C54   1.464977 S    
C25   C29   1.485723 S    
C4    O9    1.267619 A    
C3    C22   1.458675 S    
C16   C17   1.396351 A    
O24   Cr6   2.088269 S    
C33   C38   1.393830 A    
C15   C19   1.415242 A    
C25   C30   1.398797 A    
O20   Cr4   2.075349 S    
C45   H30   1.099847 S    
O21   Cr4   1.969241 S    
O19   C57   1.278469 A    
C59   O24   1.277562 A    
O15   C55   1.298405 A    
C42   H26   1.083313 S    
C17   C21   1.490813 S    
C11   C56   1.461638 S    
C40   C44   1.487563 S    
C41   C46   1.400733 A    
O8    C4    1.287935 A    
O25   C60   1.309408 A    
