data_mof_unit_2820.cif
_audit_creation_date              2013-03-05T16:43:42-0500
_audit_creation_method            fapswitch 2.2
_symmetry_space_group_name_H-M    P1
_symmetry_Int_Tables_number       1
_space_group_crystal_system       triclinic
_cell_length_a                    15.720995
_cell_length_b                    10.641148
_cell_length_c                    9.887948
_cell_angle_alpha                 89.537427
_cell_angle_beta                  90.152505
_cell_angle_gamma                 90.091267
_cell_volume                      1654.08741894

loop_
_atom_site_label
_atom_site_type_symbol
_atom_site_description
_atom_site_fract_x
_atom_site_fract_y
_atom_site_fract_z
_atom_type_partial_charge
O1    O     O_R   0.500010 0.316790 0.614690 -0.609099
O2    O     O_R   0.500000 0.316760 0.385350 -0.571235
C1    C     C_R   0.504876 0.260171 0.500637 0.888151
O3    O     O_R   0.376780 0.500010 0.614650 -0.589321
O4    O     O_R   0.376770 0.499970 0.385310 -0.606191
C2    C     C_R   0.338019 0.499973 0.499601 0.882564
Zn1   Zn    Zn3+2 0.500010 0.500020 0.653130 1.023434
Zn2   Zn    Zn3+2 0.499990 0.499980 0.346870 1.011110
O5    O     O_R   0.500000 0.683240 0.614650 -0.608641
O6    O     O_R   0.499990 0.683210 0.385310 -0.573196
O7    O     O_R   0.623230 0.500030 0.614690 -0.555608
O8    O     O_R   0.623220 0.499990 0.385350 -0.643888
C3    C     C_R   0.504272 0.740248 0.499258 0.898639
C4    C     C_R   0.661955 0.500168 0.500083 0.879027
C5    C     C_3   0.971860 0.461478 0.616486 -0.214666
C6    C     C_3   0.026443 0.382885 0.520200 0.320707
H1    H     H_    0.947910 0.431255 0.717171 0.167689
H2    H     H_    0.944348 0.349005 0.321469 0.175623
C7    C     C_1   0.249211 0.499157 0.497641 -0.133671
C8    C     C_1   0.750709 0.499526 0.499572 -0.176163
C9    C     C_3   0.028699 0.577878 0.585556 -0.254067
C10   C     C_3   0.083149 0.496384 0.491037 -0.016334
C11   C     C_3   0.971212 0.614224 0.463257 -0.171603
C12   C     C_3   0.916524 0.497425 0.493725 0.102987
C13   C     C_3   0.025976 0.531203 0.371597 0.325504
C14   C     C_3   0.969431 0.415301 0.398054 -0.288754
C15   C     C_1   0.173988 0.497866 0.494231 0.076552
C16   C     C_1   0.825893 0.498647 0.497219 -0.006276
H3    H     H_    0.946766 0.709421 0.438060 0.172476
H4    H     H_    0.053955 0.644718 0.661423 0.192856
C17   C     C_R   0.526441 0.063041 0.623501 0.119892
C18   C     C_R   0.524235 0.129765 0.502065 -0.233450
C19   C     C_R   0.542007 0.068209 0.380677 -0.278078
H5    H     H_    0.547857 0.119500 0.285986 0.236999
C20   C     C_R   0.542250 0.937859 0.377892 0.448750
C21   C     C_R   0.522751 0.871614 0.498578 -0.216523
C22   C     C_R   0.524968 0.934861 0.621521 0.002346
C23   C     C_3   0.467901 0.925771 0.742168 -0.477465
C24   C     C_3   0.469606 0.068588 0.744961 0.155851
H6    H     H_    0.404118 0.886939 0.717030 0.190953
H7    H     H_    0.500091 0.879675 0.829692 0.231598
H8    H     H_    0.406890 0.113678 0.725588 0.080549
C25   C     C_R   0.425447 0.501028 0.070690 0.097050
N1    N     N_R   0.499430 0.499140 0.142800 -0.090506
C26   C     C_R   0.573465 0.512153 0.073231 -0.223164
H9    H     H_    0.632279 0.523901 0.128542 0.164262
C27   C     C_R   0.574383 0.510356 0.929127 0.538244
N2    N     N_R   0.499430 0.499180 0.857150 -0.152188
C28   C     C_R   0.425376 0.499638 0.928812 0.046214
C29   C     C_3   0.356287 0.402903 0.925894 0.226818
C30   C     C_3   0.353663 0.409762 0.080320 0.211943
H10   H     H_    0.379209 0.312601 0.882478 0.124773
H11   H     H_    0.295980 0.456732 0.121955 0.138923
N3    N     N_R   0.055186 0.255584 0.550464 0.205258
O9    O     O_R   0.999891 0.169440 0.582473 -0.382297
O10   O     O_R   0.134630 0.224951 0.535706 -0.444547
N4    N     N_R   0.512772 0.116692 0.865309 0.218732
O11   O     O_R   0.582781 0.181539 0.855315 -0.428200
O12   O     O_R   0.477801 0.101694 0.983363 -0.386742
O13   O     O_3   0.649811 0.532329 0.861464 -0.595028
C31   C     C_3   0.711791 0.439923 0.893442 0.121664
H12   H     H_    0.724657 0.384430 0.801063 0.195556
H13   H     H_    0.693067 0.371060 0.973781 0.147757
C32   C     C_3   0.794022 0.504413 0.935830 -0.820079
H14   H     H_    0.783304 0.560435 0.028530 0.255788
H15   H     H_    0.843758 0.432880 0.957080 0.230146
H16   H     H_    0.816619 0.567692 0.853495 0.270263
O14   O     O_3   0.281797 0.453039 0.866758 -0.597867
C33   C     C_3   0.223477 0.355875 0.836388 0.091465
H17   H     H_    0.235687 0.265502 0.890585 0.116135
H18   H     H_    0.226384 0.336700 0.726507 0.199437
C34   C     C_3   0.134222 0.398480 0.872569 -0.713900
H19   H     H_    0.119826 0.489239 0.821683 0.262312
H20   H     H_    0.087103 0.326969 0.839956 0.222063
H21   H     H_    0.129204 0.410695 0.983678 0.273449
O15   O     O_3   0.378490 0.296278 0.144619 -0.561450
C35   C     C_3   0.305364 0.233534 0.193732 0.134109
H22   H     H_    0.261770 0.209251 0.109298 0.129251
H23   H     H_    0.270783 0.292517 0.268184 0.153881
C36   C     C_3   0.330980 0.112175 0.264935 -0.694914
H24   H     H_    0.366266 0.133832 0.359042 0.227982
H25   H     H_    0.273192 0.057624 0.292394 0.216153
H26   H     H_    0.371338 0.054196 0.197915 0.292451
N5    N     N_R   0.054564 0.569568 0.237376 0.209550
O16   O     O_R   0.998912 0.595110 0.143645 -0.402412
O17   O     O_R   0.135257 0.577863 0.210082 -0.416767
O18   O     O_3   0.547261 0.879383 0.253900 -0.570012
C37   C     C_3   0.633733 0.859579 0.222106 0.105736
H27   H     H_    0.656627 0.772886 0.274210 0.146697
H28   H     H_    0.675495 0.939984 0.251353 0.132117
C38   C     C_3   0.642204 0.842642 0.070082 -0.730476
H29   H     H_    0.627401 0.932379 0.017012 0.280493
H30   H     H_    0.708175 0.814158 0.044876 0.211420
H31   H     H_    0.597405 0.769434 0.034314 0.252425

loop_
_geom_bond_atom_site_label_1
_geom_bond_atom_site_label_2
_geom_bond_distance
_ccdc_geom_bond_type
O18   C37   1.412635 S    
C31   C32   1.522081 S    
C20   C21   1.415138 A    
H2    C14   1.110312 S    
C35   H22   1.110557 S    
Zn1   O7    1.975069 S    
C2    C7    1.396242 S    
C11   H3    1.110230 S    
C21   C22   1.394589 A    
C12   C14   1.539549 S    
C34   H21   1.110372 S    
C23   C24   1.520411 S    
O7    C4    1.287823 A    
N4    O12   1.300179 A    
C5    C6    1.536775 S    
C24   N4    1.463916 S    
C31   H13   1.116170 S    
C33   H18   1.108178 S    
O5    C3    1.289755 A    
C27   O13   1.381746 S    
C20   O18   1.381860 S    
C17   C18   1.390410 A    
O14   C33   1.414338 S    
C10   C13   1.525866 S    
C13   N5    1.457360 S    
C29   H10   1.116289 S    
C11   C12   1.538376 S    
C7    C15   1.183042 T    
C35   H23   1.114505 S    
C9    C10   1.542064 S    
C33   H17   1.113801 S    
O3    Zn1   1.973315 S    
C19   H5    1.084003 S    
C24   H8    1.112664 S    
C26   C27   1.425291 A    
C6    C14   1.539325 S    
N3    O10   1.300160 A    
C32   H16   1.111009 S    
C4    C8    1.395344 S    
O15   C35   1.413690 S    
C3    C21   1.427266 S    
C34   H20   1.110256 S    
C38   H29   1.110553 S    
C36   H24   1.107702 S    
C8    C16   1.182315 T    
C13   C14   1.540228 S    
C26   H9    1.080591 S    
C17   C22   1.364441 A    
O13   C31   1.418693 S    
O1    C1    1.285390 A    
C32   H15   1.110584 S    
C33   C34   1.519790 S    
C25   N1    1.362718 A    
C22   C23   1.496980 S    
C38   H30   1.110504 S    
C27   N2    1.380437 A    
C37   C38   1.521637 S    
Zn2   O8    1.973316 S    
C29   C30   1.529962 S    
C1    C18   1.421085 S    
N5    O16   1.300268 A    
C23   H7    1.112320 S    
C36   H25   1.110464 S    
C5    C12   1.537694 S    
C37   H28   1.117112 S    
C10   C15   1.428411 S    
C9    C11   1.554501 S    
O3    C2    1.289093 A    
N1    C26   1.359879 A    
C12   C16   1.425406 S    
C36   H26   1.110156 S    
C35   C36   1.520212 S    
C5    H1    1.110317 S    
N3    O9    1.300146 A    
N2    C28   1.364535 A    
C6    C10   1.526058 S    
O1    Zn1   1.989490 S    
C25   C28   1.403081 A    
Zn2   N1    2.017921 S    
O8    C4    1.286166 A    
C34   H19   1.108758 S    
O6    C3    1.285658 A    
O4    Zn2   1.975070 S    
C9    H4    1.110144 S    
Zn1   N2    2.017332 S    
O2    C1    1.287083 A    
C18   C19   1.401011 A    
C38   H31   1.108757 S    
C23   H6    1.112214 S    
C25   C30   1.490434 S    
N4    O11   1.301678 A    
O4    C2    1.285276 A    
C32   H14   1.110818 S    
C19   C20   1.387572 A    
C17   C24   1.500418 S    
C11   C13   1.537080 S    
C31   H12   1.110882 S    
C6    N3    1.457203 S    
Zn1   O5    1.983435 S    
C5    C9    1.554986 S    
C37   H27   1.112828 S    
Zn2   O6    1.989489 S    
C28   C29   1.495627 S    
O2    Zn2   1.983433 S    
C30   O15   1.415144 S    
N5    O17   1.300377 A    
C30   H11   1.117319 S    
C29   O14   1.411100 S    
