data_mof_unit_741.cif
_audit_creation_date              2012-12-11T18:44:38-0500
_audit_creation_method            fapswitch 2.2
_symmetry_space_group_name_H-M    P1
_symmetry_Int_Tables_number       1
_space_group_crystal_system       triclinic
_cell_length_a                    8.363606
_cell_length_b                    14.734506
_cell_length_c                    18.840604
_cell_angle_alpha                 98.440849
_cell_angle_beta                  90.641606
_cell_angle_gamma                 91.767209
_cell_volume                      2295.26296696

loop_
_atom_site_label
_atom_site_type_symbol
_atom_type_description
_atom_site_fract_x
_atom_site_fract_y
_atom_site_fract_z
_atom_type_partial_charge
Ba1   Ba    Ba6+2 0.843240 0.541620 0.463500 1.622528
Ba2   Ba    Ba6+2 0.346570 0.458460 0.536510 1.613111
C1    C     C_3   0.459786 0.813216 0.213874 -0.400589
C2    C     C_3   0.488778 0.742506 0.263435 0.309238
C3    C     C_3   0.491763 0.299442 0.323079 0.325275
C4    C     C_3   0.443280 0.257134 0.247007 -0.410701
C5    C     C_3   0.121166 0.276566 0.738289 0.393686
C6    C     C_3   0.149754 0.258269 0.815380 -0.099878
C7    C     C_3   0.677599 0.238865 0.751163 0.397703
C8    C     C_3   0.641399 0.141183 0.767828 0.268961
C9    C     C_R   0.997697 0.455690 0.047763 -0.035492
C10   C     C_R   0.904496 0.409459 0.094936 0.040908
C11   C     C_R   0.747636 0.376412 0.071485 0.138529
C12   C     C_3   0.969999 0.760994 0.270156 0.504063
C13   C     C_R   0.689649 0.388318 0.003752 -0.102512
C14   C     C_R   0.785565 0.427194 0.955708 0.033537
C15   C     C_R   0.939782 0.461322 0.977097 0.029346
C16   C     C_R   0.729288 0.429502 0.885823 -0.100361
C17   C     C_R   0.829068 0.459134 0.833591 -0.043231
C18   C     C_R   0.981592 0.498589 0.854887 -0.025057
C19   C     C_R   0.035612 0.500431 0.927446 0.002676
C20   C     C_R   0.782453 0.447297 0.760399 -0.038269
C21   C     C_R   0.889055 0.473986 0.709419 -0.297780
C22   C     C_R   0.029210 0.526278 0.729694 0.093299
C23   C     C_3   0.915179 0.829281 0.222034 -0.339416
C24   C     C_R   0.078286 0.537483 0.804401 -0.042491
C25   C     C_R   0.151218 0.492592 0.069551 0.012557
C26   C     C_R   0.210071 0.487986 0.140246 -0.026112
C27   C     C_R   0.116024 0.444296 0.189377 -0.019002
C28   C     C_R   0.972195 0.396259 0.162726 0.173822
C29   C     C_R   0.221215 0.584708 0.830931 -0.027227
C30   C     C_R   0.278519 0.582356 0.901569 -0.007643
C31   C     C_R   0.186521 0.539225 0.949880 -0.001790
C32   C     C_R   0.245034 0.535493 0.020625 -0.002833
C33   C     C_R   0.428549 0.621871 0.924005 -0.089922
C34   C     C_3   0.139908 0.776903 0.664249 0.499077
C35   C     C_R   0.491067 0.617831 0.993438 0.192556
C36   C     C_R   0.398598 0.573289 0.041878 -0.002557
C37   C     C_R   0.365218 0.525548 0.161131 -0.049220
C38   C     C_R   0.458098 0.564795 0.110849 -0.108599
C39   C     C_R   0.424832 0.521352 0.231500 0.007017
C40   C     C_R   0.330513 0.480571 0.278676 -0.294949
C41   C     C_R   0.174775 0.447688 0.262238 0.059730
C42   C     C_R   0.701617 0.943227 0.537147 0.155563
C43   C     C_R   0.509428 0.804062 0.504988 0.101463
C44   C     C_R   0.354298 0.773135 0.481760 -0.061295
C45   C     C_3   0.071089 0.863962 0.709485 -0.056058
C46   C     C_R   0.250707 0.830067 0.452628 0.025491
C47   C     C_R   0.300920 0.919162 0.446079 -0.165411
C48   C     C_R   0.455126 0.954578 0.469378 -0.053695
C49   C     C_R   0.559174 0.899322 0.503565 -0.069489
C50   C     C_R   0.642114 0.089759 0.494275 -0.048179
C51   C     C_R   0.743336 0.036741 0.532041 -0.035730
C52   C     C_R   0.681864 0.186427 0.497267 0.051806
C53   C     C_R   0.815912 0.225511 0.536849 -0.267936
C54   C     C_R   0.922409 0.171652 0.567167 0.017546
C55   C     C_R   0.885623 0.078579 0.565832 -0.138948
C56   C     C_3   0.010729 0.257038 0.391340 0.316493
C57   C     C_R   0.504539 0.044615 0.458034 0.205355
C58   C     C_3   0.981642 0.153411 0.374717 -0.415920
C59   C     C_3   0.694022 0.685481 0.681132 0.460702
C60   C     C_3   0.652265 0.715791 0.760497 -0.392703
H1    H     H_    0.513065 0.778375 0.318821 0.028305
H2    H     H_    0.151391 0.887995 0.756519 0.071655
H3    H     H_    0.064409 0.920268 0.676393 0.037600
H4    H     H_    0.903181 0.289503 0.415745 0.006498
H5    H     H_    0.114038 0.271654 0.429006 0.072564
H6    H     H_    0.864074 0.137561 0.346986 0.128925
H7    H     H_    0.983406 0.121962 0.424537 0.066397
H8    H     H_    0.076749 0.122156 0.339341 0.120612
H9    H     H_    0.825187 0.683254 0.675871 0.030666
H10   H     H_    0.560631 0.864537 0.218223 0.102679
H11   H     H_    0.652535 0.791445 0.774764 0.129908
H12   H     H_    0.736986 0.686253 0.796022 0.050342
H13   H     H_    0.529536 0.691768 0.771268 0.087865
H14   H     H_    0.376806 0.699912 0.262717 -0.011595
H15   H     H_    0.347456 0.849008 0.228597 0.106555
H16   H     H_    0.381404 0.322830 0.351468 0.026619
H17   H     H_    0.576465 0.358499 0.320788 0.035889
H18   H     H_    0.340425 0.208104 0.248060 0.116862
H19   H     H_    0.405289 0.310917 0.215844 0.074775
H20   H     H_    0.545189 0.220965 0.219665 0.132981
H21   H     H_    0.447446 0.778771 0.157480 0.115063
H22   H     H_    0.018953 0.855875 0.194052 0.101043
H23   H     H_    0.195237 0.338289 0.730997 0.083200
H24   H     H_    0.993786 0.291549 0.731069 -0.108430
H25   H     H_    0.279586 0.264177 0.827979 0.132151
H26   H     H_    0.090823 0.311504 0.853128 0.065279
H27   H     H_    0.764829 0.273081 0.791911 -0.031207
H28   H     H_    0.732178 0.233276 0.697120 -0.102586
H29   H     H_    0.731199 0.095437 0.739117 -0.019994
H30   H     H_    0.864532 0.740873 0.300091 0.125492
H31   H     H_    0.568565 0.364564 0.988240 0.058236
H32   H     H_    0.858173 0.457867 0.653140 0.062966
H33   H     H_    0.608858 0.403985 0.872063 0.091098
H34   H     H_    0.292891 0.621047 0.796588 0.106052
H35   H     H_    0.496372 0.656088 0.886792 0.064175
H36   H     H_    0.580009 0.586591 0.124734 0.136388
H37   H     H_    0.381276 0.473645 0.329989 -0.010433
H38   H     H_    0.217696 0.959602 0.420841 0.094618
H39   H     H_    0.971179 0.039878 0.591369 0.058385
H40   H     H_    0.844479 0.298148 0.539732 0.047285
H41   H     H_    0.827501 0.795752 0.181000 0.118559
H42   H     H_    0.858396 0.887976 0.255026 0.087507
H43   H     H_    0.078213 0.762594 0.611070 0.001495
O1    O     O_2   0.887710 0.436190 0.327560 -0.455090
O2    O     O_3   0.636349 0.751458 0.641512 -0.600003
O3    O     O_3   0.093186 0.803545 0.315834 -0.643551
O4    O     O_2   0.301980 0.563840 0.672490 -0.452008
O5    O     O_3   0.054330 0.556590 0.583490 -0.518917
O6    O     O_3   0.555270 0.390630 0.635330 -0.453208
O7    O     O_3   0.114498 0.704759 0.703864 -0.673892
O8    O     O_3   0.637720 0.384870 0.467990 -0.492589
O9    O     O_3   0.145220 0.339960 0.601250 -0.480491
O10   O     O_2   0.252140 0.174620 0.556042 -0.500234
O11   O     O_3   0.164225 0.200585 0.688918 -0.603475
O12   O     O_3   0.135370 0.443490 0.416520 -0.531300
O13   O     O_3   0.551980 0.615210 0.532020 -0.468245
O14   O     O_2   0.394410 0.269100 0.474240 -0.456469
O15   O     O_3   0.567777 0.233368 0.356431 -0.626854
O16   O     O_2   0.447140 0.456410 0.761711 -0.508099
O17   O     O_3   0.536171 0.288315 0.751889 -0.595679
O18   O     O_3   0.634420 0.609440 0.364670 -0.500948
O19   O     O_2   0.763418 0.538158 0.240342 -0.468918
O20   O     O_3   0.043012 0.289368 0.326907 -0.613101
O21   O     O_3   0.621543 0.690890 0.239133 -0.619018
O22   O     O_2   0.795290 0.730930 0.525800 -0.465858
O23   O     O_3   0.044470 0.660110 0.398750 -0.509187
O24   O     O_2   0.912269 0.826545 0.429437 -0.506469
P1    P     P_3+3 0.061800 0.409390 0.339760 0.977190
P2    P     P_3+3 0.622760 0.718740 0.547830 1.052636
P3    P     P_3+3 0.069144 0.779914 0.403758 0.914193
P4    P     P_3+3 0.127890 0.590690 0.660240 0.960612
P5    P     P_3+3 0.118297 0.221965 0.602139 0.929939
P6    P     P_3+3 0.610227 0.584761 0.270406 0.930906
P7    P     P_3+3 0.573649 0.267778 0.449339 0.968136
P8    P     P_3+3 0.582698 0.396012 0.727982 0.925824
N1    N     N_3   0.914144 0.846995 0.737356 -0.487382
H44   H     H_    0.930996 0.815329 0.782975 0.185641
H45   H     H_    0.866036 0.910628 0.756074 0.157283
N2    N     N_3   0.621582 0.595289 0.657281 -0.403205
H46   H     H_    0.699741 0.558246 0.622207 0.155792
H47   H     H_    0.610600 0.561540 0.701111 0.158382
N3    N     N_3   0.088443 0.167713 0.826956 -0.497176
H48   H     H_    0.157077 0.117386 0.797912 0.209250
H49   H     H_    0.971417 0.158192 0.807003 0.184055
N4    N     N_2   0.482395 0.108752 0.742372 -0.394908
H50   H     H_    0.438471 0.054859 0.766286 0.175235
C61   C     C_3   0.462155 0.094265 0.665220 -0.125778
H51   H     H_    0.338356 0.069301 0.650477 0.137804
H52   H     H_    0.545515 0.042418 0.641439 0.036920
H53   H     H_    0.485573 0.158763 0.642783 0.160218
N5    N     N_2   0.660866 0.136196 0.844190 -0.445025
H54   H     H_    0.686594 0.071407 0.854749 0.181388
C62   C     C_3   0.545081 0.180730 0.892960 -0.208073
H55   H     H_    0.428076 0.142565 0.886248 0.115628
H56   H     H_    0.529881 0.252352 0.883841 0.123930
H57   H     H_    0.588155 0.181951 0.949044 0.095263
N6    N     N_3   0.642072 0.332643 0.116053 -0.532249
H58   H     H_    0.613184 0.266519 0.089810 0.162389
H59   H     H_    0.536649 0.368992 0.121228 0.175141
N7    N     N_3   0.912573 0.323064 0.198554 -0.460107
H60   H     H_    0.904873 0.262176 0.162196 0.166133
H61   H     H_    0.800601 0.338195 0.220064 0.227607
N8    N     N_2   0.643747 0.659880 0.016255 -0.427000
H62   H     H_    0.643097 0.703295 0.064436 0.197095
C63   C     C_3   0.751975 0.690356 0.964497 -0.241085
H63   H     H_    0.871150 0.707812 0.990323 0.113958
H64   H     H_    0.706311 0.752473 0.945098 0.095156
H65   H     H_    0.767251 0.634961 0.918749 0.123686
N9    N     N_3   0.029016 0.679501 0.225713 -0.474784
H66   H     H_    0.127900 0.698497 0.197056 0.157438
H67   H     H_    0.069590 0.634714 0.259580 0.175110
N10   N     N_2   0.305446 0.680907 0.484732 -0.424851
H68   H     H_    0.196561 0.670634 0.507727 0.206039
C64   C     C_3   0.341938 0.618973 0.420633 0.006892
H69   H     H_    0.242724 0.575069 0.401929 0.112163
H70   H     H_    0.426738 0.567106 0.430635 0.144207
H71   H     H_    0.372083 0.656308 0.375585 -0.020061
N11   N     N_3   0.792039 0.898309 0.585639 -0.452695
H72   H     H_    0.789655 0.937412 0.636540 0.160301
H73   H     H_    0.909778 0.892561 0.567988 0.182701
N12   N     N_2   0.423370 0.085413 0.404745 -0.392391
H74   H     H_    0.305600 0.099313 0.415735 0.204285
C65   C     C_3   0.449489 0.041800 0.331882 -0.204573
H75   H     H_    0.381157 0.076697 0.293823 0.108429
H76   H     H_    0.407974 0.968926 0.324232 0.090308
H77   H     H_    0.578673 0.045752 0.319136 0.121178
N13   N     N_2   0.310962 0.790793 0.655973 -0.436581
H78   H     H_    0.375513 0.765756 0.695186 0.230788
C66   C     C_3   0.367209 0.882681 0.648223 -0.344293
H79   H     H_    0.495887 0.884879 0.638473 0.164414
H80   H     H_    0.355729 0.928859 0.699134 0.091066
H81   H     H_    0.300618 0.908646 0.604496 0.089621

loop_
_geom_bond_atom_site_label_1
_geom_bond_atom_site_label_2
_ccdc_geom_bond_type
C22   P4    S    
C53   C54   A    
Ba2   O4    S    
N8    H62   S    
C4    H20   S    
C62   H56   S    
C39   C40   A    
C17   C18   A    
Ba1   O23   S    
O7    P4    S    
N9    H66   S    
C42   N11   S    
Ba1   O18   S    
Ba2   O13   S    
C5    C6    S    
C37   C39   A    
C43   C44   A    
C50   C51   A    
N9    H67   S    
C20   P8    S    
C35   C36   A    
C48   C57   A    
C26   C27   A    
C33   C35   A    
C22   C24   A    
Ba1   Ba2   S    
N12   C65   S    
N6    H58   S    
C38   H36   S    
C3    C4    S    
Ba2   O8    S    
C65   H76   S    
C5    H24   S    
O11   P5    S    
C43   C49   A    
C56   C58   S    
C29   H34   S    
C54   C55   A    
C34   C45   S    
C16   C17   A    
O16   P8    D    
N13   C66   S    
N10   H68   S    
O13   P2    S    
C42   C51   A    
C56   H4    S    
C64   H71   S    
Ba2   O5    S    
N4    H50   S    
C50   C52   A    
C14   C15   A    
O8    P7    S    
C34   O7    S    
C23   H22   S    
C21   C22   A    
C44   N10   S    
C60   H11   S    
C9    C25   A    
N5    C62   S    
C7    C8    S    
C8    N4    S    
O24   P3    D    
C10   C28   A    
C59   H9    S    
C12   O3    S    
C24   C29   A    
N8    C63   S    
C4    H19   S    
C27   C41   A    
C62   H57   S    
C16   H33   S    
C61   H52   S    
N13   H78   S    
Ba1   O8    S    
O23   P3    S    
C8    N5    S    
Ba2   O12   S    
N11   H73   S    
C31   C32   A    
C63   H65   S    
N7    H61   S    
C25   C32   A    
C44   C46   A    
Ba2   O6    S    
Ba2   P4    S    
O3    P3    S    
C3    O15   S    
O4    P4    D    
C34   N13   S    
C30   C33   A    
C17   C20   A    
C63   H64   S    
Ba1   P1    S    
C61   H53   S    
C7    H27   S    
C63   H63   S    
C51   C55   A    
C23   H41   S    
C65   H77   S    
C35   N8    S    
C26   C37   A    
C48   C49   A    
C40   H37   S    
C15   C19   A    
C66   H79   S    
O18   P6    S    
O15   P7    S    
C5    O11   S    
N12   H74   S    
C66   H80   S    
C13   H31   S    
C27   C28   A    
C50   C57   A    
Ba1   O5    S    
C4    H18   S    
C29   C30   A    
C53   H40   S    
C58   H8    S    
Ba2   O14   S    
C52   P7    S    
N6    H59   S    
C7    O17   S    
O9    P5    S    
C6    N3    S    
Ba1   O12   S    
C10   C11   A    
C57   N12   S    
O12   P1    S    
C12   H30   S    
N1    H45   S    
C42   C49   A    
N3    H49   S    
C64   H69   S    
O21   P6    S    
C43   P2    S    
C11   C13   A    
C1    H21   S    
C60   H13   S    
C3    H17   S    
C40   C41   A    
C28   N7    S    
C1    C2    S    
C1    H15   S    
C39   P6    S    
N11   H72   S    
O6    P8    S    
N7    H60   S    
C59   N2    S    
O1    P1    D    
C52   C53   A    
C9    C15   A    
O19   P6    D    
N4    C61   S    
C34   H43   S    
C32   C36   A    
C41   P1    S    
C60   H12   S    
Ba1   O22   S    
O17   P8    S    
C12   N9    S    
Ba1   P2    S    
C7    H28   S    
C8    H29   S    
C54   P5    S    
C9    C10   A    
C45   H2    S    
C23   H42   S    
O10   P5    D    
C55   H39   S    
Ba1   O1    S    
O14   P7    D    
C21   H32   S    
C2    O21   S    
N3    H48   S    
C6    H25   S    
C30   C31   A    
O2    P2    S    
N2    H47   S    
C1    H10   S    
C3    H16   S    
C66   H81   S    
C33   H35   S    
C61   H51   S    
C47   H38   S    
C36   C38   A    
Ba2   O9    S    
C65   H75   S    
C5    H23   S    
C18   C24   A    
C58   H7    S    
C2    H1    S    
C46   C47   A    
C45   N1    S    
C64   H70   S    
N10   C64   S    
C45   H3    S    
Ba1   O13   S    
C12   C23   S    
C59   C60   S    
C59   O2    S    
O22   P2    D    
C2    H14   S    
N1    H44   S    
O20   P1    S    
C37   C38   A    
C56   H5    S    
C19   C31   A    
C18   C19   A    
C58   H6    S    
C56   O20   S    
C14   C16   A    
C47   C48   A    
C62   H55   S    
C20   C21   A    
C46   P3    S    
O5    P4    S    
C6    H26   S    
N5    H54   S    
N2    H46   S    
C11   N6    S    
C13   C14   A    
C25   C26   A    
