data_mof_unit_3008.cif
_audit_creation_date              2012-12-10T19:08:07-0500
_audit_creation_method            fapswitch 2.2
_symmetry_space_group_name_H-M    P1
_symmetry_Int_Tables_number       1
_space_group_crystal_system       triclinic
_cell_length_a                    9.073266
_cell_length_b                    10.881909
_cell_length_c                    9.57687
_cell_angle_alpha                 89.81912
_cell_angle_beta                  89.992868
_cell_angle_gamma                 90.059918
_cell_volume                      945.561802843

loop_
_atom_site_label
_atom_site_type_symbol
_atom_type_description
_atom_site_fract_x
_atom_site_fract_y
_atom_site_fract_z
_atom_type_partial_charge
C1    C     C_R   0.498445 0.262981 0.500002 0.809507
C2    C     C_R   0.466794 0.938633 0.367805 -0.018603
C3    C     C_R   0.483146 0.870423 0.494763 -0.181410
C4    C     C_R   0.493966 0.937651 0.617101 0.110368
C5    C     C_3   0.518411 0.926683 0.770142 -0.437525
C6    C     C_3   0.521991 0.068096 0.772239 -0.419957
C7    C     C_R   0.629149 0.495775 0.073587 0.247250
C8    C     C_R   0.371798 0.495496 0.074052 -0.041580
C9    C     C_R   0.371808 0.495409 0.925965 -0.085978
C10   C     C_R   0.629150 0.495961 0.926422 0.254514
C11   C     C_3   0.751040 0.587929 0.920719 -0.490458
C12   C     C_R   0.220777 0.500057 0.499981 0.851870
C13   C     C_3   0.751418 0.587311 0.079132 -0.477408
C14   C     C_R   0.494348 0.737313 0.499005 0.810753
C15   C     C_R   0.779209 0.500142 0.500017 0.846285
C16   C     C_1   0.065567 0.500170 0.499988 -0.186544
C17   C     C_1   0.934407 0.500202 0.500004 -0.193194
C18   C     C_R   0.497203 0.061309 0.618833 0.112614
C19   C     C_R   0.490654 0.130829 0.497890 -0.117694
C20   C     C_R   0.473322 0.067664 0.370748 -0.256544
Cu1   Cu    Cu3+1 0.499990 0.499980 0.640670 0.943870
Cu2   Cu    Cu3+1 0.500010 0.500020 0.359330 0.971151
H1    H     H_    0.463570 0.118141 0.273374 0.180308
H2    H     H_    0.715615 0.677053 0.874806 0.208573
H3    H     H_    0.853789 0.547504 0.124135 0.201928
H4    H     H_    0.716832 0.676115 0.125757 0.235081
H5    H     H_    0.421004 0.886454 0.823863 0.206668
H6    H     H_    0.626428 0.883992 0.795304 0.196687
H7    H     H_    0.427219 0.109930 0.828153 0.203245
H8    H     H_    0.632074 0.106502 0.798566 0.202076
H9    H     H_    0.267354 0.493121 0.872136 0.150267
H10   H     H_    0.853422 0.548919 0.875103 0.201388
N1    N     N_R   0.500920 0.500930 0.147930 -0.185302
N2    N     N_R   0.500930 0.500890 0.852020 -0.188907
O1    O     O_R   0.500000 0.319640 0.618810 -0.581440
O2    O     O_R   0.500020 0.319680 0.381230 -0.587317
O3    O     O_R   0.288380 0.499980 0.618770 -0.593817
O4    O     O_R   0.288400 0.500020 0.381190 -0.579961
O5    O     O_R   0.499980 0.680320 0.618770 -0.578944
O6    O     O_R   0.500000 0.680360 0.381190 -0.558479
O7    O     O_R   0.711600 0.499980 0.618810 -0.582917
O8    O     O_R   0.711620 0.500020 0.381230 -0.581283
C21   C     C_2   0.444195 0.880803 0.230412 0.874558
O9    O     O_2   0.332865 0.820541 0.208028 -0.590283
O10   O     O_R   0.551060 0.895084 0.126822 -0.776393
H11   H     H_    0.529928 0.842105 0.042516 0.319745
H12   H     H_    0.267339 0.493338 0.127917 0.153229

loop_
_geom_bond_atom_site_label_1
_geom_bond_atom_site_label_2
_ccdc_geom_bond_type
C7    C10   A    
C21   O9    D    
Cu1   O1    S    
C5    H6    S    
C7    N1    A    
C15   O8    A    
C19   C20   A    
Cu1   O5    S    
C20   H1    S    
C7    C13   S    
C2    C21   S    
Cu2   O6    S    
C2    C3    A    
C8    H12   S    
C4    C18   A    
C10   N2    A    
Cu1   Cu2   S    
C21   O10   S    
C13   H3    S    
Cu2   O8    S    
C3    C14   S    
Cu1   O7    S    
C5    C6    S    
C6    H8    S    
C11   H10   S    
C8    N1    A    
C12   O4    A    
C9    N2    A    
C6    C18   S    
C13   H4    S    
C1    C19   S    
C16   C17   T    
C10   C11   S    
C9    H9    S    
C2    C20   A    
C3    C4    A    
Cu2   O4    S    
O10   H11   S    
C11   H2    S    
C11   C13   S    
C6    H7    S    
Cu1   O3    S    
C15   O7    A    
C18   C19   A    
C12   O3    A    
C15   C17   S    
Cu2   N1    S    
C8    C9    A    
Cu1   N2    S    
C1    O1    A    
C14   O5    A    
C5    H5    S    
C14   O6    A    
Cu2   O2    S    
C12   C16   S    
C1    O2    A    
C4    C5    S    
