data_mof_unit_4287.cif
_audit_creation_date              2012-12-10T18:33:39-0500
_audit_creation_method            fapswitch 2.2
_symmetry_space_group_name_H-M    P1
_symmetry_Int_Tables_number       1
_space_group_crystal_system       triclinic
_cell_length_a                    10.488071
_cell_length_b                    15.00867
_cell_length_c                    15.343619
_cell_angle_alpha                 81.400898
_cell_angle_beta                  90.020524
_cell_angle_gamma                 104.978377
_cell_volume                      2305.12490947

loop_
_atom_site_label
_atom_site_type_symbol
_atom_type_description
_atom_site_fract_x
_atom_site_fract_y
_atom_site_fract_z
_atom_type_partial_charge
C1    C     C_R   0.480997 0.440914 0.662596 0.879084
C2    C     C_R   0.517739 0.558938 0.336878 0.882353
C3    C     C_R   0.544677 0.460129 0.812744 -0.346634
C4    C     C_R   0.515989 0.527647 0.186184 -0.334940
C5    C     C_R   0.542865 0.430250 0.903259 0.065995
C6    C     C_R   0.576612 0.544177 0.102738 0.064654
C7    C     C_R   0.473673 0.336904 0.937704 0.070368
C8    C     C_R   0.654208 0.635544 0.069543 0.073786
C9    C     C_R   0.597213 0.494651 0.960819 0.105383
C10   C     C_R   0.558115 0.471545 0.050747 0.103362
C11   C     C_R   0.500523 0.376847 0.085069 -0.238593
C12   C     C_R   0.686303 0.582171 0.931488 -0.240034
C13   C     C_R   0.461869 0.310530 0.029629 -0.228334
C14   C     C_R   0.717647 0.650083 0.986060 -0.221704
C15   C     C_R   0.706645 0.844350 0.631308 -0.318945
C16   C     C_R   0.288389 0.153846 0.373109 -0.321374
C17   C     C_R   0.672392 0.755250 0.609122 0.021366
C18   C     C_R   0.329424 0.244958 0.389641 -0.000827
C19   C     C_R   0.504967 0.791533 0.517218 -0.054556
C20   C     C_R   0.486483 0.206251 0.489781 -0.034317
C21   C     C_R   0.535642 0.883595 0.536192 -0.005438
C22   C     C_R   0.450500 0.112596 0.475333 -0.006675
C23   C     C_R   0.742687 0.501190 0.500242 0.858794
C24   C     C_R   0.257293 0.498686 0.500029 0.829370
C25   C     C_R   0.639464 0.909229 0.594314 0.182986
C26   C     C_R   0.347922 0.087129 0.416296 0.186648
C27   C     C_R   0.469596 0.950875 0.498253 0.084936
C28   C     C_R   0.511939 0.044147 0.517048 0.084151
C29   C     C_R   0.614902 0.066013 0.576160 -0.232533
C30   C     C_R   0.363387 0.928147 0.441769 -0.253020
C31   C     C_R   0.676548 0.999470 0.614330 -0.214104
C32   C     C_R   0.304429 0.995287 0.401451 -0.216465
C33   C     C_3   0.930543 0.430242 0.560957 -0.189460
C34   C     C_3   0.069377 0.569426 0.439630 -0.176164
C35   C     C_3   0.047166 0.510366 0.580598 -0.180502
C36   C     C_3   0.952803 0.489249 0.420025 -0.167766
C37   C     C_3   0.121395 0.497079 0.499847 0.036223
C38   C     C_3   0.878570 0.502600 0.500736 0.031620
C39   C     C_3   0.007478 0.416884 0.480258 -0.145694
C40   C     C_3   0.992491 0.582753 0.520380 -0.134325
C41   C     C_R   0.476007 0.402120 0.756401 -0.206629
C42   C     C_R   0.541810 0.594580 0.241655 -0.222496
C43   C     C_R   0.413434 0.273914 0.879669 0.008780
C44   C     C_R   0.665317 0.709241 0.120479 -0.000138
C45   C     C_R   0.406978 0.309006 0.789528 0.450354
C46   C     C_R   0.603965 0.688502 0.206405 0.459594
H1    H     H_    0.090265 0.518271 0.646000 0.131485
H2    H     H_    0.909705 0.481142 0.354652 0.136983
H3    H     H_    0.560089 0.232250 0.535030 0.133816
H4    H     H_    0.428570 0.765101 0.473983 0.113452
H5    H     H_    0.282765 0.297081 0.358073 0.130409
H6    H     H_    0.724220 0.704494 0.636512 0.124989
H7    H     H_    0.785798 0.862700 0.676080 0.142008
H8    H     H_    0.210105 0.135493 0.327730 0.143924
H9    H     H_    0.651426 0.134296 0.594363 0.141140
H10   H     H_    0.322552 0.858769 0.427111 0.136113
H11   H     H_    0.868544 0.374075 0.610259 0.136755
H12   H     H_    0.130702 0.625772 0.390081 0.121276
H13   H     H_    0.017743 0.349309 0.464143 0.139577
H14   H     H_    0.982289 0.650267 0.536687 0.141457
H15   H     H_    0.415257 0.239946 0.060347 0.159491
H16   H     H_    0.789067 0.714612 0.960408 0.151648
H17   H     H_    0.449078 0.460942 0.210733 0.181527
H18   H     H_    0.592776 0.531358 0.785100 0.183125
H19   H     H_    0.485468 0.351671 0.154932 0.151386
H20   H     H_    0.735328 0.598932 0.866958 0.140748
H21   H     H_    0.755523 0.019341 0.658943 0.147484
H22   H     H_    0.223854 0.975069 0.358115 0.144993
N1    N     N_R   0.574200 0.731700 0.552740 -0.093629
N2    N     N_R   0.425800 0.268300 0.447260 -0.100524
O1    O     O_R   0.462600 0.383110 0.605620 -0.579850
O2    O     O_R   0.537400 0.616890 0.394380 -0.583127
O3    O     O_R   0.510210 0.531900 0.639510 -0.620293
O4    O     O_R   0.489790 0.468100 0.360490 -0.616472
O5    O     O_R   0.662240 0.425610 0.483080 -0.620074
O6    O     O_R   0.337760 0.574390 0.516920 -0.624049
O7    O     O_R   0.709860 0.574400 0.516970 -0.624682
O8    O     O_R   0.290140 0.425600 0.483030 -0.639560
Zn1   Zn    Zn3+2 0.468210 0.400660 0.477370 0.937297
Zn2   Zn    Zn3+2 0.531790 0.599340 0.522630 0.942562
O9    O     O_3   0.613438 0.759802 0.256219 -0.646308
C47   C     C_3   0.487116 0.774288 0.271242 0.125200
H23   H     H_    0.497770 0.820727 0.322131 0.167840
H24   H     H_    0.411874 0.708761 0.297967 0.121945
C48   C     C_3   0.436072 0.822315 0.188349 -0.404759
H25   H     H_    0.510427 0.888417 0.162250 0.238723
H26   H     H_    0.418654 0.775341 0.137647 0.214769
C49   C     C_3   0.305989 0.844244 0.208376 -0.973968
H27   H     H_    0.232064 0.780189 0.239827 0.260288
H28   H     H_    0.266069 0.871993 0.146172 0.269554
H29   H     H_    0.322270 0.897605 0.252830 0.270250
O10   O     O_3   0.336942 0.250729 0.733787 -0.646720
C50   C     C_3   0.217532 0.274756 0.710759 0.120275
H30   H     H_    0.206910 0.274496 0.638718 0.188153
H31   H     H_    0.214699 0.345810 0.722910 0.094938
C51   C     C_3   0.099571 0.202049 0.759601 -0.383043
H32   H     H_    0.102373 0.131222 0.747961 0.230311
H33   H     H_    0.105313 0.204521 0.831536 0.213025
C52   C     C_3   0.968931 0.220093 0.728574 -0.973896
H34   H     H_    0.962634 0.289648 0.741753 0.264129
H35   H     H_    0.885480 0.165909 0.764781 0.264681
H36   H     H_    0.959864 0.217258 0.656825 0.261894
C53   C     C_3   0.352187 0.170768 0.912937 -0.406899
C54   C     C_3   0.458900 0.119242 0.938178 -0.329860
C55   C     C_3   0.396998 0.018758 0.980982 -0.906388
H37   H     H_    0.338050 0.017680 0.041406 0.262663
H38   H     H_    0.332243 0.979918 0.934309 0.265078
H39   H     H_    0.475893 0.983505 0.999792 0.260011
H40   H     H_    0.517693 0.118990 0.877960 0.230689
H41   H     H_    0.527659 0.154618 0.984933 0.224849
H42   H     H_    0.281565 0.162771 0.969251 0.181631
H43   H     H_    0.292736 0.135379 0.862207 0.238536
C56   C     C_3   0.744633 0.808921 0.085698 -0.383844
C57   C     C_3   0.678970 0.856259 0.008711 -0.361407
C58   C     C_3   0.754117 0.958442 0.981640 -0.909479
H44   H     H_    0.753441 0.997903 0.037316 0.264038
H45   H     H_    0.857847 0.963910 0.961306 0.263453
H46   H     H_    0.706182 0.990277 0.925095 0.254880
H47   H     H_    0.674581 0.820777 0.950078 0.227170
H48   H     H_    0.575988 0.852837 0.027683 0.216745
H49   H     H_    0.758413 0.852942 0.138781 0.247808
H50   H     H_    0.845962 0.808554 0.065015 0.183522

loop_
_geom_bond_atom_site_label_1
_geom_bond_atom_site_label_2
_ccdc_geom_bond_type
C18   N2    A    
C38   C40   S    
C17   N1    A    
C50   H30   S    
C40   H14   S    
C34   C37   S    
C35   H1    S    
O1    Zn1   S    
C57   C58   S    
C3    H18   S    
C31   H21   S    
C55   H38   S    
C4    H17   S    
C33   C39   S    
C4    C42   A    
C34   C40   S    
C15   H7    S    
C28   C29   A    
C35   C37   S    
C54   H40   S    
O7    Zn2   S    
C58   H44   S    
C14   H16   S    
C51   C52   S    
C53   H42   S    
C42   C46   A    
C45   O10   S    
C56   H50   S    
C58   H45   S    
C51   H33   S    
C33   H11   S    
C7    C43   A    
C9    C10   A    
C57   H47   S    
C2    O4    A    
C32   H22   S    
C21   C27   A    
C50   H31   S    
C22   C28   A    
C27   C30   A    
C20   N2    A    
C2    O2    A    
C17   H6    S    
C54   C55   S    
C44   C46   A    
C18   H5    S    
O9    C47   S    
C16   H8    S    
C48   H26   S    
C16   C26   A    
C55   H39   S    
C8    C44   A    
C4    C6    A    
C5    C7    A    
C26   C32   A    
C24   O6    A    
C6    C8    A    
C29   H9    S    
C48   H25   S    
C12   H20   S    
C53   H43   S    
C5    C9    A    
C20   H3    S    
C46   O9    S    
C52   H34   S    
C49   H29   S    
C29   C31   A    
C58   H46   S    
C39   H13   S    
C51   H32   S    
C24   C37   S    
C13   H15   S    
C16   C18   A    
C1    O1    A    
C23   O7    A    
C43   C45   A    
C24   O8    A    
C52   H35   S    
C49   H28   S    
C44   C56   S    
C50   C51   S    
C47   H24   S    
O4    Zn1   S    
C19   N1    A    
C20   C22   A    
C47   C48   S    
C53   C54   S    
C54   H41   S    
C56   C57   S    
C48   C49   S    
C1    C41   S    
C15   C17   A    
C21   C25   A    
C3    C41   A    
C8    C14   A    
C19   C21   A    
N2    Zn1   S    
O8    Zn1   S    
C25   C31   A    
C36   C39   S    
O6    Zn2   S    
C23   O5    A    
C3    C5    A    
C6    C10   A    
C23   C38   S    
C55   H37   S    
C33   C38   S    
C1    O3    A    
C36   C38   S    
C35   C40   S    
C12   C14   A    
C37   C39   S    
C30   C32   A    
C11   C13   A    
C19   H4    S    
C30   H10   S    
C2    C42   S    
O10   C50   S    
C33   C35   S    
O3    Zn2   S    
C36   H2    S    
C34   C36   S    
C9    C12   A    
C43   C53   S    
C15   C25   A    
C10   C11   A    
C7    C13   A    
C52   H36   S    
C56   H49   S    
C49   H27   S    
O2    Zn2   S    
C47   H23   S    
C22   C26   A    
C27   C28   A    
C34   H12   S    
C41   C45   A    
N1    Zn2   S    
O5    Zn1   S    
C57   H48   S    
C11   H19   S    
