data_mof_unit_2934.cif
_audit_creation_date              2012-10-26T17:12:28-0400
_audit_creation_method            fapswitch 2.2
_symmetry_space_group_name_H-M    P1
_symmetry_Int_Tables_number       1
_space_group_crystal_system       triclinic
_cell_length_a                    16.886263
_cell_length_b                    16.800437
_cell_length_c                    16.712055
_cell_angle_alpha                 68.91653
_cell_angle_beta                  70.134041
_cell_angle_gamma                 67.61201
_cell_volume                      3975.70446016

loop_
_atom_site_label
_atom_site_type_symbol
_atom_type_description
_atom_site_fract_x
_atom_site_fract_y
_atom_site_fract_z
_atom_type_partial_charge
C1    C     C_R   0.029343 0.827629 0.565006 0.572126
C2    C     C_R   0.030940 0.563196 0.828608 0.578607
C3    C     C_R   0.171518 0.974328 0.434091 0.572180
C4    C     C_R   0.828482 0.025665 0.565909 0.572183
C5    C     C_R   0.456490 0.070768 0.700664 0.114101
C6    C     C_R   0.543511 0.929143 0.299351 0.114103
C7    C     C_R   0.060212 0.703525 0.457754 0.110220
C8    C     C_R   0.939977 0.296430 0.542218 0.110221
C9    C     C_R   0.732252 0.508212 0.926509 0.099930
C10   C     C_R   0.267713 0.491839 0.073454 0.099932
C11   C     C_R   0.296315 0.945925 0.538211 0.113096
C12   C     C_R   0.970658 0.172376 0.434993 0.572096
C13   C     C_R   0.703722 0.053917 0.461820 0.113080
C14   C     C_R   0.524184 0.318494 0.904140 0.107152
C15   C     C_R   0.475806 0.681477 0.095921 0.107145
C16   C     C_R   0.928339 0.548615 0.296242 0.126602
C17   C     C_R   0.071753 0.451389 0.703754 0.126583
C18   C     C_R   0.545192 0.016932 0.546221 0.040752
C19   C     C_R   0.454835 0.982933 0.453820 0.040748
C20   C     C_R   0.020367 0.543762 0.545161 0.042655
C21   C     C_R   0.979763 0.456207 0.454808 0.042661
C22   C     C_R   0.551306 0.547489 0.005169 0.036917
C23   C     C_R   0.834875 0.571927 0.004450 0.582422
C24   C     C_R   0.448670 0.452518 0.994845 0.036919
C25   C     C_R   0.587027 0.004591 0.460748 0.000462
C26   C     C_R   0.413007 0.995246 0.539306 0.000447
C27   C     C_R   0.016762 0.455175 0.584863 0.007627
C28   C     C_R   0.983426 0.544773 0.415087 0.007613
C29   C     C_R   0.460115 0.568497 0.045317 -0.001145
C30   C     C_R   0.539865 0.431496 0.954715 -0.001140
C31   C     C_R   0.543297 0.982919 0.416452 -0.001248
C32   C     C_R   0.456729 0.016931 0.583596 -0.001255
C33   C     C_R   0.408292 0.521679 0.038770 0.004268
C34   C     C_R   0.165121 0.428065 0.995567 0.582418
C35   C     C_R   0.591678 0.478344 0.961222 0.004261
C36   C     C_R   0.991864 0.413052 0.541471 0.000251
C37   C     C_R   0.008335 0.586888 0.458478 0.000224
C38   C     C_R   0.411939 0.048869 0.658844 -0.109413
C39   C     C_R   0.588072 0.950997 0.341194 -0.109400
C40   C     C_R   0.033074 0.665404 0.414042 -0.109707
C41   C     C_R   0.967222 0.334494 0.585885 -0.109719
C42   C     C_R   0.682679 0.460375 0.922700 -0.094297
C43   C     C_R   0.317280 0.539697 0.077236 -0.094302
C44   C     C_R   0.334006 0.973085 0.582223 -0.110451
C45   C     C_R   0.564650 0.027275 0.828908 0.573555
C46   C     C_R   0.666047 0.026711 0.417844 -0.110445
C47   C     C_R   0.574545 0.367649 0.905079 -0.099815
C48   C     C_R   0.425450 0.632300 0.095008 -0.099832
C49   C     C_R   0.952280 0.591598 0.337965 -0.090327
C50   C     C_R   0.047927 0.408356 0.661978 -0.090339
C51   C     C_R   0.549662 0.047168 0.677240 -0.009494
C52   C     C_R   0.450344 0.952769 0.322771 -0.009493
C53   C     C_R   0.045733 0.675990 0.550365 -0.009405
C54   C     C_R   0.954348 0.324006 0.449611 -0.009407
C55   C     C_R   0.694955 0.570989 0.976608 0.002397
C56   C     C_R   0.435350 0.972723 0.171091 0.573511
C57   C     C_R   0.305022 0.429018 0.023401 0.002386
C58   C     C_R   0.321998 0.962400 0.446161 -0.011306
C59   C     C_R   0.678020 0.037511 0.553857 -0.011295
C60   C     C_R   0.437785 0.328240 0.956422 -0.009421
C61   C     C_R   0.562194 0.671748 0.043617 -0.009412
C62   C     C_R   0.947789 0.454434 0.322784 0.006955
C63   C     C_R   0.052231 0.545582 0.677216 0.006928
C64   C     C_R   0.600951 0.043261 0.731332 -0.001116
C65   C     C_R   0.399046 0.956722 0.268666 -0.001118
C66   C     C_R   0.047871 0.727844 0.600576 -0.005009
C67   C     C_R   0.432159 0.170847 0.978033 0.576953
C68   C     C_R   0.952138 0.272169 0.399424 -0.005031
C69   C     C_R   0.744248 0.615848 0.989475 -0.000104
C70   C     C_R   0.255737 0.384138 0.010558 -0.000140
C71   C     C_R   0.269131 0.961472 0.396118 -0.006477
C72   C     C_R   0.730871 0.038499 0.603883 -0.006487
C73   C     C_R   0.389189 0.266689 0.976777 -0.000233
C74   C     C_R   0.610791 0.733298 0.023266 -0.000209
C75   C     C_R   0.948617 0.403533 0.270097 -0.000280
C76   C     C_R   0.051358 0.596494 0.729911 -0.000272
C77   C     C_R   0.691557 0.042618 0.693641 0.088985
C78   C     C_R   0.567836 0.829151 0.021974 0.576986
C79   C     C_R   0.308434 0.957388 0.306349 0.088983
C80   C     C_R   0.056758 0.685358 0.689130 0.070619
C81   C     C_R   0.943199 0.314677 0.310889 0.070567
C82   C     C_R   0.703292 0.704584 0.991229 0.059270
C83   C     C_R   0.296687 0.295388 0.008845 0.059184
C84   C     C_R   0.591827 0.031548 0.593668 -0.004553
C85   C     C_R   0.408189 0.968356 0.406355 -0.004564
C86   C     C_R   0.037766 0.589176 0.591771 0.000158
C87   C     C_R   0.962300 0.410823 0.408212 0.000166
C88   C     C_R   0.602734 0.596458 0.008679 -0.005247
C89   C     C_R   0.969047 0.436812 0.171394 0.578570
C90   C     C_R   0.397244 0.403543 0.991344 -0.005244
Cu1   Cu    Cu3+1 0.995180 0.995180 0.424630 1.092095
Cu2   Cu    Cu3+1 0.004820 0.004820 0.575370 1.092082
Cu3   Cu    Cu3+1 0.995180 0.424630 0.995180 1.106035
Cu4   Cu    Cu3+1 0.004820 0.575370 0.004820 1.106039
Cu5   Cu    Cu3+1 0.424630 0.995180 0.995180 1.092493
Cu6   Cu    Cu3+1 0.575370 0.004820 0.004820 1.092477
H1    H     H_    0.340784 0.066620 0.679557 0.134203
H2    H     H_    0.360449 0.642784 0.137791 0.142340
H3    H     H_    0.937847 0.663445 0.314632 0.133424
H4    H     H_    0.062453 0.336490 0.685278 0.133390
H5    H     H_    0.659222 0.933224 0.320482 0.134222
H6    H     H_    0.044102 0.689729 0.342948 0.139691
H7    H     H_    0.956351 0.310073 0.656935 0.139648
H8    H     H_    0.717168 0.412403 0.884501 0.137634
H9    H     H_    0.282766 0.587737 0.115357 0.137618
H10   H     H_    0.310547 0.961043 0.653131 0.134926
H11   H     H_    0.689531 0.038699 0.346952 0.134923
H12   H     H_    0.639573 0.357100 0.862366 0.142314
I1    I     I_    0.378233 0.175168 0.763028 -0.232309
I2    I     I_    0.429410 0.740624 0.202337 -0.229766
I3    I     I_    0.830922 0.632952 0.223971 -0.236826
I4    I     I_    0.169212 0.367137 0.776011 -0.236758
I5    I     I_    0.768323 0.054093 0.771399 -0.161450
I6    I     I_    0.231635 0.945996 0.228573 -0.161512
I7    I     I_    0.092557 0.749766 0.758419 -0.184260
I8    I     I_    0.907319 0.250314 0.241638 -0.184275
I9    I     I_    0.782711 0.793764 0.914474 -0.217057
I10   I     I_    0.217128 0.206216 0.085258 -0.216734
I11   I     I_    0.621725 0.824756 0.236986 -0.232305
I12   I     I_    0.170050 0.750298 0.382167 -0.244552
I13   I     I_    0.830101 0.249773 0.617901 -0.244577
I14   I     I_    0.844196 0.511594 0.821011 -0.362501
I15   I     I_    0.155769 0.488501 0.178955 -0.362683
I16   I     I_    0.270791 0.823206 0.607240 -0.254301
I17   I     I_    0.729215 0.176624 0.392711 -0.254339
I18   I     I_    0.570577 0.259394 0.797688 -0.229722
O1    O     O_R   0.124540 0.978640 0.385460 -0.467811
O2    O     O_R   0.124540 0.385460 0.978640 -0.466045
O3    O     O_R   0.021360 0.875460 0.614540 -0.469474
O4    O     O_R   0.978640 0.124540 0.385460 -0.469465
O5    O     O_R   0.013780 0.867370 0.487190 -0.502406
O6    O     O_R   0.986220 0.132630 0.512810 -0.502398
O7    O     O_R   0.867370 0.487190 0.013780 -0.494254
O8    O     O_R   0.132630 0.512810 0.986220 -0.494225
O9    O     O_R   0.487190 0.013780 0.867370 -0.502934
O10   O     O_R   0.512810 0.986220 0.132630 -0.502954
O11   O     O_R   0.512810 0.132630 0.986220 -0.502200
O12   O     O_R   0.875460 0.021360 0.614540 -0.467807
O13   O     O_R   0.487190 0.867370 0.013780 -0.502187
O14   O     O_R   0.986220 0.512810 0.132630 -0.484175
O15   O     O_R   0.013780 0.487190 0.867370 -0.484179
O16   O     O_R   0.132630 0.986220 0.512810 -0.501876
O17   O     O_R   0.867370 0.013780 0.487190 -0.501852
O18   O     O_R   0.978640 0.385460 0.124540 -0.478028
O19   O     O_R   0.021360 0.614540 0.875460 -0.478018
O20   O     O_R   0.385460 0.124540 0.978640 -0.463271
O21   O     O_R   0.614540 0.875460 0.021360 -0.463268
O22   O     O_R   0.614540 0.021360 0.875460 -0.466373
O23   O     O_R   0.385460 0.978640 0.124540 -0.466392
O24   O     O_R   0.875460 0.614540 0.021360 -0.466060

loop_
_geom_bond_atom_site_label_1
_geom_bond_atom_site_label_2
_ccdc_geom_bond_type
C25   C31   A    
C21   C87   A    
C26   C32   A    
Cu3   Cu4   S    
C65   C79   A    
C22   C29   A    
C45   O22   A    
Cu4   O14   S    
C64   C77   A    
C23   C69   S    
Cu5   Cu6   S    
C3    O16   A    
Cu3   O15   S    
Cu2   O12   S    
C78   O13   A    
C4    O17   A    
C71   C79   A    
C26   C44   A    
C66   C80   A    
Cu6   O10   S    
Cu1   O4    S    
C2    O19   A    
C22   C35   A    
C12   C68   S    
C9    C42   A    
Cu1   O1    S    
C30   C35   A    
C68   C81   A    
C83   I10   S    
C52   C85   A    
Cu2   O6    S    
C37   C40   A    
C1    O3    A    
C54   C87   A    
C3    O1    A    
C8    I13   S    
Cu1   O5    S    
C63   C76   A    
C34   O8    A    
C56   C65   S    
C29   C33   A    
C60   C73   A    
C43   H9    S    
C55   C88   A    
C35   C42   A    
C19   C26   A    
C69   C82   A    
C14   C47   A    
C11   I16   S    
C20   C86   A    
C18   C84   A    
C7    C40   A    
C53   C86   A    
C67   C73   S    
C32   C38   A    
C57   C70   A    
C11   C58   A    
Cu2   O16   S    
C34   C70   S    
C27   C50   A    
C59   C72   A    
C13   I17   S    
Cu4   O19   S    
C19   C31   A    
C5    C38   A    
C15   I2    S    
C36   C41   A    
C18   C25   A    
C16   C62   A    
C15   C48   A    
C74   C82   A    
C38   H1    S    
C77   I5    S    
C56   O10   A    
C24   C33   A    
C39   H5    S    
Cu1   O17   S    
Cu6   O22   S    
C45   O9    A    
C57   C90   A    
C23   O7    A    
C29   C48   A    
C33   C43   A    
C30   C47   A    
C10   C57   A    
C16   C49   A    
C10   I15   S    
C60   C90   A    
C8    C54   A    
Cu1   Cu2   S    
C21   C36   A    
C75   C81   A    
C1    O5    A    
C4    O12   A    
C41   H7    S    
C24   C90   A    
C1    C66   S    
C3    C71   S    
C72   C77   A    
C70   C83   A    
C61   C88   A    
C49   H3    S    
C28   C49   A    
C80   I7    S    
C89   O14   A    
C46   H11   S    
C67   O20   A    
Cu5   O9    S    
C9    I14   S    
C15   C61   A    
C11   C44   A    
C8    C41   A    
C53   C66   A    
C55   C69   A    
Cu3   O18   S    
C12   O4    A    
C78   O21   A    
C9    C55   A    
Cu5   O13   S    
C21   C28   A    
C23   O24   A    
C22   C88   A    
C63   C86   A    
C61   C74   A    
C62   C75   A    
C18   C32   A    
C7    C53   A    
C17   I4    S    
C6    I11   S    
C4    C72   S    
C2    C76   S    
C59   C84   A    
Cu6   O21   S    
C12   O6    A    
C10   C43   A    
C50   H4    S    
C7    I12   S    
Cu6   O11   S    
C51   C64   A    
C76   C80   A    
C19   C85   A    
C42   H8    S    
C17   C50   A    
Cu5   O23   S    
C13   C59   A    
C20   C27   A    
C44   H10   S    
C27   C36   A    
Cu4   O24   S    
C89   O18   A    
C14   C60   A    
C62   C87   A    
C45   C64   S    
Cu3   O7    S    
C58   C85   A    
C14   I18   S    
Cu2   O3    S    
Cu3   O2    S    
C17   C63   A    
C20   C37   A    
C13   C46   A    
C5    I1    S    
C28   C37   A    
C51   C84   A    
C81   I8    S    
Cu4   O8    S    
C31   C39   A    
C48   H2    S    
C58   C71   A    
C24   C30   A    
C75   C89   S    
C40   H6    S    
C54   C68   A    
C34   O2    A    
C47   H12   S    
C74   C78   S    
C79   I6    S    
C2    O15   A    
Cu5   O20   S    
C6    C39   A    
C5    C51   A    
C82   I9    S    
C6    C52   A    
C56   O23   A    
C67   O11   A    
C25   C46   A    
C73   C83   A    
C52   C65   A    
C16   I3    S    
