data_mof_unit_2910.cif
_audit_creation_date              2012-12-10T22:11:08-0500
_audit_creation_method            fapswitch 2.2
_symmetry_space_group_name_H-M    P1
_symmetry_Int_Tables_number       1
_space_group_crystal_system       triclinic
_cell_length_a                    12.198221
_cell_length_b                    12.345338
_cell_length_c                    23.071611
_cell_angle_alpha                 90.76594
_cell_angle_beta                  90.444187
_cell_angle_gamma                 91.317911
_cell_volume                      3473.03835185

loop_
_atom_site_label
_atom_site_type_symbol
_atom_type_description
_atom_site_fract_x
_atom_site_fract_y
_atom_site_fract_z
_atom_type_partial_charge
C1    C     C_R   0.652719 0.998375 0.581020 0.880672
C2    C     C_R   0.347281 0.001625 0.418980 0.880672
C3    C     C_R   0.902237 0.754406 0.155287 -0.375351
C4    C     C_R   0.097764 0.245593 0.844713 -0.375350
C5    C     C_R   0.080247 0.898171 0.167004 0.444606
C6    C     C_R   0.919753 0.101829 0.832996 0.444607
C7    C     C_R   0.079784 0.819834 0.124011 0.569064
C8    C     C_R   0.920216 0.180166 0.875988 0.569064
C9    C     C_R   0.908883 0.113180 0.168413 0.587365
C10   C     C_R   0.091117 0.886819 0.831586 0.587366
C11   C     C_R   0.905364 0.195548 0.128280 0.104095
C12   C     C_R   0.094636 0.804452 0.871719 0.104094
C13   C     C_R   0.172560 0.922408 0.290449 -0.042624
C14   C     C_R   0.827440 0.077592 0.709551 -0.042624
C15   C     C_R   0.259122 0.919777 0.330374 0.192394
C16   C     C_R   0.740878 0.080223 0.669626 0.192394
C17   C     C_R   0.825894 0.092493 0.296195 0.641092
C18   C     C_R   0.174105 0.907507 0.703805 0.641096
C19   C     C_R   0.741339 0.089960 0.336095 0.076255
C20   C     C_R   0.258661 0.910040 0.663905 0.076256
C21   C     C_3   0.997273 0.006476 0.248906 0.021543
C22   C     C_3   0.002727 0.993524 0.751094 0.021543
C23   C     C_R   0.651948 0.002251 0.419786 0.941374
C24   C     C_R   0.348051 0.997749 0.580214 0.941374
C25   C     C_R   0.099131 0.009532 0.289064 0.155331
C26   C     C_R   0.900869 0.990468 0.710936 0.155331
C27   C     C_R   0.268034 0.003738 0.372002 -0.156152
C28   C     C_R   0.731966 0.996262 0.627998 -0.156150
C29   C     C_R   0.901356 0.006254 0.292218 0.000649
C30   C     C_R   0.098644 0.993746 0.707782 0.000647
C31   C     C_R   0.734147 0.004424 0.375201 -0.202431
C32   C     C_R   0.265853 0.995576 0.624799 -0.202432
C33   C     C_R   0.998762 0.103192 0.207007 -0.052052
C34   C     C_R   0.001238 0.896807 0.792992 -0.052053
C35   C     C_R   0.996073 0.267061 0.123441 -0.243514
C36   C     C_R   0.003927 0.732939 0.876559 -0.243514
C37   C     C_R   0.991913 0.907176 0.206676 -0.155370
C38   C     C_R   0.008087 0.092824 0.793324 -0.155374
C39   C     C_R   0.991377 0.747258 0.118423 -0.287674
C40   C     C_R   0.008623 0.252741 0.881577 -0.287675
C41   C     C_R   0.993038 0.661844 0.075048 0.957099
C42   C     C_R   0.006962 0.338156 0.924952 0.957099
C43   C     C_R   0.998291 0.351627 0.080368 0.946783
C44   C     C_R   0.001709 0.648373 0.919632 0.946783
C45   C     C_R   0.114109 0.095604 0.330380 0.258968
C46   C     C_R   0.885891 0.904396 0.669619 0.258969
C47   C     C_R   0.199468 0.092117 0.370063 -0.253189
C48   C     C_R   0.800532 0.907883 0.629937 -0.253188
C49   C     C_R   0.893715 0.922009 0.334231 0.148539
C50   C     C_R   0.106285 0.077990 0.665769 0.148537
C51   C     C_R   0.808413 0.921070 0.373518 -0.306544
C52   C     C_R   0.191586 0.078930 0.626482 -0.306543
C53   C     C_R   0.091494 0.173270 0.198902 0.645137
C54   C     C_R   0.908506 0.826730 0.801098 0.645136
C55   C     C_R   0.088287 0.254675 0.158505 -0.316925
C56   C     C_R   0.911713 0.745325 0.841495 -0.316924
C57   C     C_R   0.898292 0.835256 0.197864 0.259140
C58   C     C_R   0.101709 0.164743 0.802136 0.259137
H1    H     H_    0.210531 0.158271 0.400966 0.177589
H2    H     H_    0.789469 0.841730 0.599034 0.177589
H3    H     H_    0.159373 0.852856 0.262738 0.144202
H4    H     H_    0.840628 0.147144 0.737262 0.144202
H5    H     H_    0.801308 0.855314 0.403965 0.192849
H6    H     H_    0.198692 0.144686 0.596035 0.192850
H7    H     H_    0.160002 0.307245 0.153951 0.212648
H8    H     H_    0.839998 0.692755 0.846049 0.212648
H9    H     H_    0.833727 0.697343 0.150613 0.204751
H10   H     H_    0.166273 0.302656 0.849387 0.204752
O1    O     O_R   0.621380 0.090460 0.561410 -0.618236
O2    O     O_R   0.378620 0.909540 0.438590 -0.618236
O3    O     O_R   0.617150 0.909540 0.438590 -0.643960
O4    O     O_R   0.382850 0.090460 0.561410 -0.643960
O5    O     O_R   0.619720 0.093230 0.440890 -0.600889
O6    O     O_R   0.380280 0.906770 0.559110 -0.600889
O7    O     O_R   0.618800 0.906770 0.559110 -0.625121
O8    O     O_R   0.381200 0.093230 0.440890 -0.625121
O9    O     O_R   0.087590 0.627480 0.058790 -0.566180
O10   O     O_R   0.912410 0.372520 0.941210 -0.566180
O11   O     O_R   0.905660 0.383870 0.059980 -0.600037
O12   O     O_R   0.094340 0.616130 0.940020 -0.600037
O13   O     O_R   0.092570 0.390420 0.063230 -0.632743
O14   O     O_R   0.907430 0.609580 0.936770 -0.632743
O15   O     O_R   0.900680 0.620930 0.055550 -0.638371
O16   O     O_R   0.099320 0.379070 0.944450 -0.638371
Zn1   Zn    Zn3+2 0.501730 0.123520 0.501540 0.950761
Zn2   Zn    Zn3+2 0.498270 0.876480 0.498460 0.950761
Zn3   Zn    Zn3+2 0.125690 0.504390 0.002180 1.007214
Zn4   Zn    Zn3+2 0.874310 0.495610 0.997820 1.007214
N1    N     N_2   0.969838 0.835976 0.335811 -0.318117
H11   H     H_    0.939917 0.764222 0.317991 0.221516
C59   C     C_3   0.024356 0.819757 0.391006 -0.797512
H12   H     H_    0.095660 0.766851 0.384394 0.250361
H13   H     H_    0.968092 0.779360 0.421996 0.229516
H14   H     H_    0.054491 0.898363 0.409800 0.253805
N2    N     N_2   0.030161 0.164024 0.664189 -0.318118
H15   H     H_    0.060080 0.235777 0.682011 0.221515
C60   C     C_3   0.975645 0.180246 0.608994 -0.797512
H16   H     H_    0.904340 0.233149 0.615606 0.250362
H17   H     H_    0.945514 0.101640 0.590198 0.253805
H18   H     H_    0.031910 0.220646 0.578006 0.229517
F1    F     F_    0.189299 0.160755 0.226040 -0.641183
F2    F     F_    0.810701 0.839245 0.773960 -0.641182
N3    N     N_2   0.799555 0.841812 0.230326 -0.283391
H19   H     H_    0.791186 0.780399 0.259894 0.198109
C61   C     C_3   0.698277 0.855541 0.197998 -0.594422
H20   H     H_    0.650881 0.920883 0.218853 0.251135
H21   H     H_    0.647846 0.779391 0.198301 0.186390
H22   H     H_    0.713391 0.877336 0.152101 0.281517
N4    N     N_2   0.200446 0.158186 0.769674 -0.283388
H23   H     H_    0.208814 0.219597 0.740105 0.198109
C62   C     C_3   0.301724 0.144461 0.802003 -0.594420
H24   H     H_    0.349125 0.079123 0.781147 0.251131
H25   H     H_    0.286609 0.122661 0.847900 0.281520
H26   H     H_    0.352150 0.220614 0.801703 0.186389
F3    F     F_    0.169121 0.966306 0.169644 -0.605761
F4    F     F_    0.830879 0.033694 0.830355 -0.605760
F5    F     F_    0.820137 0.046139 0.171881 -0.692028
F6    F     F_    0.179863 0.953859 0.828118 -0.692027
F7    F     F_    0.838052 0.185889 0.266513 -0.702524
F8    F     F_    0.161948 0.814111 0.733487 -0.702524
F9    F     F_    0.165856 0.816721 0.087008 -0.606768
F10   F     F_    0.834144 0.183279 0.912991 -0.606768
N5    N     N_2   0.811457 0.203257 0.091622 -0.249320
H27   H     H_    0.787869 0.130445 0.072319 0.270974
C63   C     C_3   0.720110 0.256911 0.118417 -0.588943
H28   H     H_    0.654244 0.267657 0.085660 0.220627
H29   H     H_    0.746150 0.338132 0.135528 0.230489
H30   H     H_    0.686622 0.207645 0.154450 0.261640
N6    N     N_2   0.188543 0.796742 0.908377 -0.249320
H31   H     H_    0.212132 0.869554 0.927681 0.270974
C64   C     C_3   0.279890 0.743088 0.881582 -0.588943
H32   H     H_    0.345756 0.732341 0.914340 0.220626
H33   H     H_    0.313378 0.792353 0.845549 0.261640
H34   H     H_    0.253850 0.661867 0.864471 0.230489
N7    N     N_2   0.338030 0.835291 0.329335 -0.285777
H35   H     H_    0.418454 0.862191 0.333471 0.236978
C65   C     C_3   0.323299 0.742421 0.290833 -0.779751
H36   H     H_    0.388967 0.683674 0.299208 0.239192
H37   H     H_    0.328730 0.767928 0.244920 0.263348
H38   H     H_    0.243271 0.700871 0.299010 0.237236
N8    N     N_2   0.661970 0.164708 0.670665 -0.285778
H39   H     H_    0.581546 0.137809 0.666529 0.236978
C66   C     C_3   0.676700 0.257578 0.709168 -0.779752
H40   H     H_    0.611031 0.316324 0.700793 0.239192
H41   H     H_    0.756728 0.299128 0.700992 0.237236
H42   H     H_    0.671269 0.232069 0.755081 0.263350
N9    N     N_2   0.660182 0.171235 0.334862 -0.270247
H43   H     H_    0.626722 0.181541 0.294156 0.253279
C67   C     C_3   0.691979 0.273623 0.362149 -0.676759
H44   H     H_    0.618291 0.323787 0.367519 0.219469
H45   H     H_    0.751557 0.318604 0.334809 0.255917
H46   H     H_    0.728789 0.260898 0.405650 0.239439
N10   N     N_2   0.339817 0.828765 0.665137 -0.270247
H47   H     H_    0.373278 0.818457 0.705843 0.253279
C68   C     C_3   0.308020 0.726376 0.637850 -0.676758
H48   H     H_    0.381707 0.676212 0.632480 0.219469
H49   H     H_    0.271210 0.739102 0.594350 0.239439
H50   H     H_    0.248442 0.681396 0.665190 0.255917
N11   N     N_2   0.045197 0.187341 0.330935 -0.287560
H51   H     H_    0.082282 0.254948 0.313235 0.259357
C69   C     C_3   0.993366 0.212179 0.385730 -0.812740
H52   H     H_    0.929753 0.273337 0.378671 0.259355
H53   H     H_    0.053763 0.247136 0.417400 0.223974
H54   H     H_    0.953839 0.138310 0.403984 0.246422
N12   N     N_2   0.954803 0.812659 0.669065 -0.287560
H55   H     H_    0.917718 0.745052 0.686765 0.259358
C70   C     C_3   0.006633 0.787820 0.614270 -0.812743
H56   H     H_    0.070245 0.726661 0.621328 0.259355
H57   H     H_    0.046161 0.861688 0.596016 0.246422
H58   H     H_    0.946236 0.752864 0.582600 0.223975

loop_
_geom_bond_atom_site_label_1
_geom_bond_atom_site_label_2
_ccdc_geom_bond_type
C16   C28   A    
C66   H42   S    
N12   H55   S    
C46   N12   S    
C5    C37   A    
C68   H49   S    
C58   N4    S    
C9    F5    S    
C61   H20   S    
N2    H15   S    
C45   N11   S    
O16   Zn3   S    
C64   H34   S    
C19   C31   A    
C60   H18   S    
O4    Zn1   S    
C24   O6    A    
O1    Zn1   S    
N7    H35   S    
C39   C41   S    
C29   C49   A    
C65   H37   S    
C10   F6    S    
N9    C67   S    
C23   O5    A    
O12   Zn3   S    
C44   O14   A    
C67   H45   S    
C41   O9    A    
O14   Zn4   S    
C50   N2    S    
N5    C63   S    
C21   C33   S    
C25   C45   A    
C43   O11   A    
C66   H40   S    
C41   O15   A    
C17   C29   A    
C66   H41   S    
C32   C52   A    
N3    H19   S    
N4    C62   S    
C69   H53   S    
C38   C58   A    
C11   C35   A    
C28   C48   A    
C62   H25   S    
N9    H43   S    
C15   N7    S    
C53   F1    S    
C49   C51   A    
C1    C28   S    
C50   C52   A    
C6    C38   A    
C48   H2    S    
C2    C27   S    
C18   C30   A    
C12   C36   A    
C35   C43   S    
N4    H23   S    
C45   C47   A    
O15   Zn4   S    
C30   C50   A    
C3    C39   A    
N12   C70   S    
C5    F3    S    
C68   H50   S    
C9    C33   A    
C70   H57   S    
C13   H3    S    
C13   C25   A    
C7    F9    S    
C22   C34   S    
O11   Zn4   S    
C55   H7    S    
C60   H16   S    
C70   H58   S    
C46   C48   A    
C53   C55   A    
C33   C53   A    
C57   N3    S    
C65   H38   S    
C54   C56   A    
C12   N6    S    
C35   C55   A    
C1    O7    A    
C23   O3    A    
N5    H27   S    
C51   H5    S    
N3    C61   S    
C20   N10   S    
C67   H46   S    
C49   N1    S    
C59   H12   S    
C5    C7    A    
C26   C46   A    
C6    C8    A    
C21   C29   S    
C1    O1    A    
C23   C31   S    
C24   C32   S    
C4    C40   A    
C36   C56   A    
C59   H13   S    
O3    Zn2   S    
C61   H21   S    
O7    Zn2   S    
C15   C27   A    
N11   H51   S    
C44   O12   A    
C6    F4    S    
N11   C69   S    
C42   O16   A    
C10   C34   A    
C61   H22   S    
C14   C26   A    
C9    C11   A    
O5    Zn1   S    
O13   Zn3   S    
C10   C12   A    
C3    C57   A    
C42   O10   A    
C13   C15   A    
C52   H6    S    
C63   H28   S    
C43   O13   A    
C14   C16   A    
C36   C44   S    
N10   C68   S    
C64   H32   S    
O2    Zn2   S    
C18   F8    S    
C70   H56   S    
C69   H54   S    
C2    O8    A    
C24   O4    A    
C4    H10   S    
N6    H31   S    
C20   C32   A    
C27   C47   A    
N7    C65   S    
C21   C25   S    
O10   Zn4   S    
C60   H17   S    
C22   C30   S    
C62   H24   S    
C54   F2    S    
C11   N5    S    
C31   C51   A    
C64   H33   S    
C2    O2    A    
N2    C60   S    
C34   C54   A    
O6    Zn2   S    
C65   H36   S    
N8    C66   S    
C16   N8    S    
N1    H11   S    
C69   H52   S    
C67   H44   S    
C59   H14   S    
C8    F10   S    
C3    H9    S    
C63   H30   S    
C56   H8    S    
C40   C42   S    
C17   C19   A    
C62   H26   S    
C18   C20   A    
C19   N9    S    
C17   F7    S    
C47   H1    S    
C21   C37   S    
O9    Zn3   S    
N1    C59   S    
C22   C26   S    
C4    C58   A    
C68   H48   S    
C63   H29   S    
C7    C39   A    
C8    C40   A    
N10   H47   S    
N8    H39   S    
O8    Zn1   S    
C37   C57   A    
N6    C64   S    
C22   C38   S    
C14   H4    S    
