data_mof_unit_4449.cif
_audit_creation_date              2012-10-26T21:05:23-0400
_audit_creation_method            fapswitch 2.2
_symmetry_space_group_name_H-M    P1
_symmetry_Int_Tables_number       1
_space_group_crystal_system       triclinic
_cell_length_a                    9.671433
_cell_length_b                    10.754109
_cell_length_c                    13.869439
_cell_angle_alpha                 92.392377
_cell_angle_beta                  84.633446
_cell_angle_gamma                 89.646702
_cell_volume                      1434.8793571

loop_
_atom_site_label
_atom_site_type_symbol
_atom_type_description
_atom_site_fract_x
_atom_site_fract_y
_atom_site_fract_z
_atom_type_partial_charge
C1    C     C_R   0.499274 0.737007 0.502312 0.530208
C2    C     C_R   0.559631 0.930906 0.428069 -0.128639
C3    C     C_R   0.558569 0.058991 0.427793 -0.135504
C4    C     C_R   0.477207 0.501094 0.682632 0.523829
C5    C     C_R   0.498314 0.129019 0.507836 0.030258
C6    C     C_R   0.885027 0.402881 0.333819 0.071797
C7    C     C_R   0.967297 0.415467 0.246208 -0.134236
C8    C     C_R   0.110263 0.408669 0.247918 -0.193652
C9    C     C_R   0.162703 0.394748 0.337256 0.056488
C10   C     C_R   0.085243 0.446501 0.421613 0.165867
C11   C     C_R   0.937269 0.448918 0.420590 0.093830
C12   C     C_1   0.464052 0.502967 0.785825 0.056705
C13   C     C_R   0.915956 0.549601 0.575398 0.021913
C14   C     C_R   0.063303 0.550185 0.575139 0.015712
C15   C     C_R   0.499824 0.262928 0.502182 0.536462
C16   C     C_R   0.522841 0.500167 0.317413 0.561053
C17   C     C_1   0.537509 0.498014 0.214223 0.009526
C18   C     C_2   0.568204 0.492034 0.023349 0.017419
C19   C     C_2   0.453523 0.505467 0.976427 -0.067124
C20   C     C_1   0.457078 0.504370 0.872715 0.071757
C21   C     C_1   0.551414 0.495389 0.127287 -0.076294
C22   C     C_2   0.798644 0.290694 0.334935 0.281240
C23   C     C_R   0.375019 0.879675 0.672047 -0.140186
C24   C     C_2   0.247626 0.281085 0.340435 0.294131
C25   C     C_2   0.711812 0.473903 0.975835 0.268097
C26   C     C_2   0.262842 0.875735 0.838641 0.203734
C27   C     C_2   0.233319 0.156486 0.832241 0.273832
C28   C     C_R   0.314565 0.947721 0.753775 -0.008749
C29   C     C_R   0.309442 0.079380 0.752692 0.044421
C30   C     C_R   0.372272 0.138809 0.671617 -0.079788
C31   C     C_R   0.434730 0.070264 0.589883 0.010228
C32   C     C_R   0.434517 0.939210 0.589740 0.016641
C33   C     C_R   0.497547 0.871002 0.507710 0.023187
Cu1   Cu    Cu3+1 0.359340 0.500010 0.500010 0.978488
Cu2   Cu    Cu3+1 0.640660 0.499990 0.499990 0.973223
H1    H     H_    0.925146 0.395356 0.177602 0.161841
H2    H     H_    0.378254 0.779185 0.674420 0.107963
H3    H     H_    0.233952 0.779068 0.827866 0.109769
H4    H     H_    0.158546 0.115196 0.884172 0.171458
H5    H     H_    0.370151 0.239351 0.672279 0.171071
H6    H     H_    0.853338 0.591410 0.637111 0.143358
H7    H     H_    0.601814 0.103208 0.363619 0.164624
H8    H     H_    0.352562 0.518070 0.017366 0.120900
H9    H     H_    0.801368 0.228122 0.393975 0.124302
H10   H     H_    0.172899 0.383019 0.181006 0.126217
H11   H     H_    0.338895 0.265612 0.289432 0.107190
H12   H     H_    0.109020 0.592578 0.636564 0.121423
H13   H     H_    0.797166 0.464197 0.020654 0.113409
H14   H     H_    0.606528 0.878022 0.364980 0.133950
N1    N     N_R   0.852210 0.498790 0.499090 -0.252482
N2    N     N_R   0.148080 0.498710 0.499060 -0.236278
O1    O     O_R   0.381190 0.680360 0.500010 -0.497835
O2    O     O_2   0.209623 0.198932 0.394829 -0.493587
O3    O     O_2   0.737362 0.469453 0.887879 -0.496905
O4    O     O_2   0.259220 0.920011 0.921307 -0.504246
O5    O     O_2   0.250800 0.268713 0.839564 -0.527276
O6    O     O_R   0.618760 0.680340 0.500000 -0.499764
O7    O     O_R   0.364420 0.499990 0.637850 -0.516198
O8    O     O_R   0.601990 0.499960 0.637840 -0.485057
O9    O     O_R   0.381240 0.319660 0.500000 -0.462310
O10   O     O_R   0.618810 0.319640 0.499990 -0.519128
O11   O     O_R   0.398010 0.500040 0.362160 -0.521707
O12   O     O_R   0.635580 0.500010 0.362150 -0.482945
O13   O     O_2   0.731699 0.262763 0.266892 -0.547630

loop_
_geom_bond_atom_site_label_1
_geom_bond_atom_site_label_2
_ccdc_geom_bond_type
C3    H7    S    
C6    C7    A    
C16   O12   A    
C1    O6    A    
C26   C28   S    
C4    C12   S    
C18   C21   S    
C9    C10   A    
C27   O5    D    
Cu1   O1    S    
C19   C20   S    
Cu2   O6    S    
C24   H11   S    
C23   C32   A    
C12   C20   T    
Cu2   N1    S    
C13   H6    S    
C2    C3    A    
C15   O10   A    
C1    C33   S    
C7    C8    A    
C9    C24   S    
C11   N1    A    
C23   H2    S    
C23   C28   A    
C26   O4    D    
Cu1   O9    S    
C25   H13   S    
Cu1   N2    S    
C29   C30   A    
C18   C25   S    
C16   O11   A    
C10   N2    A    
C4    O8    A    
Cu2   O8    S    
C28   C29   A    
C2    H14   S    
C19   H8    S    
Cu1   Cu2   S    
C14   N2    A    
C30   C31   A    
C1    O1    A    
C17   C21   T    
C5    C15   S    
C27   C29   S    
C10   C11   A    
C30   H5    S    
C13   N1    A    
C6    C22   S    
C16   C17   S    
Cu1   O11   S    
C25   O3    D    
C2    C33   A    
Cu2   O10   S    
C18   C19   D    
C7    H1    S    
C4    O7    A    
C6    C11   A    
Cu1   O7    S    
C8    H10   S    
C26   H3    S    
Cu2   O12   S    
C3    C5    A    
C24   O2    D    
C13   C14   A    
C14   H12   S    
C22   O13   D    
C15   O9    A    
C22   H9    S    
C31   C32   A    
C32   C33   A    
C27   H4    S    
C8    C9    A    
C5    C31   A    
