data_mof_unit_849.cif
_audit_creation_date              2012-12-10T18:47:45-0500
_audit_creation_method            fapswitch 2.2
_symmetry_space_group_name_H-M    P1
_symmetry_Int_Tables_number       1
_space_group_crystal_system       triclinic
_cell_length_a                    9.931116
_cell_length_b                    10.677623
_cell_length_c                    15.492754
_cell_angle_alpha                 91.736934
_cell_angle_beta                  68.705193
_cell_angle_gamma                 91.170945
_cell_volume                      1529.9131172

loop_
_atom_site_label
_atom_site_type_symbol
_atom_type_description
_atom_site_fract_x
_atom_site_fract_y
_atom_site_fract_z
_atom_type_partial_charge
C1    C     C_R   0.500437 0.739801 0.501018 0.865027
C2    C     C_R   0.499379 0.260180 0.499463 0.865650
C3    C     C_R   0.357149 0.360597 0.086853 -0.234430
C4    C     C_R   0.685598 0.459007 0.891778 -0.231584
C5    C     C_R   0.256629 0.346442 0.043807 -0.240375
C6    C     C_R   0.786006 0.475082 0.934469 -0.246199
C7    C     C_R   0.631964 0.936875 0.466028 -0.201759
C8    C     C_R   0.367927 0.063138 0.536625 -0.198774
C9    C     C_R   0.631068 0.065124 0.464201 -0.182460
C10   C     C_R   0.368750 0.934839 0.537978 -0.181038
C11   C     C_R   0.498983 0.127577 0.499324 -0.008773
C12   C     C_R   0.500751 0.872398 0.502340 -0.010887
C13   C     C_R   0.949416 0.407730 0.455039 -0.105694
C14   C     C_R   0.051253 0.593573 0.543391 -0.107306
C15   C     C_R   0.093275 0.405606 0.454534 0.200281
C16   C     C_R   0.905981 0.592631 0.547135 0.211796
C17   C     C_R   0.409964 0.497779 0.675510 0.865375
C18   C     C_R   0.590238 0.497838 0.324430 0.870989
C19   C     C_R   0.357696 0.474387 0.774534 -0.052751
C20   C     C_R   0.646206 0.485850 0.223607 -0.057899
C21   C     C_R   0.187040 0.379270 0.911379 -0.226278
C22   C     C_R   0.838925 0.503238 0.074455 -0.219182
C23   C     C_R   0.221323 0.421233 0.821345 -0.204920
C24   C     C_R   0.791739 0.509537 0.170782 -0.196976
C25   C     C_R   0.457514 0.486674 0.818236 -0.257879
C26   C     C_R   0.550541 0.449495 0.180149 -0.267981
C27   C     C_R   0.430424 0.435405 0.904558 0.097297
C28   C     C_R   0.595756 0.440229 0.083785 0.098810
C29   C     C_R   0.290525 0.386801 0.953626 0.179354
C30   C     C_R   0.741271 0.471761 0.030555 0.179159
C31   C     C_R   0.538000 0.435852 0.944267 0.072079
C32   C     C_R   0.496581 0.411294 0.039400 0.069394
H1    H     H_    0.150971 0.306966 0.082054 0.150781
H2    H     H_    0.897573 0.495531 0.892473 0.148426
H3    H     H_    0.438650 0.435147 0.222703 0.158702
H4    H     H_    0.557554 0.536138 0.783097 0.161418
H5    H     H_    0.867628 0.536638 0.203700 0.160923
H6    H     H_    0.143530 0.408835 0.787603 0.155659
H7    H     H_    0.081231 0.338465 0.947094 0.144619
H8    H     H_    0.950266 0.527236 0.034453 0.149223
H9    H     H_    0.325120 0.327213 0.156389 0.155593
H10   H     H_    0.726458 0.461873 0.817130 0.150736
H11   H     H_    0.734113 0.888343 0.437692 0.149203
H12   H     H_    0.265961 0.111650 0.565948 0.143777
H13   H     H_    0.732970 0.115199 0.434879 0.144661
H14   H     H_    0.266903 0.884692 0.567320 0.144074
H15   H     H_    0.908434 0.335006 0.421086 0.163055
H16   H     H_    0.091267 0.668036 0.576628 0.156668
N1    N     N_R   0.142780 0.500030 0.500020 -0.127683
N2    N     N_R   0.857220 0.499970 0.499980 -0.127054
O1    O     O_R   0.385370 0.683250 0.500010 -0.618258
O2    O     O_R   0.614630 0.316750 0.499990 -0.619454
O3    O     O_R   0.614700 0.683220 0.500000 -0.647632
O4    O     O_R   0.385300 0.316780 0.500000 -0.649269
O5    O     O_R   0.319830 0.500020 0.632250 -0.613014
O6    O     O_R   0.680170 0.499980 0.367750 -0.613145
O7    O     O_R   0.549160 0.499990 0.632240 -0.627120
O8    O     O_R   0.450840 0.500010 0.367760 -0.627748
Zn1   Zn    Zn3+2 0.346870 0.500020 0.500000 0.924936
Zn2   Zn    Zn3+2 0.653130 0.499980 0.500000 0.927195
C33   C     C_3   0.188218 0.294892 0.407842 -0.344636
C34   C     C_3   0.143369 0.218399 0.337154 -1.009168
H17   H     H_    0.046383 0.159826 0.372841 0.263624
H18   H     H_    0.120997 0.280918 0.288088 0.263872
H19   H     H_    0.232184 0.154302 0.296971 0.271491
H20   H     H_    0.299147 0.328009 0.369879 0.250404
H21   H     H_    0.188138 0.229934 0.462236 0.220598
C35   C     C_3   0.809464 0.697981 0.602154 -0.374156
C36   C     C_3   0.825940 0.729899 0.694995 -0.962242
H22   H     H_    0.830131 0.643300 0.731653 0.265156
H23   H     H_    0.924909 0.787097 0.684632 0.257950
H24   H     H_    0.732197 0.786042 0.739630 0.265881
H25   H     H_    0.832411 0.783235 0.559606 0.199482
H26   H     H_    0.695584 0.672966 0.620310 0.270406

loop_
_geom_bond_atom_site_label_1
_geom_bond_atom_site_label_2
_ccdc_geom_bond_type
C21   C29   A    
C10   H14   S    
C36   H24   S    
C27   C31   A    
C9    H13   S    
C34   H17   S    
C16   C35   S    
C14   C16   A    
C7    H11   S    
C27   C29   A    
C23   H6    S    
C9    C11   A    
C33   H21   S    
C5    C29   A    
C31   C32   A    
N1    Zn1   S    
C13   C15   A    
C18   O6    A    
C3    C5    A    
C36   H22   S    
C22   H8    S    
C4    H10   S    
C28   C30   A    
C24   H5    S    
C15   C33   S    
N2    Zn2   S    
C22   C30   A    
C1    O1    A    
C8    H12   S    
C33   C34   S    
C1    C12   S    
C2    O2    A    
C8    C11   A    
C34   H18   S    
C2    C11   S    
C10   C12   A    
C4    C6    A    
C17   C19   S    
O3    Zn2   S    
C16   N2    A    
O5    Zn1   S    
O4    Zn1   S    
C15   N1    A    
C21   C23   A    
C3    C32   A    
C19   C25   A    
C22   C24   A    
C7    C12   A    
O8    Zn1   S    
C4    C31   A    
O1    Zn1   S    
C17   O5    A    
C25   H4    S    
C35   H26   S    
C13   N2    A    
C14   N1    A    
C20   C24   A    
C26   H3    S    
C28   C32   A    
O6    Zn2   S    
C18   C20   S    
C13   H15   S    
C2    O4    A    
C7    C9    A    
C1    O3    A    
C19   C23   A    
C3    H9    S    
O7    Zn2   S    
C14   H16   S    
C21   H7    S    
O2    Zn2   S    
C34   H19   S    
C6    C30   A    
C35   H25   S    
C35   C36   S    
C26   C28   A    
C33   H20   S    
C18   O8    A    
C8    C10   A    
C6    H2    S    
C17   O7    A    
C36   H23   S    
C20   C26   A    
C25   C27   A    
C5    H1    S    
