data_mof_unit_3368.cif
_audit_creation_date              2012-12-10T17:53:13-0500
_audit_creation_method            fapswitch 2.2
_symmetry_space_group_name_H-M    P1
_symmetry_Int_Tables_number       1
_space_group_crystal_system       triclinic
_cell_length_a                    23.338328
_cell_length_b                    10.666402
_cell_length_c                    10.058603
_cell_angle_alpha                 89.309382
_cell_angle_beta                  89.128279
_cell_angle_gamma                 91.786739
_cell_volume                      2502.24459895

loop_
_atom_site_label
_atom_site_type_symbol
_atom_type_description
_atom_site_fract_x
_atom_site_fract_y
_atom_site_fract_z
_atom_type_partial_charge
C1    C     C_R   0.505980 0.260675 0.499779 0.861649
C2    C     C_R   0.122022 0.495345 0.372436 0.530223
C3    C     C_R   0.235422 0.587033 0.517153 0.228369
C4    C     C_R   0.389991 0.498607 0.500776 0.800168
C5    C     C_R   0.295694 0.598372 0.517593 -0.116559
C6    C     C_R   0.327874 0.489051 0.501773 -0.192220
C7    C     C_R   0.300776 0.371128 0.478744 -0.067254
C8    C     C_R   0.241230 0.363527 0.473290 -0.070879
C9    C     C_R   0.209035 0.469593 0.492727 0.181335
C10   C     C_R   0.764630 0.527307 0.592616 -0.081191
C11   C     C_R   0.705536 0.539581 0.596490 -0.198939
C12   C     C_R   0.967547 0.347779 0.699076 -0.131475
C13   C     C_R   0.672047 0.487104 0.495843 -0.045814
C14   C     C_R   0.697723 0.420044 0.393050 -0.192604
C15   C     C_R   0.756567 0.405241 0.391096 -0.078182
C16   C     C_R   0.492290 0.738224 0.499186 0.891782
C17   C     C_R   0.790285 0.459900 0.490030 0.285077
C18   C     C_R   0.528309 0.101274 0.737436 -0.132086
C19   C     C_R   0.514924 0.035690 0.854709 0.051129
C20   C     C_R   0.470760 0.943519 0.853437 -0.036603
C21   C     C_R   0.457986 0.886579 0.733446 -0.085295
C22   C     C_R   0.481577 0.937279 0.615072 0.043923
C23   C     C_R   0.027065 0.351550 0.700220 -0.112861
C24   C     C_R   0.506419 0.057439 0.616685 0.052772
C25   C     C_R   0.511836 0.125182 0.497010 -0.112566
C26   C     C_R   0.506744 0.062418 0.374383 -0.113653
C27   C     C_R   0.486893 0.937951 0.374636 -0.073115
C28   C     C_R   0.610242 0.498583 0.498960 0.895367
C29   C     C_R   0.481260 0.872104 0.495929 -0.133684
C30   C     C_R   0.423327 0.339559 0.142659 -0.135526
C31   C     C_R   0.386286 0.258479 0.075820 -0.307262
C32   C     C_R   0.386536 0.256396 0.937575 -0.025836
C33   C     C_R   0.424040 0.338139 0.866118 -0.122650
C34   C     C_R   0.058617 0.402500 0.591507 -0.019761
C35   C     C_R   0.461985 0.421771 0.930536 0.133324
C36   C     C_R   0.461739 0.422352 0.074084 0.182844
C37   C     C_R   0.539030 0.569855 0.066487 0.030173
C38   C     C_R   0.537876 0.570458 0.924836 -0.159038
C39   C     C_R   0.880812 0.498700 0.375792 0.521317
C40   C     C_R   0.878652 0.397373 0.589017 0.517227
C41   C     C_R   0.938504 0.396238 0.589859 -0.018574
C42   C     C_R   0.969775 0.446742 0.479530 -0.012773
C43   C     C_R   0.940674 0.495964 0.370517 -0.054455
C44   C     C_2   0.523833 0.124134 0.246569 0.489457
C45   C     C_R   0.030111 0.449349 0.479298 -0.007781
C46   C     C_2   0.431192 0.924394 0.966904 0.433195
C47   C     C_2   0.471258 0.876776 0.249271 0.474128
C48   C     C_2   0.587583 0.641998 0.123779 0.453924
C49   C     C_2   0.347926 0.166304 0.869291 0.440446
C50   C     C_2   0.060272 0.617133 0.144112 0.510296
C51   C     C_2   0.325910 0.722486 0.531009 0.556466
C52   C     C_2   0.334043 0.255603 0.459582 0.513635
C53   C     C_R   0.061710 0.499565 0.368181 -0.101468
C54   C     C_R   0.031657 0.550058 0.258402 -0.037367
C55   C     C_R   0.971641 0.545509 0.260804 -0.123593
C56   C     C_R   0.118264 0.409893 0.593419 0.552989
H1    H     H_    0.944435 0.308512 0.784833 0.200403
H2    H     H_    0.423405 0.333228 0.760416 0.227771
H3    H     H_    0.568798 0.627968 0.868127 0.150750
H4    H     H_    0.948964 0.585405 0.177883 0.221456
H5    H     H_    0.219122 0.274746 0.454743 0.196695
H6    H     H_    0.790589 0.570758 0.668701 0.161689
H7    H     H_    0.496802 0.114663 0.160589 0.022443
H8    H     H_    0.429559 0.994700 0.043397 0.037907
H9    H     H_    0.500126 0.883673 0.164371 0.065864
H10   H     H_    0.627939 0.649765 0.068688 0.054151
H11   H     H_    0.318010 0.106688 0.926885 0.109523
H12   H     H_    0.686136 0.591587 0.676385 0.161528
H13   H     H_    0.098496 0.675462 0.157956 0.134893
H14   H     H_    0.368288 0.728051 0.572720 0.007791
H15   H     H_    0.380100 0.257195 0.471946 0.038264
H16   H     H_    0.672186 0.377386 0.315645 0.192188
H17   H     H_    0.776099 0.352234 0.312223 0.167136
H18   H     H_    0.560914 0.175810 0.738052 0.181941
H19   H     H_    0.428081 0.807100 0.731669 0.178436
H20   H     H_    0.048243 0.314916 0.786873 0.204576
H21   H     H_    0.421891 0.332228 0.248237 0.191363
H22   H     H_    0.357925 0.195197 0.132907 0.184530
I1    I     I_    0.585753 0.011070 0.978677 -0.348527
I2    I     I_    0.181877 0.740410 0.564229 -0.161025
N1    N     N_R   0.851201 0.450400 0.484202 -0.355451
N2    N     N_R   0.148214 0.457353 0.485923 -0.342881
N3    N     N_R   0.499460 0.498800 0.142780 -0.115434
N4    N     N_R   0.499440 0.498720 0.857170 -0.119047
O1    O     O_R   0.500000 0.316780 0.614690 -0.650619
O2    O     O_R   0.583850 0.500050 0.614640 -0.624069
O3    O     O_R   0.583840 0.500030 0.385310 -0.570752
O4    O     O_2   0.852409 0.551751 0.274726 -0.546121
O5    O     O_2   0.568688 0.186081 0.237025 -0.529796
O6    O     O_2   0.397694 0.834093 0.972715 -0.504904
O7    O     O_2   0.426460 0.814935 0.242436 -0.496162
O8    O     O_2   0.583130 0.700067 0.226319 -0.529245
O9    O     O_2   0.349414 0.156263 0.748552 -0.558630
O10   O     O_2   0.040091 0.611134 0.032948 -0.549326
O11   O     O_2   0.305420 0.818954 0.489479 -0.466224
O12   O     O_2   0.848027 0.346272 0.692098 -0.542219
O13   O     O_2   0.310270 0.156355 0.430183 -0.505545
O14   O     O_2   0.146393 0.370867 0.701917 -0.520162
O15   O     O_2   0.154792 0.526815 0.264963 -0.547509
O16   O     O_R   0.500000 0.316750 0.385360 -0.628204
O17   O     O_R   0.416160 0.499970 0.614690 -0.635414
O18   O     O_R   0.416150 0.499950 0.385360 -0.612670
O19   O     O_R   0.500000 0.683250 0.614640 -0.628317
O20   O     O_R   0.500000 0.683220 0.385310 -0.526752
Zn1   Zn    Zn3+2 0.500000 0.500020 0.653130 0.954541
Zn2   Zn    Zn3+2 0.500000 0.499980 0.346870 1.039014

loop_
_geom_bond_atom_site_label_1
_geom_bond_atom_site_label_2
_ccdc_geom_bond_type
C34   C56   A    
C33   H2    S    
C22   C29   A    
C27   C29   A    
C41   C42   A    
C19   C20   A    
C56   O14   S    
C23   H20   S    
O20   Zn2   S    
C26   C44   S    
C7    C8    A    
C53   C54   A    
C12   C23   A    
C26   C27   A    
C12   C41   A    
C18   C24   A    
C50   H13   S    
C7    C52   S    
C30   C31   A    
C10   C17   A    
C52   O13   D    
C18   C19   A    
C30   H21   S    
C16   O20   A    
C35   C36   A    
C8    C9    A    
C4    O18   A    
C13   C28   S    
C51   H14   S    
C8    H5    S    
C55   H4    S    
C45   C53   A    
C18   H18   S    
C13   C14   A    
C1    C25   S    
C10   H6    S    
C47   O7    D    
C39   O4    S    
C40   O12   S    
O1    Zn1   S    
C3    I2    S    
C1    O16   A    
C44   H7    S    
C1    O1    A    
O17   Zn1   S    
C24   C25   A    
C39   N1    A    
C4    C6    S    
C50   O10   D    
C39   C43   A    
C16   C29   S    
C46   H8    S    
C42   C45   A    
C37   C38   A    
C3    C9    A    
C16   O19   A    
C31   C32   A    
C23   C34   A    
C4    O17   A    
C28   O3    A    
N4    Zn1   S    
O19   Zn1   S    
C34   C45   A    
C50   C54   S    
C37   C48   S    
C19   I1    S    
C12   H1    S    
C43   C55   A    
C40   C41   A    
C15   H17   S    
C2    O15   S    
C28   O2    A    
C22   C24   A    
C2    N2    A    
O2    Zn1   S    
C42   C43   A    
C11   H12   S    
C31   H22   S    
C27   C47   S    
C15   C17   A    
C21   H19   S    
C54   C55   A    
C49   H11   S    
C38   N4    A    
C14   H16   S    
C40   N1    A    
C37   N3    A    
C3    C5    A    
C2    C53   A    
C35   N4    A    
C56   N2    A    
C6    C7    A    
C46   O6    D    
C9    N2    S    
O16   Zn2   S    
N3    Zn2   S    
C30   C36   A    
C48   H10   S    
C32   C33   A    
C25   C26   A    
C52   H15   S    
C11   C13   A    
C5    C6    A    
O3    Zn2   S    
C33   C35   A    
O18   Zn2   S    
C17   N1    S    
C32   C49   S    
C10   C11   A    
C38   H3    S    
C20   C21   A    
C48   O8    D    
C14   C15   A    
C5    C51   S    
C36   N3    A    
C49   O9    D    
C21   C22   A    
C47   H9    S    
C20   C46   S    
C44   O5    D    
C51   O11   D    
