data_mof_unit_4313.cif
_audit_creation_date              2012-12-10T20:49:10-0500
_audit_creation_method            fapswitch 2.2
_symmetry_space_group_name_H-M    P1
_symmetry_Int_Tables_number       1
_space_group_crystal_system       triclinic
_cell_length_a                    8.922233
_cell_length_b                    8.124863
_cell_length_c                    10.587878
_cell_angle_alpha                 89.685725
_cell_angle_beta                  89.920129
_cell_angle_gamma                 90.023108
_cell_volume                      767.523256354

loop_
_atom_site_label
_atom_site_type_symbol
_atom_type_description
_atom_site_fract_x
_atom_site_fract_y
_atom_site_fract_z
_atom_type_partial_charge
C1    C     C_R   0.218089 0.499975 0.499708 0.960785
C2    C     C_3   0.636940 0.452045 0.040950 -0.254267
C3    C     C_3   0.498074 0.498449 0.876302 -0.173875
C4    C     C_3   0.501926 0.501551 0.123698 -0.173876
C5    C     C_1   0.065230 0.499962 0.499878 -0.100803
C6    C     C_1   0.934770 0.500038 0.500122 -0.100802
C7    C     C_2   0.209565 0.600106 0.918029 0.453951
C8    C     C_2   0.790434 0.399894 0.081971 0.453954
C9    C     C_R   0.781911 0.500025 0.500292 0.960785
C10   C     C_R   0.499758 0.500554 0.257251 1.019788
C11   C     C_R   0.500242 0.499446 0.742749 1.019789
C12   C     C_3   0.470569 0.651850 0.039301 0.332282
C13   C     C_3   0.529431 0.348150 0.960699 0.332282
C14   C     C_3   0.604250 0.602733 0.956863 0.307707
C15   C     C_3   0.395750 0.397267 0.043137 0.307705
C16   C     C_3   0.363060 0.547955 0.959050 -0.254268
H1    H     H_    0.126030 0.630846 0.988567 0.096458
H2    H     H_    0.873970 0.369154 0.011433 0.096459
H3    H     H_    0.415650 0.876194 0.007766 0.361808
H4    H     H_    0.584345 0.123804 0.992234 0.361811
H5    H     H_    0.759646 0.762019 0.981900 0.352183
H6    H     H_    0.240354 0.237981 0.018100 0.352183
N1    N     N_1   0.500000 0.073640 0.500000 0.001749
N2    N     N_1   0.500000 0.926360 0.500000 0.001749
O1    O     O_R   0.285350 0.636850 0.500000 -0.610538
O2    O     O_2   0.822462 0.392057 0.193785 -0.577860
O3    O     O_3   0.442493 0.810692 0.083644 -0.718242
O4    O     O_3   0.557507 0.189308 0.916356 -0.718243
O5    O     O_3   0.711123 0.711412 0.907442 -0.721721
O6    O     O_3   0.288877 0.288587 0.092558 -0.721722
O7    O     O_R   0.714650 0.363150 0.500000 -0.610538
O8    O     O_R   0.714650 0.636850 0.500000 -0.622063
O9    O     O_R   0.285350 0.363150 0.500000 -0.622063
O10   O     O_R   0.499970 0.636850 0.313950 -0.600377
O11   O     O_R   0.500030 0.363150 0.686050 -0.600377
O12   O     O_R   0.500030 0.636850 0.686050 -0.586613
O13   O     O_R   0.499970 0.363150 0.313950 -0.586613
O14   O     O_2   0.177538 0.607942 0.806215 -0.577860
Zn1   Zn    Zn3+2 0.500000 0.682780 0.500000 1.079646
Zn2   Zn    Zn3+2 0.500000 0.317220 0.500000 1.079646

loop_
_geom_bond_atom_site_label_1
_geom_bond_atom_site_label_2
_ccdc_geom_bond_type
N1    Zn2   S    
C2    C4    S    
N1    N2    T    
C13   O4    S    
C4    C12   S    
H3    O3    S    
C3    C13   S    
C6    C9    S    
C11   O11   A    
O11   Zn2   S    
C1    O9    A    
C10   O10   A    
H6    O6    S    
O1    Zn1   S    
C1    O1    A    
C3    C14   S    
C4    C15   S    
C10   O13   A    
C1    C5    S    
C11   O12   A    
C7    O14   D    
C12   C14   S    
O13   Zn2   S    
C13   C15   S    
C5    C6    T    
C2    C14   S    
C2    C8    S    
O9    Zn2   S    
C3    C11   S    
C9    O7    A    
C14   O5    S    
C4    C10   S    
C15   C16   S    
N2    Zn1   S    
C8    O2    D    
O7    Zn2   S    
C15   O6    S    
O8    Zn1   S    
C2    C13   S    
C12   O3    S    
C7    C16   S    
H4    O4    S    
C9    O8    A    
H5    O5    S    
O10   Zn1   S    
O12   Zn1   S    
C8    H2    S    
C3    C16   S    
C12   C16   S    
C7    H1    S    
