data_mof_unit_1459.cif
_audit_creation_date              2013-03-05T15:46:34-0500
_audit_creation_method            fapswitch 2.2
_symmetry_space_group_name_H-M    P1
_symmetry_Int_Tables_number       1
_space_group_crystal_system       triclinic
_cell_length_a                    10.239739
_cell_length_b                    10.647124
_cell_length_c                    10.778224
_cell_angle_alpha                 92.780032
_cell_angle_beta                  95.116547
_cell_angle_gamma                 77.818697
_cell_volume                      1143.51667284

loop_
_atom_site_label
_atom_site_type_symbol
_atom_site_description
_atom_site_fract_x
_atom_site_fract_y
_atom_site_fract_z
_atom_type_partial_charge
O1    O     O_R   0.568940 0.489660 0.307530 -0.565456
O2    O     O_R   0.431060 0.510340 0.692470 -0.592477
O3    O     O_R   0.348880 0.522640 0.340350 -0.550972
O4    O     O_R   0.651120 0.477360 0.659650 -0.556227
C1    C     C_R   0.445831 0.512886 0.266878 0.874275
C2    C     C_R   0.555130 0.493593 0.732724 0.872493
O5    O     O_R   0.610030 0.300280 0.483580 -0.568497
O6    O     O_R   0.389970 0.699720 0.516420 -0.578510
O7    O     O_R   0.389970 0.333270 0.516400 -0.584235
O8    O     O_R   0.610030 0.666730 0.483600 -0.565717
C3    C     C_R   0.504381 0.258897 0.494316 0.859542
C4    C     C_R   0.493179 0.742120 0.498937 0.864416
Zn1   Zn    Zn3+2 0.646940 0.477980 0.478080 1.113777
Zn2   Zn    Zn3+2 0.353060 0.522020 0.521920 1.092539
H1    H     H_    0.376787 0.167039 0.893006 0.195212
H2    H     H_    0.507261 0.868214 0.065034 0.204180
C5    C     C_R   0.596983 0.085879 0.278945 0.293575
C6    C     C_R   0.324441 0.946714 0.663650 0.342137
C7    C     C_R   0.577707 0.023582 0.163273 -0.159250
C8    C     C_R   0.312693 0.017649 0.777232 -0.138973
C9    C     C_R   0.521257 0.915747 0.154616 -0.124725
C10   C     C_R   0.386655 0.112291 0.805796 -0.180729
C11   C     C_R   0.491675 0.864152 0.262257 -0.067044
C12   C     C_R   0.461424 0.145917 0.715923 -0.093412
C13   C     C_R   0.505830 0.927593 0.378588 0.058783
C14   C     C_R   0.472410 0.076453 0.600781 0.044710
C15   C     C_R   0.544201 0.046681 0.385989 -0.031720
C16   C     C_R   0.423887 0.963655 0.585167 -0.044103
C17   C     C_R   0.469052 0.879646 0.485583 -0.112621
C18   C     C_R   0.520836 0.122476 0.497534 -0.110044
H3    H     H_    0.613578 0.054321 0.080603 0.200205
H4    H     H_    0.240248 0.005370 0.840472 0.222669
H5    H     H_    0.450581 0.778329 0.253715 0.129899
H6    H     H_    0.508033 0.227788 0.735332 0.147670
C19   C     C_2   0.422602 0.531422 0.133767 0.041483
C20   C     C_2   0.584632 0.490871 0.865304 0.073167
C21   C     C_2   0.520187 0.563141 0.070726 0.188739
C22   C     C_2   0.502946 0.572236 0.937971 0.179701
N1    N     N_2   0.157300 0.551390 0.551120 -0.172756
N2    N     N_2   0.842700 0.448610 0.448880 -0.164751
C23   C     C_2   0.073234 0.490679 0.487072 0.249165
C24   C     C_2   0.926876 0.508917 0.513292 0.246188
H7    H     H_    0.877428 0.387263 0.377042 0.248122
H8    H     H_    0.122497 0.612569 0.622978 0.245481
N3    N     N_R   0.691641 0.168123 0.289021 0.214510
O9    O     O_R   0.691592 0.247328 0.200879 -0.346400
O10   O     O_R   0.797454 0.140050 0.367004 -0.315412
N4    N     N_R   0.215623 0.886567 0.616527 0.231545
O11   O     O_R   0.175529 0.892102 0.498439 -0.327358
O12   O     O_R   0.136916 0.855166 0.692698 -0.329032
Br1   Br    Br    0.369559 0.715980 0.877828 -0.460137
Br2   Br    Br    0.687690 0.607241 0.140829 -0.362889
Br3   Br    Br    0.726042 0.353738 0.927740 -0.321459
Br4   Br    Br    0.259533 0.493967 0.051586 -0.326385
Br5   Br    Br    0.864514 0.625718 0.647696 -0.340058
Br6   Br    Br    0.135820 0.372801 0.353565 -0.342831

loop_
_geom_bond_atom_site_label_1
_geom_bond_atom_site_label_2
_geom_bond_distance
_ccdc_geom_bond_type
O7    Zn2   1.963908 S    
C23   Br6   1.925204 S    
H2    C9    1.080487 S    
C20   Br3   1.926310 S    
C4    C17   1.444723 S    
C13   C15   1.401169 A    
C23   C24   1.520196 S    
C14   C16   1.390990 A    
O6    C4    1.265432 A    
C7    H3    1.083220 S    
N2    H7    1.026958 S    
N4    O12   1.301423 A    
O2    Zn2   1.936711 S    
N1    C23   1.311830 D    
O2    C2    1.283609 A    
N3    O9    1.300435 A    
C19   Br4   1.927362 S    
O5    C3    1.267395 A    
O7    C3    1.302360 A    
N1    H8    1.026390 S    
O3    Zn2   1.953950 S    
O8    C4    1.311634 A    
O1    C1    1.273847 A    
C1    C19   1.449374 S    
N2    C24   1.311786 D    
N4    O11   1.302257 A    
C19   C21   1.363821 D    
C21   C22   1.431465 S    
C2    C20   1.434366 S    
C14   C18   1.406497 A    
C6    C8    1.407768 A    
C11   C13   1.405739 A    
C9    C11   1.390783 A    
C13   C17   1.395734 A    
C24   Br5   1.925615 S    
C10   C12   1.390786 A    
O1    Zn1   1.936710 S    
C8    C10   1.390728 A    
C5    C7    1.401575 A    
C20   C22   1.344914 D    
C5    C15   1.431968 A    
O3    C1    1.308507 A    
O5    Zn1   2.010634 S    
C6    C16   1.425121 A    
O4    C2    1.292094 A    
C8    H4    1.082473 S    
N3    O10   1.301936 A    
O4    Zn1   1.953951 S    
C21   Br2   1.951290 S    
C16   C17   1.409548 A    
Zn1   N2    2.013313 S    
O6    Zn2   2.010635 S    
C22   Br1   1.919428 S    
C11   H5    1.080610 S    
Zn2   N1    2.013315 S    
C7    C9    1.386032 A    
H1    C10   1.082806 S    
C12   H6    1.082343 S    
C12   C14   1.414399 A    
C3    C18   1.428248 S    
C5    N3    1.431174 S    
C15   C18   1.424648 A    
O8    Zn1   1.963909 S    
C6    N4    1.441627 S    
