data_mof_unit_3867.cif
_audit_creation_date              2013-03-05T15:49:31-0500
_audit_creation_method            fapswitch 2.2
_symmetry_space_group_name_H-M    P1
_symmetry_Int_Tables_number       1
_space_group_crystal_system       triclinic
_cell_length_a                    10.643567
_cell_length_b                    12.014373
_cell_length_c                    12.872449
_cell_angle_alpha                 94.896186
_cell_angle_beta                  91.567437
_cell_angle_gamma                 87.00196
_cell_volume                      1637.38978362

loop_
_atom_site_label
_atom_site_type_symbol
_atom_site_description
_atom_site_fract_x
_atom_site_fract_y
_atom_site_fract_z
_atom_type_partial_charge
O1    O     O_R   0.506170 0.421700 0.658830 -0.601745
O2    O     O_R   0.493830 0.578300 0.341170 -0.605930
O3    O     O_R   0.491330 0.609310 0.646410 -0.595605
O4    O     O_R   0.508670 0.390690 0.353590 -0.610615
C1    C     C_R   0.484762 0.523064 0.700004 0.888911
C2    C     C_R   0.511725 0.476488 0.299582 0.882217
O5    O     O_R   0.690650 0.406190 0.506220 -0.621378
O6    O     O_R   0.309350 0.593810 0.493780 -0.615630
O7    O     O_R   0.675800 0.593810 0.493800 -0.667558
O8    O     O_R   0.324200 0.406190 0.506200 -0.656280
C3    C     C_R   0.739402 0.498301 0.485731 0.874130
C4    C     C_R   0.260881 0.501974 0.515031 0.879356
Zn1   Zn    Zn3+2 0.509910 0.374730 0.508290 0.967399
Zn2   Zn    Zn3+2 0.490090 0.625270 0.491710 0.965353
H1    H     H_    0.879523 0.876589 0.434242 0.149732
H2    H     H_    0.111373 0.130910 0.590950 0.148204
C5    C     C_R   0.900200 0.288304 0.457347 -0.104749
C6    C     C_R   0.100306 0.712616 0.550843 -0.098805
C7    C     C_R   0.959183 0.193423 0.495764 -0.115213
C8    C     C_R   0.036733 0.809670 0.521187 -0.137520
C9    C     C_R   0.066956 0.203749 0.558493 -0.061270
C10   C     C_R   0.926724 0.801916 0.461034 -0.158035
C11   C     C_R   0.122151 0.306796 0.573838 -0.111067
C12   C     C_R   0.875725 0.697996 0.437473 -0.146702
C13   C     C_R   0.066070 0.402633 0.531015 0.079389
C14   C     C_R   0.933901 0.599790 0.474966 0.083608
C15   C     C_R   0.946259 0.395867 0.484605 0.076985
C16   C     C_R   0.054392 0.605735 0.520471 0.079170
C17   C     C_R   0.125793 0.504903 0.533405 -0.243017
C18   C     C_R   0.874942 0.496509 0.469899 -0.240833
H3    H     H_    0.817998 0.276932 0.406944 0.185591
H4    H     H_    0.184777 0.721969 0.598539 0.204198
H5    H     H_    0.920243 0.112315 0.478096 0.133106
H6    H     H_    0.074333 0.890603 0.543005 0.151738
H7    H     H_    0.207893 0.310857 0.620238 0.144569
H8    H     H_    0.791449 0.695396 0.388801 0.161616
C19   C     C_R   0.527552 0.459002 0.186927 -0.267760
C20   C     C_R   0.461263 0.538532 0.812104 -0.261775
C21   C     C_R   0.504718 0.647172 0.973287 -0.215790
C22   C     C_R   0.476504 0.350684 0.026863 -0.203715
C23   C     C_R   0.471065 0.643892 0.868179 0.281667
C24   C     C_R   0.503781 0.354827 0.132701 0.295828
C25   C     C_R   0.446217 0.442973 0.866309 -0.072158
C26   C     C_R   0.547708 0.552672 0.131594 -0.073168
C27   C     C_R   0.476844 0.447206 0.972925 0.039596
C28   C     C_R   0.512662 0.549376 0.025753 0.046145
H9    H     H_    0.518507 0.727791 0.014150 0.240912
H10   H     H_    0.455922 0.270349 0.987837 0.232243
N1    N     N_R   0.523130 0.207800 0.519340 -0.148617
N2    N     N_R   0.476870 0.792200 0.480660 -0.149049
C29   C     C_R   0.386077 0.947407 0.397542 -0.208528
C30   C     C_R   0.628097 0.050734 0.589684 -0.223804
C31   C     C_R   0.398554 0.833017 0.406975 0.047145
C32   C     C_R   0.615580 0.165147 0.580659 0.055734
C33   C     C_R   0.548630 0.861254 0.546433 0.055087
C34   C     C_R   0.442528 0.140044 0.460854 0.066053
C35   C     C_R   0.544223 0.977903 0.535214 0.061185
C36   C     C_R   0.455461 0.022215 0.464446 0.053428
H11   H     H_    0.679971 0.220490 0.622692 0.156167
H12   H     H_    0.345103 0.776241 0.355521 0.167202
H13   H     H_    0.325032 0.974687 0.335390 0.218833
H14   H     H_    0.706249 0.020962 0.636742 0.188969
C37   C     C_2   0.615225 0.648468 0.183690 0.457168
H15   H     H_    0.707706 0.632843 0.218486 0.038285
O9    O     O_2   0.565271 0.742423 0.194473 -0.556882
C38   C     C_2   0.388216 0.343171 0.812590 0.460553
H16   H     H_    0.293261 0.351655 0.780965 0.028114
O10   O     O_2   0.447684 0.253516 0.799836 -0.534248
N3    N     N_R   0.510894 0.251940 0.182371 0.205378
O11   O     O_R   0.429760 0.176281 0.156981 -0.380346
O12   O     O_R   0.612986 0.223735 0.233824 -0.388695
N4    N     N_R   0.436399 0.747106 0.822959 0.239628
O13   O     O_R   0.473149 0.841431 0.867951 -0.296939
O14   O     O_R   0.342719 0.750480 0.756062 -0.407598
C39   C     C_2   0.341525 0.191288 0.395898 0.488758
H17   H     H_    0.356198 0.264735 0.357159 0.153343
O15   O     O_2   0.237594 0.152980 0.386250 -0.605032
C40   C     C_2   0.625311 0.814031 0.631974 0.449213
H18   H     H_    0.668990 0.731706 0.623552 0.122950
O16   O     O_2   0.638608 0.866910 0.716370 -0.518799

loop_
_geom_bond_atom_site_label_1
_geom_bond_atom_site_label_2
_geom_bond_distance
_ccdc_geom_bond_type
C38   O10   1.221482 D    
C37   O9    1.220933 D    
H2    C9    1.082685 S    
C4    C17   1.461636 S    
C29   H13   1.078753 S    
C39   H17   1.070285 S    
C21   C23   1.387915 A    
C27   C28   1.416627 A    
O5    C3    1.296489 A    
C12   H8    1.080253 S    
O1    C1    1.297430 A    
C16   C17   1.415644 A    
C7    C9    1.389370 A    
C12   C14   1.418765 A    
C40   O16   1.219452 D    
N1    C32   1.351930 A    
C19   C24   1.411403 A    
N3    O12   1.301792 A    
O4    Zn1   2.016424 S    
C39   O15   1.219383 D    
H1    C10   1.082775 S    
C3    C18   1.461257 S    
C26   C28   1.400516 A    
C8    H6    1.082801 S    
C22   C24   1.382460 A    
C38   H16   1.082287 S    
C34   C39   1.484367 S    
C1    C20   1.465762 S    
C15   C18   1.417487 A    
O2    C2    1.299436 A    
C31   H12   1.081893 S    
C30   C32   1.388530 A    
C32   H11   1.081907 S    
C26   C37   1.489690 S    
C13   C17   1.410290 A    
C22   C27   1.401750 A    
N2    C31   1.352167 A    
C5    C15   1.418780 A    
C6    C16   1.417773 A    
C20   C23   1.409955 A    
O4    C2    1.293833 A    
C7    H5    1.082741 S    
C33   C40   1.486442 S    
C40   H18   1.068895 S    
C24   N3    1.437020 S    
C29   C31   1.389120 A    
O7    Zn2   1.992806 S    
O7    C3    1.299230 A    
O6    C4    1.295044 A    
C2    C19   1.460519 S    
C29   C36   1.413282 A    
C25   C27   1.399177 A    
O3    Zn2   2.016425 S    
O8    C4    1.300831 A    
C21   C28   1.402047 A    
Zn1   N1    2.019994 S    
N4    O14   1.300821 A    
C8    C10   1.388776 A    
C14   C18   1.415335 A    
C11   H7    1.077875 S    
C33   C35   1.419311 A    
C5    H3    1.082321 S    
C10   C12   1.393817 A    
O1    Zn1   1.972404 S    
C21   H9    1.077060 S    
C22   H10   1.079466 S    
O6    Zn2   1.981123 S    
N4    O13   1.301774 A    
O3    C1    1.298755 A    
O8    Zn1   1.992805 S    
C13   C15   1.396623 A    
N1    C34   1.377874 A    
C14   C16   1.397947 A    
N2    C33   1.378224 A    
C19   C26   1.410775 A    
C9    C11   1.394594 A    
C20   C25   1.411623 A    
C30   H14   1.079392 S    
C35   C36   1.410293 A    
Zn2   N2    2.019995 S    
C25   C38   1.486458 S    
C5    C7    1.393747 A    
C34   C36   1.419708 A    
C6    C8    1.393756 A    
C11   C13   1.415768 A    
N3    O11   1.301831 A    
O2    Zn2   1.972404 S    
C30   C35   1.413148 A    
C37   H15   1.084279 S    
O5    Zn1   1.981124 S    
C6    H4    1.080046 S    
C23   N4    1.440943 S    
