data_mof_unit_1193.cif
_audit_creation_date              2012-10-26T20:16:41-0400
_audit_creation_method            fapswitch 2.2
_symmetry_space_group_name_H-M    P1
_symmetry_Int_Tables_number       1
_space_group_crystal_system       triclinic
_cell_length_a                    10.915141
_cell_length_b                    10.911525
_cell_length_c                    9.817669
_cell_angle_alpha                 98.74219
_cell_angle_beta                  98.530149
_cell_angle_gamma                 93.00863
_cell_volume                      1139.55125051

loop_
_atom_site_label
_atom_site_type_symbol
_atom_type_description
_atom_site_fract_x
_atom_site_fract_y
_atom_site_fract_z
_atom_type_partial_charge
C1    C     C_R   0.500672 0.262013 0.499287 0.561229
C2    C     C_R   0.669516 0.949931 0.849321 -0.093878
C3    C     C_R   0.449899 0.076666 0.229106 0.055130
C4    C     C_R   0.550104 0.923341 0.770903 0.055123
C5    C     C_R   0.544173 0.133116 0.170929 -0.031534
C6    C     C_R   0.455831 0.866867 0.829059 -0.031532
C7    C     C_R   0.517477 0.167287 0.038678 -0.096855
C8    C     C_R   0.482519 0.832692 0.961310 -0.096859
C9    C     C_R   0.397789 0.141982 0.962165 -0.124661
C10   C     C_R   0.602196 0.858020 0.037845 -0.124663
C11   C     C_R   0.474057 0.915072 0.376148 -0.136573
C12   C     C_R   0.499330 0.737988 0.500714 0.561226
C13   C     C_R   0.525957 0.084931 0.623854 -0.136569
C14   C     C_R   0.498233 0.872239 0.503745 0.010050
C15   C     C_R   0.501776 0.127764 0.496258 0.010056
C16   C     C_R   0.262066 0.500875 0.499567 0.563277
C17   C     C_R   0.737935 0.499123 0.500433 0.563278
C18   C     C_R   0.523569 0.958704 0.630084 -0.027577
C19   C     C_R   0.476444 0.041299 0.369920 -0.027585
C20   C     C_2   0.510163 0.510809 0.078844 -0.037322
C21   C     C_2   0.489834 0.489193 0.921156 -0.037328
C22   C     C_R   0.168259 0.528518 0.040441 -0.077601
C23   C     C_R   0.872148 0.497792 0.503111 0.018852
C24   C     C_R   0.831720 0.471376 0.959525 -0.077565
C25   C     C_R   0.130737 0.554584 0.171461 0.152986
C26   C     C_R   0.869261 0.445346 0.828509 0.152964
C27   C     C_R   0.079018 0.457201 0.229993 0.066571
C28   C     C_R   0.920977 0.542756 0.770010 0.066564
C29   C     C_R   0.062318 0.336167 0.154026 -0.112105
C30   C     C_R   0.937649 0.663782 0.846003 -0.112070
C31   C     C_R   0.098314 0.311758 0.022693 -0.109301
C32   C     C_R   0.901629 0.688156 0.977330 -0.109298
C33   C     C_R   0.152227 0.407326 0.966454 -0.137103
C34   C     C_R   0.127852 0.502204 0.496890 0.018850
C35   C     C_R   0.847728 0.592560 0.033539 -0.137102
C36   C     C_R   0.915699 0.475612 0.375687 -0.142775
C37   C     C_R   0.084301 0.524379 0.624315 -0.142782
C38   C     C_R   0.957928 0.520523 0.629694 -0.003157
C39   C     C_R   0.042072 0.479469 0.370307 -0.003148
C40   C     C_R   0.305112 0.081567 0.017238 -0.122730
C41   C     C_R   0.694866 0.918474 0.982800 -0.122754
C42   C     C_R   0.330469 0.050117 0.150719 -0.093838
Cu1   Cu    Cu3+1 0.521120 0.521140 0.639640 0.956774
Cu2   Cu    Cu3+1 0.478880 0.478860 0.360360 0.956786
H1    H     H_    0.181032 0.387180 0.865192 0.115480
H2    H     H_    0.580062 0.582457 0.134590 0.140263
H3    H     H_    0.618341 0.620452 0.904520 0.226883
H4    H     H_    0.381663 0.379545 0.095479 0.226882
H5    H     H_    0.209320 0.602296 0.995578 0.116236
H6    H     H_    0.790663 0.397577 0.004363 0.116230
H7    H     H_    0.021454 0.260756 0.196718 0.112029
H8    H     H_    0.978504 0.739215 0.803334 0.112034
H9    H     H_    0.083004 0.218862 0.963675 0.134304
H10   H     H_    0.916912 0.781046 0.036368 0.134319
H11   H     H_    0.850939 0.455570 0.278806 0.121959
H12   H     H_    0.818904 0.612682 0.134795 0.115451
H13   H     H_    0.149058 0.544400 0.721196 0.121961
H14   H     H_    0.377034 0.167791 0.859595 0.104318
H15   H     H_    0.622946 0.832202 0.140412 0.104315
H16   H     H_    0.213844 0.058040 0.955997 0.107274
H17   H     H_    0.786123 0.942025 0.044060 0.107277
H18   H     H_    0.257345 0.004696 0.192789 0.139476
H19   H     H_    0.742633 0.995390 0.807278 0.139489
H20   H     H_    0.637431 0.152133 0.228918 0.114092
H21   H     H_    0.362586 0.847822 0.771048 0.114109
H22   H     H_    0.589670 0.212728 0.995236 0.111980
H23   H     H_    0.410333 0.787220 0.004729 0.112007
H24   H     H_    0.453407 0.849698 0.279469 0.145112
H25   H     H_    0.546608 0.150307 0.720533 0.145100
H26   H     H_    0.419932 0.417549 0.865410 0.140265
I1    I     I_    0.154740 0.741251 0.276356 -0.491620
I2    I     I_    0.845289 0.258690 0.723566 -0.491659
N1    N     N_2   0.447120 0.447110 0.150550 -0.348601
N2    N     N_2   0.552880 0.552890 0.849450 -0.348606
O1    O     O_R   0.517830 0.337490 0.617920 -0.497398
O2    O     O_R   0.482170 0.662510 0.382080 -0.497387
O3    O     O_R   0.482150 0.301790 0.382070 -0.491482
O4    O     O_R   0.517850 0.698210 0.617930 -0.491488
O5    O     O_R   0.337480 0.517860 0.617920 -0.517906
O6    O     O_R   0.662520 0.482140 0.382080 -0.517902
O7    O     O_R   0.301810 0.482160 0.382070 -0.474122
O8    O     O_R   0.698190 0.517840 0.617930 -0.474127

loop_
_geom_bond_atom_site_label_1
_geom_bond_atom_site_label_2
_ccdc_geom_bond_type
C3    C42   A    
C40   H16   S    
C27   C29   A    
C34   C37   A    
C1    O3    A    
C14   C18   A    
C41   H17   S    
C11   H24   S    
Cu1   O4    S    
C15   C19   A    
C11   C19   A    
C17   C23   S    
C13   C18   A    
Cu2   O3    S    
C24   C26   A    
C9    H14   S    
C11   C14   A    
C2    C41   A    
Cu1   O5    S    
C26   I2    S    
C17   O8    A    
Cu2   O2    S    
C16   C34   S    
C6    H21   S    
C27   C39   S    
C22   C25   A    
C12   O4    A    
C31   C33   A    
C3    C19   S    
C25   I1    S    
C42   H18   S    
C4    C18   S    
Cu1   N2    S    
C40   C42   A    
C33   H1    S    
C10   C41   A    
Cu1   O1    S    
C32   H10   S    
C24   H6    S    
C24   C35   A    
C34   C39   A    
C1    O1    A    
C32   C35   A    
Cu2   O6    S    
C4    C6    A    
Cu2   O7    S    
C5    C7    A    
C6    C8    A    
C21   N2    D    
C9    C40   A    
C5    H20   S    
C2    C4    A    
Cu1   Cu2   S    
C37   C38   A    
C28   C38   S    
C31   H9    S    
C22   H5    S    
C1    C15   S    
C12   C14   S    
C13   C15   A    
C12   O2    A    
C2    H19   S    
C29   H7    S    
C7    C9    A    
C22   C33   A    
C30   H8    S    
C35   H12   S    
H4    N1    S    
C36   C39   A    
H3    N2    S    
C3    C5    A    
C25   C27   A    
C23   C38   A    
C26   C28   A    
C21   H26   S    
C16   O5    A    
C28   C30   A    
C10   H15   S    
C29   C31   A    
C36   H11   S    
C7    H22   S    
C30   C32   A    
C13   H25   S    
C16   O7    A    
C20   N1    D    
C17   O6    A    
Cu2   N1    S    
C20   H2    S    
C20   C21   S    
C8    H23   S    
C8    C10   A    
C23   C36   A    
Cu1   O8    S    
C37   H13   S    
