data_mof_unit_1318.cif
_audit_creation_date              2012-12-10T16:52:13-0500
_audit_creation_method            fapswitch 2.2
_symmetry_space_group_name_H-M    P1
_symmetry_Int_Tables_number       1
_space_group_crystal_system       triclinic
_cell_length_a                    11.271098
_cell_length_b                    10.9511
_cell_length_c                    9.728065
_cell_angle_alpha                 89.211226
_cell_angle_beta                  101.341496
_cell_angle_gamma                 89.672709
_cell_volume                      1177.14151153

loop_
_atom_site_label
_atom_site_type_symbol
_atom_type_description
_atom_site_fract_x
_atom_site_fract_y
_atom_site_fract_z
_atom_type_partial_charge
C1    C     C_R   0.498698 0.265681 0.500313 0.767795
C2    C     C_2   0.547422 0.863443 0.512627 0.250771
C3    C     C_2   0.557905 0.070795 0.421517 0.388987
C4    C     C_2   0.490723 0.133196 0.497606 0.266242
C5    C     C_2   0.470449 0.406187 0.918746 0.629316
C6    C     C_2   0.502121 0.402488 0.077735 0.056689
C7    C     C_R   0.264977 0.495900 0.444853 0.744047
C8    C     C_R   0.512288 0.733863 0.502168 0.731440
C9    C     C_R   0.735480 0.496198 0.554686 0.837916
C10   C     C_2   0.135617 0.470641 0.417204 0.198117
C11   C     C_2   0.063648 0.509902 0.505622 -0.064114
C12   C     C_2   0.867109 0.493901 0.579243 -0.420670
C13   C     C_2   0.930771 0.489298 0.473933 -0.002110
C14   C     C_2   0.537947 0.938962 0.399823 -0.092326
Cu1   Cu    Cu3+1 0.500020 0.500020 0.638640 1.006752
Cu2   Cu    Cu3+1 0.499980 0.499980 0.361360 0.979904
H1    H     H_    0.523343 0.314742 0.129887 0.089479
H2    H     H_    0.912261 0.502619 0.687665 0.157461
N1    N     N_2   0.498650 0.498660 0.846590 0.003873
N2    N     N_2   0.498620 0.498630 0.152710 -0.002332
O1    O     O_R   0.500020 0.321960 0.617050 -0.542640
O2    O     O_R   0.499980 0.321920 0.382890 -0.581415
O3    O     O_R   0.320700 0.500020 0.574050 -0.556334
O4    O     O_R   0.320660 0.499980 0.339890 -0.607767
O5    O     O_R   0.500020 0.678080 0.617110 -0.597368
O6    O     O_R   0.499980 0.678040 0.382950 -0.600805
O7    O     O_R   0.679340 0.500020 0.660110 -0.613420
O8    O     O_R   0.679300 0.499980 0.425950 -0.572061
C15   C     C_R   0.871953 0.468726 0.324833 0.258790
C16   C     C_R   0.874079 0.560467 0.222944 -0.115934
C17   C     C_R   0.838419 0.534227 0.080656 -0.076508
C18   C     C_R   0.799412 0.416929 0.039378 -0.081531
C19   C     C_R   0.794075 0.326163 0.140296 -0.173996
C20   C     C_R   0.830299 0.351717 0.282658 -0.008099
H3    H     H_    0.907647 0.650519 0.253714 0.094257
H4    H     H_    0.842418 0.604385 0.002259 0.119258
H5    H     H_    0.772724 0.396492 0.929150 0.153326
H6    H     H_    0.763515 0.235542 0.108122 0.138089
H7    H     H_    0.830814 0.279567 0.359943 0.147388
O9    O     O_3   0.580747 0.574311 0.918424 -0.647944
H8    H     H_    0.610362 0.624071 0.847110 0.347213
O10   O     O_3   0.433647 0.591439 0.082772 -0.616348
H9    H     H_    0.405076 0.640759 0.153835 0.373065
C21   C     C_R   0.112851 0.578515 0.635224 0.092207
C22   C     C_R   0.111388 0.706566 0.633313 -0.139432
C23   C     C_R   0.143786 0.770159 0.758668 -0.131773
C24   C     C_R   0.176132 0.706159 0.886162 -0.094770
C25   C     C_R   0.178834 0.578631 0.888347 -0.093953
C26   C     C_R   0.148421 0.514823 0.763315 -0.102251
H10   H     H_    0.082659 0.756656 0.535534 0.116935
H11   H     H_    0.141390 0.868969 0.757222 0.129864
H12   H     H_    0.197907 0.755082 0.983564 0.130117
H13   H     H_    0.202579 0.529088 0.987077 0.153217
H14   H     H_    0.148217 0.415913 0.766358 0.139352
O11   O     O_3   0.089288 0.396937 0.304916 -0.751319
H15   H     H_    0.155385 0.366581 0.260339 0.329770
C27   C     C_R   0.510989 0.900600 0.251956 0.061624
C28   C     C_R   0.403578 0.940728 0.163783 -0.162017
C29   C     C_R   0.386934 0.924789 0.019076 -0.173655
C30   C     C_R   0.477427 0.869349 0.961484 -0.017619
C31   C     C_R   0.585600 0.831288 0.048532 -0.045567
C32   C     C_R   0.602113 0.845773 0.193466 -0.113565
H16   H     H_    0.334433 0.987390 0.206818 0.134739
H17   H     H_    0.304621 0.957241 0.951379 0.130817
H18   H     H_    0.463914 0.857277 0.849406 0.173786
H19   H     H_    0.657692 0.792588 0.003865 0.119833
H20   H     H_    0.687497 0.818900 0.259495 0.109395
O12   O     O_3   0.594956 0.911038 0.643285 -0.715472
H21   H     H_    0.619581 0.843493 0.711825 0.308812
O13   O     O_3   0.640282 0.131736 0.357511 -0.787811
H22   H     H_    0.685861 0.070836 0.313564 0.313924
O14   O     O_3   0.407757 0.073497 0.561911 -0.737245
H23   H     H_    0.363157 0.135146 0.606193 0.337214
O15   O     O_3   0.410992 0.309098 0.848000 -0.761652
H24   H     H_    0.395404 0.247840 0.918193 0.280045

loop_
_geom_bond_atom_site_label_1
_geom_bond_atom_site_label_2
_ccdc_geom_bond_type
C21   C26   A    
Cu2   O8    S    
C7    C10   S    
N2    O10   S    
O11   H15   S    
C29   C30   A    
C1    O1    A    
C24   H12   S    
C8    O5    A    
C25   H13   S    
C6    N2    D    
C20   H7    S    
Cu1   O7    S    
C17   C18   A    
Cu1   O1    S    
C16   C17   A    
Cu2   N2    S    
C1    C4    S    
C18   C19   A    
Cu1   O3    S    
C19   C20   A    
C29   H17   S    
C22   C23   A    
C1    O2    A    
Cu2   O4    S    
C18   H5    S    
C21   C22   A    
Cu1   N1    S    
C10   O11   S    
C11   C13   S    
C27   C28   A    
C15   C16   A    
C3    C14   S    
C32   H20   S    
C30   C31   A    
C7    O3    A    
C5    C6    S    
C23   H11   S    
C13   C15   S    
C25   C26   A    
C30   H18   S    
C2    O12   S    
C10   C11   D    
Cu2   O6    S    
C31   C32   A    
C2    C14   D    
C9    C12   S    
C28   C29   A    
C11   C21   S    
Cu1   O5    S    
O13   H22   S    
N1    O9    S    
C31   H19   S    
C7    O4    A    
C24   C25   A    
C16   H3    S    
O15   H24   S    
C4    O14   S    
C3    O13   S    
C8    O6    A    
C12   C13   D    
C9    O7    A    
O10   H9    S    
C12   H2    S    
C28   H16   S    
C6    H1    S    
C14   C27   S    
C17   H4    S    
O9    H8    S    
C19   H6    S    
Cu2   O2    S    
C22   H10   S    
C27   C32   A    
C5    O15   S    
C23   C24   A    
C5    N1    D    
C15   C20   A    
O12   H21   S    
Cu1   Cu2   S    
C2    C8    S    
C3    C4    D    
C26   H14   S    
C9    O8    A    
O14   H23   S    
