data_mof_unit_4327.cif
_audit_creation_date              2013-03-05T16:04:21-0500
_audit_creation_method            fapswitch 2.2
_symmetry_space_group_name_H-M    P1
_symmetry_Int_Tables_number       1
_space_group_crystal_system       triclinic
_cell_length_a                    14.922115
_cell_length_b                    14.170251
_cell_length_c                    27.575257
_cell_angle_alpha                 90.601189
_cell_angle_beta                  87.908713
_cell_angle_gamma                 90.16777
_cell_volume                      5826.56803152

loop_
_atom_site_label
_atom_site_type_symbol
_atom_site_description
_atom_site_fract_x
_atom_site_fract_y
_atom_site_fract_z
_atom_type_partial_charge
O1    O     O_R   0.367850 0.580280 0.500010 -0.620654
O2    O     O_R   0.632150 0.419720 0.499990 -0.562662
O3    O     O_R   0.632150 0.580280 0.499990 -0.634805
O4    O     O_R   0.367850 0.419720 0.500010 -0.624110
C1    C     C_R   0.327565 0.499779 0.498101 0.915491
C2    C     C_R   0.672734 0.500246 0.500699 0.975579
O5    O     O_R   0.500010 0.580260 0.428760 -0.671340
O6    O     O_R   0.499990 0.419740 0.571240 -0.651603
O7    O     O_R   0.499990 0.580260 0.571240 -0.633601
O8    O     O_R   0.500010 0.419740 0.428760 -0.584988
C3    C     C_R   0.498417 0.499663 0.406164 0.914946
C4    C     C_R   0.497666 0.500655 0.594014 0.951323
Zn1   Zn    Zn3+2 0.500000 0.607200 0.500000 0.947019
Zn2   Zn    Zn3+2 0.500000 0.392800 0.500000 0.993565
C5    C     C_R   0.388438 0.446592 0.180256 0.501054
C6    C     C_R   0.514157 0.573619 0.823686 0.581123
O9    O     O_2   0.332339 0.388677 0.205411 -0.581948
O10   O     O_2   0.578142 0.622953 0.798978 -0.563343
N1    N     N_R   0.446950 0.502841 0.204239 -0.333255
N2    N     N_R   0.456477 0.516756 0.799328 -0.335333
C7    C     C_R   0.506911 0.560043 0.180108 0.571707
C8    C     C_R   0.390225 0.466806 0.823139 0.542118
C9    C     C_R   0.499860 0.423963 0.275614 -0.191305
C10   C     C_R   0.494578 0.429141 0.724802 -0.179792
C11   C     C_R   0.515310 0.424243 0.324936 -0.194841
C12   C     C_R   0.506139 0.424667 0.674638 -0.147014
C13   C     C_R   0.435151 0.572534 0.334234 -0.348505
C14   C     C_R   0.456862 0.587228 0.669790 -0.373711
C15   C     C_R   0.414730 0.569741 0.285115 0.532238
C16   C     C_R   0.444217 0.592796 0.720572 0.567572
C17   C     C_R   0.451181 0.497230 0.255635 0.236325
C18   C     C_R   0.463978 0.512396 0.747580 0.228599
C19   C     C_R   0.447030 0.508746 0.103849 -0.053961
C20   C     C_R   0.443637 0.524710 0.899770 -0.052188
C21   C     C_R   0.387108 0.448748 0.129532 -0.017926
C22   C     C_R   0.507519 0.580188 0.874234 -0.036270
C23   C     C_R   0.331080 0.388736 0.103969 -0.133182
C24   C     C_R   0.560827 0.643323 0.899577 -0.121684
C25   C     C_R   0.509304 0.562557 0.129430 -0.032205
C26   C     C_R   0.382202 0.470427 0.873925 -0.080339
C27   C     C_R   0.484368 0.499307 0.354243 -0.063071
C28   C     C_R   0.487807 0.503884 0.646949 -0.061669
H1    H     H_    0.412197 0.631236 0.356831 0.165792
H2    H     H_    0.442619 0.646559 0.647397 0.150866
H3    H     H_    0.288821 0.337315 0.122591 0.192857
H4    H     H_    0.605189 0.692476 0.880706 0.188285
C29   C     C_R   0.374075 0.470933 0.976515 -0.055849
C30   C     C_R   0.512441 0.567334 0.027066 0.029067
C31   C     C_R   0.505490 0.577645 0.976263 0.067141
C32   C     C_R   0.380949 0.460407 0.027455 0.042579
C33   C     C_R   0.441276 0.523856 0.951071 0.072196
C34   C     C_R   0.446098 0.513248 0.052614 0.072841
C35   C     C_R   0.301784 0.433211 0.949576 -0.041338
C36   C     C_R   0.584961 0.605467 0.053676 -0.037376
C37   C     C_R   0.310836 0.426582 0.898939 -0.097049
C38   C     C_R   0.577529 0.610725 0.104124 -0.228419
O11   O     O_2   0.332081 0.414609 0.797699 -0.544257
O12   O     O_2   0.565241 0.612783 0.205202 -0.565808
C39   C     C_R   0.330362 0.392302 0.053731 -0.234599
C40   C     C_R   0.556696 0.644914 0.949851 -0.131181
H5    H     H_    0.530321 0.359944 0.657613 0.201073
H6    H     H_    0.553873 0.367747 0.339791 0.161467
H7    H     H_    0.510178 0.368132 0.746232 0.174202
H8    H     H_    0.527729 0.368242 0.252555 0.161193
H9    H     H_    0.258208 0.393283 0.878708 0.226960
H10   H     H_    0.630780 0.644331 0.123821 0.183135
H11   H     H_    0.291859 0.338422 0.035966 0.161978
H12   H     H_    0.593942 0.699990 0.967503 0.144475
C41   C     C_R   0.814916 0.462150 0.462395 -0.276422
C42   C     C_R   0.185797 0.539483 0.535400 -0.243189
C43   C     C_R   0.768212 0.501242 0.502139 -0.075059
C44   C     C_R   0.232449 0.499659 0.495879 -0.074650
C45   C     C_R   0.812069 0.545583 0.540661 -0.058459
C46   C     C_R   0.188975 0.465510 0.454648 -0.075700
C47   C     C_R   0.906261 0.547562 0.538977 0.036434
C48   C     C_R   0.094780 0.467636 0.455287 0.023508
C49   C     C_R   0.953585 0.507192 0.498257 0.073494
C50   C     C_R   0.047388 0.506764 0.496298 0.063783
C51   C     C_R   0.907268 0.465562 0.459853 0.123842
C52   C     C_R   0.093642 0.544056 0.535832 0.126613
C53   C     C_R   0.954602 0.585835 0.577463 -0.212778
C54   C     C_R   0.046483 0.428418 0.417028 -0.239321
C55   C     C_R   0.047393 0.583848 0.575836 -0.176262
C56   C     C_R   0.953623 0.427174 0.419479 -0.187899
H13   H     H_    0.778836 0.431063 0.432727 0.187850
H14   H     H_    0.221913 0.566594 0.566118 0.145706
H15   H     H_    0.921805 0.615642 0.609661 0.143703
H16   H     H_    0.079507 0.395960 0.385556 0.152020
H17   H     H_    0.083081 0.612620 0.606218 0.149380
H18   H     H_    0.917957 0.395132 0.389935 0.154313
C57   C     C_R   0.562973 0.797949 0.472405 0.032039
C58   C     C_R   0.447236 0.201578 0.533283 0.036786
C59   C     C_R   0.436567 0.798615 0.527402 0.095658
C60   C     C_R   0.550699 0.200642 0.465753 0.084897
N3    N     N_R   0.500000 0.750030 0.500000 -0.190568
N4    N     N_R   0.500000 0.249970 0.500000 -0.171992
C61   C     C_R   0.436872 0.899407 0.529781 -0.116495
C62   C     C_R   0.556461 0.100199 0.467123 -0.177140
C63   C     C_R   0.559036 0.898308 0.468333 -0.112643
C64   C     C_R   0.437914 0.101102 0.529942 -0.099951
C65   C     C_R   0.497344 0.949283 0.498714 -0.067295
C66   C     C_R   0.497338 0.050133 0.498660 -0.058324
C67   C     C_R   0.377337 0.950999 0.561604 0.357263
C68   C     C_R   0.618689 0.048270 0.437300 0.301346
C69   C     C_R   0.614364 0.949260 0.434777 0.420407
C70   C     C_R   0.371557 0.050412 0.557248 0.446263
C71   C     C_2   0.759994 0.588259 0.582401 0.418106
H19   H     H_    0.779165 0.656371 0.597099 0.069118
O13   O     O_2   0.696411 0.546626 0.601342 -0.582274
C72   C     C_2   0.240829 0.432488 0.410496 0.347366
H20   H     H_    0.221766 0.455432 0.374921 0.066009
O14   O     O_2   0.303060 0.377402 0.413214 -0.549906
C73   C     C_2   0.637971 0.744070 0.449736 0.573508
H21   H     H_    0.625731 0.687304 0.424364 0.056702
O15   O     O_2   0.715064 0.762019 0.460155 -0.557066
C74   C     C_2   0.405306 0.254185 0.574605 0.541653
H22   H     H_    0.366253 0.316797 0.568851 0.064360
O16   O     O_2   0.415035 0.227901 0.616113 -0.555456
C75   C     C_2   0.361969 0.744990 0.549625 0.509146
H23   H     H_    0.372827 0.697618 0.579254 0.041171
O17   O     O_2   0.287186 0.751509 0.533439 -0.621050
C76   C     C_2   0.590527 0.250521 0.423716 0.567384
H24   H     H_    0.567764 0.233222 0.387795 0.027736
O18   O     O_2   0.653213 0.304694 0.428007 -0.611706
O19   O     O_3   0.346924 0.908852 0.604603 -0.672383
C77   C     C_3   0.252385 0.901602 0.609092 0.154953
H25   H     H_    0.235110 0.825817 0.613329 0.164419
H26   H     H_    0.216660 0.925600 0.576840 0.133556
C78   C     C_3   0.218399 0.951684 0.655656 -0.327271
H27   H     H_    0.250344 0.919460 0.687288 0.215544
H28   H     H_    0.237040 0.027442 0.655029 0.282930
C79   C     C_3   0.116753 0.943058 0.662343 -0.950358
H29   H     H_    0.083160 0.976079 0.631520 0.261095
H30   H     H_    0.094273 0.979619 0.696441 0.281668
H31   H     H_    0.096647 0.867644 0.664661 0.265778
O20   O     O_3   0.685161 0.092844 0.409616 -0.653810
C80   C     C_3   0.761569 0.103625 0.438028 0.145325
H32   H     H_    0.787552 0.033401 0.448675 0.165137
H33   H     H_    0.745169 0.146261 0.471395 0.152453
C81   C     C_3   0.835058 0.154665 0.408338 -0.309877
H34   H     H_    0.854778 0.110911 0.376011 0.226901
H35   H     H_    0.809123 0.223159 0.395564 0.249073
C82   C     C_3   0.917502 0.173289 0.438252 -0.968371
H36   H     H_    0.899924 0.219958 0.469800 0.279875
H37   H     H_    0.970071 0.208745 0.415401 0.274271
H38   H     H_    0.944989 0.105840 0.451443 0.268570
O21   O     O_3   0.668003 0.903046 0.400021 -0.611647
C83   C     C_3   0.631517 0.912223 0.353521 0.128716
H39   H     H_    0.688480 0.918699 0.326672 0.180028
H40   H     H_    0.589608 0.976659 0.349520 0.135289
C84   C     C_3   0.577033 0.824147 0.340828 -0.446326
H41   H     H_    0.620391 0.760735 0.342514 0.240381
H42   H     H_    0.519921 0.816095 0.367477 0.211545
C85   C     C_3   0.540537 0.830406 0.290006 -0.826420
H43   H     H_    0.494884 0.891836 0.287675 0.251224
H44   H     H_    0.502445 0.765206 0.281770 0.309259
H45   H     H_    0.596427 0.837551 0.262554 0.268436
O22   O     O_3   0.299952 0.097862 0.579515 -0.624299
C86   C     C_3   0.227000 0.100892 0.547765 0.013233
H46   H     H_    0.165271 0.082360 0.569341 0.177550
H47   H     H_    0.232126 0.049164 0.516882 0.115509
C87   C     C_3   0.214504 0.200236 0.527800 -0.337828
H48   H     H_    0.210156 0.252099 0.558300 0.230390
H49   H     H_    0.272477 0.218771 0.503342 0.225775
C88   C     C_3   0.129155 0.206340 0.499134 -0.899965
H50   H     H_    0.132273 0.156135 0.467914 0.265855
H51   H     H_    0.121941 0.278750 0.485042 0.280363
H52   H     H_    0.069373 0.190047 0.522784 0.261011
O23   O     O_3   0.366498 0.641155 0.264111 -0.649038
C89   C     C_3   0.278179 0.646036 0.284743 0.045097
H53   H     H_    0.248291 0.713133 0.272658 0.185375
H54   H     H_    0.276549 0.649681 0.325073 0.129566
C90   C     C_3   0.219750 0.563992 0.267181 -0.341824
H55   H     H_    0.220388 0.562963 0.226859 0.250688
H56   H     H_    0.247051 0.495927 0.279660 0.239847
C91   C     C_3   0.123248 0.573290 0.286895 -0.936034
H57   H     H_    0.121109 0.573383 0.327216 0.259839
H58   H     H_    0.082965 0.512672 0.273945 0.274997
H59   H     H_    0.093030 0.639615 0.274026 0.271478
O24   O     O_3   0.410298 0.671411 0.746361 -0.641932
C92   C     C_3   0.414756 0.758193 0.721345 0.092006
H60   H     H_    0.377424 0.810856 0.744281 0.171797
H61   H     H_    0.377964 0.755992 0.687077 0.133162
C93   C     C_3   0.511717 0.794299 0.714857 -0.358322
H62   H     H_    0.538464 0.810330 0.751135 0.252028
H63   H     H_    0.555506 0.739949 0.697093 0.243131
C94   C     C_3   0.516291 0.883109 0.684081 -0.869374
H64   H     H_    0.497410 0.866079 0.646414 0.288477
H65   H     H_    0.585858 0.911218 0.682904 0.263921
H66   H     H_    0.470609 0.938215 0.699685 0.278994
C95   C     C_2   0.210920 0.415865 0.971681 0.388019
H67   H     H_    0.190632 0.450029 0.005712 0.083644
O25   O     O_2   0.157091 0.364748 0.951757 -0.541125
C96   C     C_2   0.676012 0.624498 0.032527 0.381246
H68   H     H_    0.717903 0.678268 0.048629 0.065512
O26   O     O_2   0.707209 0.576337 0.999055 -0.528279

loop_
_geom_bond_atom_site_label_1
_geom_bond_atom_site_label_2
_geom_bond_distance
_ccdc_geom_bond_type
C82   H38   1.111088 S    
C96   O26   1.221332 D    
C65   C66   1.429078 A    
C36   C96   1.483969 S    
C13   C15   1.399254 A    
C45   C47   1.404826 A    
O23   C89   1.417857 S    
O21   C83   1.418563 S    
C83   C84   1.531934 S    
O3    C2    1.287900 A    
N1    C17   1.424046 S    
C8    O11   1.349727 S    
C95   O25   1.221534 D    
C49   C50   1.398835 A    
C74   H22   1.079204 S    
C19   C34   1.415526 A    
C30   C36   1.430962 A    
C80   H33   1.115462 S    
C58   C64   1.432477 A    
C20   C33   1.413983 A    
C88   H50   1.110790 S    
C31   C40   1.411598 A    
C46   C48   1.405460 A    
Zn1   N3    2.023937 S    
O1    C1    1.289349 A    
C32   C39   1.413029 A    
C21   C23   1.394733 A    
C12   H5    1.082739 S    
C48   C50   1.420282 A    
C87   H48   1.111303 S    
C1    C44   1.422880 S    
C79   H31   1.110956 S    
C51   C56   1.395391 A    
C50   C52   1.408817 A    
C45   C71   1.489022 S    
C89   H53   1.110838 S    
C60   C62   1.427136 A    
C82   H36   1.111408 S    
C69   O21   1.386339 S    
C92   H60   1.110897 S    
C58   N4    1.374692 A    
C93   H62   1.111526 S    
C77   H26   1.110307 S    
C82   H37   1.110445 S    
C84   C85   1.525466 S    
Zn2   N4    2.023938 S    
C41   C43   1.388321 A    
O7    Zn1   2.005132 S    
C72   H20   1.084694 S    
C94   H66   1.110966 S    
C4    C28   1.461991 S    
C39   H11   1.078481 S    
C19   C25   1.405317 A    
C91   H59   1.110735 S    
C25   C38   1.394046 A    
C93   H63   1.109830 S    
C79   H29   1.110634 S    
C31   C33   1.419465 A    
C32   C34   1.421659 A    
C84   H41   1.111153 S    
C86   H47   1.118414 S    
C85   H44   1.109144 S    
O3    Zn1   2.009600 S    
C6    N2    1.366733 A    
C29   C35   1.431062 A    
C78   C79   1.525958 S    
C35   C37   1.400136 A    
C96   H68   1.085730 S    
C59   N3    1.371714 A    
C90   H56   1.110930 S    
C71   O13   1.219874 D    
O2    C2    1.290556 A    
C38   H10   1.084917 S    
C56   H18   1.084252 S    
C52   C55   1.394536 A    
C55   H17   1.084374 S    
C5    C21   1.400242 A    
C68   C69   1.405400 A    
C53   C55   1.384079 A    
O5    C3    1.295821 A    
C29   C32   1.421584 A    
C87   H49   1.109956 S    
C49   C51   1.408938 A    
C2    C43   1.426749 S    
C63   C69   1.419127 A    
C80   C81   1.529127 S    
C36   C38   1.392723 A    
C94   H65   1.110281 S    
C42   C52   1.376481 A    
C95   H67   1.085004 S    
C9    H8    1.082940 S    
C83   H39   1.110925 S    
C85   H45   1.110800 S    
C44   C46   1.410011 A    
O8    Zn2   2.005135 S    
C92   H61   1.110156 S    
C48   C54   1.407881 A    
C43   C45   1.409168 A    
C47   C53   1.407944 A    
C29   C33   1.419698 A    
C77   C78   1.531330 S    
C90   H55   1.111520 S    
C14   H2    1.074616 S    
C57   C73   1.473095 S    
C9    C17   1.398096 A    
C5    N1    1.364569 A    
C10   C18   1.400532 A    
C62   C66   1.411100 A    
C87   C88   1.526412 S    
C58   C74   1.475951 S    
C13   C27   1.402337 A    
C86   H46   1.110540 S    
C7    C25   1.397429 A    
C30   C34   1.421161 A    
O6    C4    1.301448 A    
C26   C37   1.395487 A    
C8    C26   1.401591 A    
C64   C66   1.409572 A    
C86   C87   1.531280 S    
C6    O10   1.350241 S    
C61   C67   1.423796 A    
C81   H34   1.111741 S    
C81   C82   1.526826 S    
C60   N4    1.374716 A    
C47   C49   1.420465 A    
C85   H43   1.110764 S    
C23   C39   1.387224 A    
C75   O17   1.221002 D    
C24   C40   1.385411 A    
C60   C76   1.470015 S    
C79   H30   1.110316 S    
C30   C31   1.417610 A    
C63   C65   1.416336 A    
N2    C8    1.366655 A    
C88   H52   1.110799 S    
C54   C56   1.384919 A    
O19   C77   1.415150 S    
C20   C26   1.404296 A    
C41   C51   1.378050 A    
O1    Zn1   2.007410 S    
C71   H19   1.084569 S    
C11   C27   1.398309 A    
C42   H14   1.086633 S    
C59   C61   1.429062 A    
C76   O18   1.216650 D    
C41   H13   1.084633 S    
O24   C92   1.416501 S    
C12   C28   1.397456 A    
C73   H21   1.080078 S    
N2    C18   1.427994 S    
C92   C93   1.538139 S    
C5    O9    1.349434 S    
C91   H57   1.111120 S    
O6    Zn2   1.997268 S    
C68   O20   1.384480 S    
N1    C7    1.365273 A    
C37   H9    1.083923 S    
C10   C12   1.388531 A    
C83   H40   1.116895 S    
O4    C1    1.287897 A    
C46   C72   1.490435 S    
C90   C91   1.526107 S    
C75   H23   1.079903 S    
C35   C95   1.487036 S    
C81   H35   1.111389 S    
C10   H7    1.082930 S    
C80   H32   1.115096 S    
C64   C70   1.419908 A    
C93   C94   1.525219 S    
C57   C63   1.429253 A    
C22   C24   1.394561 A    
C78   H27   1.112008 S    
C7    O12   1.350646 S    
C15   C17   1.402123 A    
C70   O22   1.385082 S    
C6    C22   1.395942 A    
C16   C18   1.405489 A    
C53   H15   1.080676 S    
O22   C86   1.422691 S    
C89   H54   1.112139 S    
C77   H25   1.110029 S    
C54   H16   1.081320 S    
C89   C90   1.536022 S    
C14   C16   1.407567 A    
C19   C21   1.409211 A    
C74   O16   1.221172 D    
C3    C27   1.454512 S    
C67   C70   1.418216 A    
C20   C22   1.407395 A    
C11   H6    1.080094 S    
C84   H42   1.111225 S    
O4    Zn2   2.009602 S    
O2    Zn2   2.007408 S    
O7    C4    1.296568 A    
C72   O14   1.219755 D    
C24   H4    1.083449 S    
O8    C3    1.299026 A    
C57   N3    1.370428 A    
C13   H1    1.082931 S    
C78   H28   1.108323 S    
O5    Zn1   1.997271 S    
C9    C11   1.387697 A    
C42   C44   1.387369 A    
C40   H12   1.078944 S    
C88   H51   1.107926 S    
C16   O24   1.401178 S    
O20   C80   1.413805 S    
C94   H64   1.110031 S    
C59   C75   1.465296 S    
C15   O23   1.387258 S    
C76   H24   1.084251 S    
C67   O19   1.393746 S    
C23   H3    1.083412 S    
C62   C68   1.419707 A    
C61   C65   1.414301 A    
C91   H58   1.110356 S    
C73   O15   1.221274 D    
C14   C28   1.403942 A    
