data_mof_unit_2355.cif
_audit_creation_date              2012-12-11T14:15:28-0500
_audit_creation_method            fapswitch 2.2
_symmetry_space_group_name_H-M    P1
_symmetry_Int_Tables_number       1
_space_group_crystal_system       triclinic
_cell_length_a                    11.080821
_cell_length_b                    12.72466
_cell_length_c                    23.542822
_cell_angle_alpha                 90.458411
_cell_angle_beta                  96.662575
_cell_angle_gamma                 68.666211
_cell_volume                      3069.08382508

loop_
_atom_site_label
_atom_site_type_symbol
_atom_type_description
_atom_site_fract_x
_atom_site_fract_y
_atom_site_fract_z
_atom_type_partial_charge
C1    C     C_R   0.149670 0.616044 0.428866 0.534364
C2    C     C_R   0.605286 0.595582 0.317431 0.175791
C3    C     C_R   0.699970 0.741161 0.321163 0.244606
C4    C     C_R   0.693689 0.744676 0.260949 -0.020252
C5    C     C_R   0.657095 0.662138 0.230236 -0.067234
C6    C     C_R   0.665745 0.655949 0.171437 0.275149
C7    C     C_R   0.700930 0.832732 0.170329 -0.191263
C8    C     C_R   0.725607 0.826381 0.230860 0.297273
C9    C     C_1   0.237679 0.156312 0.124535 -0.014682
C10   C     C_2   0.178331 0.221498 0.228269 -0.079421
C11   C     C_2   0.168798 0.148845 0.267023 0.233186
C12   C     C_R   0.745340 0.607122 0.405106 0.539810
C13   C     C_1   0.139015 0.188530 0.323543 -0.091000
C14   C     C_1   0.211848 0.187516 0.171701 -0.022729
C15   C     C_1   0.118720 0.226684 0.370066 -0.046164
C16   C     C_1   0.183867 0.764055 0.128221 -0.002417
C17   C     C_2   0.212383 0.724335 0.239553 -0.079305
C18   C     C_2   0.198347 0.633899 0.262335 0.287162
C19   C     C_1   0.196319 0.628558 0.323086 0.016096
C20   C     C_1   0.192832 0.746107 0.178791 -0.013186
C21   C     C_1   0.183471 0.624689 0.372912 -0.003354
C22   C     C_1   0.631484 0.754227 0.865620 0.027155
C23   C     C_R   0.101594 0.281326 0.423688 0.556809
C24   C     C_2   0.707991 0.701629 0.762805 0.246964
C25   C     C_2   0.616573 0.705302 0.719088 -0.036093
C26   C     C_1   0.652148 0.670271 0.662848 0.015419
C27   C     C_1   0.668977 0.731893 0.819297 -0.045430
C28   C     C_1   0.689977 0.639670 0.617271 0.005062
C29   C     C_R   0.253582 0.077771 0.840173 0.028024
C30   C     C_R   0.091101 0.287918 0.650894 -0.038615
C31   C     C_R   0.988694 0.232458 0.725148 0.264723
C32   C     C_R   0.978945 0.285337 0.672129 -0.134007
C33   C     C_R   0.212994 0.243443 0.684888 0.210729
C34   C     C_R   0.152751 0.618173 0.589654 0.535216
C35   C     C_R   0.225261 0.177420 0.733105 0.005754
C36   C     C_R   0.112923 0.177812 0.756079 -0.017608
C37   C     C_R   0.128039 0.128357 0.810483 -0.159986
C38   C     C_R   0.364804 0.060945 0.812477 0.194310
C39   C     C_R   0.349549 0.113039 0.759322 -0.120398
C40   C     C_R   0.136637 0.751666 0.848193 0.064709
C41   C     C_R   0.205105 0.645627 0.645311 -0.041704
C42   C     C_R   0.331545 0.575729 0.737219 0.251745
C43   C     C_R   0.312078 0.565814 0.677929 -0.183458
C44   C     C_R   0.130256 0.744923 0.670800 0.274639
C45   C     C_R   0.749498 0.602202 0.566021 0.525078
C46   C     C_R   0.130092 0.742074 0.729725 -0.038216
C47   C     C_R   0.234163 0.659970 0.764121 0.000755
C48   C     C_R   0.237127 0.665725 0.823942 0.183696
C49   C     C_R   0.024482 0.820631 0.813156 0.167680
C50   C     C_R   0.024479 0.818045 0.754037 -0.113241
C51   C     C_R   0.266045 0.109039 0.069866 0.548023
C52   C     C_R   0.599814 0.774221 0.081721 0.550079
C53   C     C_R   0.190425 0.788996 0.070097 0.540172
C54   C     C_R   0.272161 0.054585 0.901592 0.597188
C55   C     C_R   0.574545 0.776139 0.918321 0.554823
C56   C     C_R   0.084091 0.328163 0.592132 0.552980
C57   C     C_R   0.165080 0.787103 0.906173 0.582096
C58   C     C_R   0.665474 0.751119 0.140928 -0.046947
C59   C     C_R   0.674850 0.653706 0.348596 -0.078340
C60   C     C_R   0.608522 0.589577 0.258052 0.321860
Cr1   Cr    Cr6+3 0.189770 0.415650 0.511620 1.020108
Cr2   Cr    Cr6+3 0.930400 0.667320 0.496770 1.047521
Cr3   Cr    Cr6+3 0.879870 0.417010 0.491650 1.008283
Cr4   Cr    Cr6+3 0.149500 0.973980 0.985330 1.029819
Cr5   Cr    Cr6+3 0.457000 0.976510 0.994660 1.046090
Cr6   Cr    Cr6+3 0.411170 0.724270 0.995270 1.050995
H1    H     H_    0.237514 0.784336 0.266927 0.092453
H2    H     H_    0.514269 0.732849 0.725597 0.080290
H3    H     H_    0.042923 0.135823 0.831072 0.180785
H4    H     H_    0.435303 0.105554 0.739246 0.145898
H5    H     H_    0.883833 0.324230 0.647598 0.152310
H6    H     H_    0.707890 0.900111 0.144977 0.123560
H7    H     H_    0.940495 0.874437 0.727014 0.155554
H8    H     H_    0.379301 0.495663 0.657610 0.133045
H9    H     H_    0.160002 0.308652 0.239005 0.095384
O1    O     O_R   0.196340 0.303200 0.448500 -0.503943
O2    O     O_R   0.811960 0.658090 0.547150 -0.493175
O3    O     O_R   0.757930 0.506140 0.547110 -0.526236
O4    O     O_R   0.988670 0.321620 0.556040 -0.512554
O5    O     O_3   0.000020 0.499990 0.500010 -0.265265
O6    O     O_R   0.113660 0.883270 0.047820 -0.517832
O7    O     O_R   0.186930 0.068530 0.043990 -0.493751
O8    O     O_R   0.377770 0.089040 0.054220 -0.513920
O9    O     O_R   0.562800 0.872960 0.056970 -0.512399
O10   O     O_R   0.555390 0.700940 0.062700 -0.453170
O11   O     O_R   0.295020 0.731920 0.049950 -0.481618
O12   O     O_R   0.199310 0.519670 0.454880 -0.496387
O13   O     O_R   0.094290 0.884230 0.921550 -0.466861
O14   O     O_R   0.168980 0.069410 0.926940 -0.521598
O15   O     O_R   0.358400 0.089990 0.927950 -0.462126
O16   O     O_R   0.544850 0.873850 0.939920 -0.457939
O17   O     O_R   0.536020 0.701900 0.936430 -0.531363
O18   O     O_R   0.277070 0.732810 0.932890 -0.477378
O19   O     O_3   0.339220 0.891590 0.991750 -0.288648
O20   O     O_R   0.045660 0.691380 0.441680 -0.488411
O21   O     O_R   0.811930 0.659460 0.430950 -0.460703
O22   O     O_R   0.757900 0.507620 0.421760 -0.504472
O23   O     O_R   0.988630 0.322990 0.439840 -0.493287
O24   O     O_R   0.196380 0.301720 0.573850 -0.479948
O25   O     O_R   0.199350 0.518300 0.571080 -0.534192
O26   O     O_R   0.045700 0.689900 0.567030 -0.463735
O27   O     O_3   0.655130 0.563792 0.142694 -0.490570
C61   C     C_3   0.780499 0.491260 0.132157 0.029351
H10   H     H_    0.842621 0.456096 0.173340 0.124952
H11   H     H_    0.828614 0.536443 0.107746 0.119752
C62   C     C_3   0.766331 0.394590 0.096527 -0.252666
H12   H     H_    0.710506 0.353343 0.118352 0.169774
H13   H     H_    0.711140 0.428924 0.054043 0.178415
C63   C     C_3   0.898891 0.306507 0.088065 -0.485741
H14   H     H_    0.958182 0.345725 0.067388 0.150661
H15   H     H_    0.885379 0.239476 0.060492 0.158583
H16   H     H_    0.951246 0.267293 0.130078 0.151959
O28   O     O_3   0.837952 0.664506 0.754131 -0.683221
H17   H     H_    0.890200 0.663254 0.791474 0.335953
O29   O     O_3   0.487659 0.000486 0.839933 -0.694035
H18   H     H_    0.553943 0.993338 0.813734 0.307028
O30   O     O_3   0.876247 0.236595 0.746669 -0.574761
C64   C     C_3   0.849154 0.138685 0.731855 -0.011053
H19   H     H_    0.818061 0.110043 0.770057 0.155467
H20   H     H_    0.935154 0.066200 0.720451 0.129210
C65   C     C_3   0.737391 0.167098 0.682882 -0.263221
H21   H     H_    0.652683 0.239561 0.694479 0.185225
H22   H     H_    0.768841 0.191651 0.643596 0.160302
C66   C     C_3   0.695206 0.066852 0.670207 -0.469982
H23   H     H_    0.775378 0.996517 0.653903 0.182148
H24   H     H_    0.609003 0.092583 0.637030 0.175584
H25   H     H_    0.668264 0.037153 0.709376 0.127205
O31   O     O_3   0.321555 0.263264 0.672145 -0.729149
H26   H     H_    0.292321 0.344367 0.660839 0.332569
O32   O     O_3   0.337098 0.588537 0.859260 -0.668085
H27   H     H_    0.415953 0.605988 0.855105 0.364771
O33   O     O_3   0.918381 0.892466 0.837478 -0.685247
H28   H     H_    0.844992 0.927783 0.806965 0.306094
O34   O     O_3   0.449586 0.510334 0.767410 -0.566455
C67   C     C_3   0.452900 0.400066 0.777018 0.031935
H29   H     H_    0.464585 0.353738 0.736659 0.152014
H30   H     H_    0.362501 0.400909 0.793904 0.177612
C68   C     C_3   0.570463 0.339152 0.821047 -0.255554
H31   H     H_    0.661170 0.336491 0.804270 0.217125
H32   H     H_    0.561486 0.386403 0.861223 0.194697
C69   C     C_3   0.580901 0.219160 0.834566 -0.459140
H33   H     H_    0.492663 0.220342 0.853028 0.199044
H34   H     H_    0.667952 0.177248 0.866128 0.169277
H35   H     H_    0.591578 0.170121 0.795103 0.138133
O35   O     O_3   0.046378 0.840527 0.638963 -0.564768
C70   C     C_3   0.118178 0.886245 0.607128 0.019068
H36   H     H_    0.046936 0.951075 0.576271 0.154197
H37   H     H_    0.183826 0.822093 0.580966 0.129210
C71   C     C_3   0.196269 0.943451 0.645500 -0.293912
H38   H     H_    0.128251 0.013039 0.667916 0.164527
H39   H     H_    0.265986 0.881767 0.678154 0.152991
C72   C     C_3   0.273551 0.990620 0.610229 -0.460815
H40   H     H_    0.339396 0.922584 0.586072 0.135891
H41   H     H_    0.334495 0.026133 0.638995 0.181222
H42   H     H_    0.206115 0.058390 0.579742 0.176226
O36   O     O_3   0.555566 0.521902 0.224849 -0.524341
C73   C     C_3   0.592397 0.409448 0.246830 0.053835
H43   H     H_    0.559734 0.361706 0.212581 0.101623
H44   H     H_    0.534806 0.405523 0.281625 0.191862
C74   C     C_3   0.740984 0.345861 0.262530 -0.254866
H45   H     H_    0.781219 0.296659 0.225477 0.122199
H46   H     H_    0.795289 0.403118 0.272274 0.166106
C75   C     C_3   0.768410 0.265811 0.314415 -0.452312
H47   H     H_    0.751263 0.314821 0.353871 0.207558
H48   H     H_    0.871346 0.206410 0.318724 0.148231
H49   H     H_    0.703469 0.216557 0.309930 0.114613
O37   O     O_3   0.781431 0.894334 0.262677 -0.515910
C76   C     C_3   0.787115 0.988178 0.232873 -0.004888
H50   H     H_    0.792203 0.050371 0.265245 0.145798
H51   H     H_    0.696749 0.033140 0.203508 0.110332
C77   C     C_3   0.912437 0.955073 0.204175 -0.253460
H52   H     H_    0.997427 0.926486 0.237902 0.187295
H53   H     H_    0.920349 0.884322 0.175236 0.169504
C78   C     C_3   0.917929 0.054112 0.169988 -0.455915
H54   H     H_    0.831705 0.087087 0.136993 0.134338
H55   H     H_    0.007717 0.026054 0.148344 0.198606
H56   H     H_    0.920928 0.122359 0.199012 0.160463
O38   O     O_3   0.535640 0.544198 0.344162 -0.721233
H57   H     H_    0.520217 0.576622 0.382291 0.324651
O39   O     O_3   0.742914 0.815734 0.353113 -0.478907
C79   C     C_3   0.641144 0.889540 0.381969 0.045977
H58   H     H_    0.686513 0.907837 0.423596 0.147249
H59   H     H_    0.568644 0.852699 0.392336 0.089660
C80   C     C_3   0.571205 0.000795 0.347310 -0.263607
H60   H     H_    0.643529 0.038420 0.338533 0.184145
H61   H     H_    0.523192 0.984493 0.305844 0.184840
C81   C     C_3   0.468534 0.085009 0.379694 -0.471477
H62   H     H_    0.394297 0.049808 0.388770 0.157279
H63   H     H_    0.419370 0.164416 0.353366 0.162596
H64   H     H_    0.514863 0.104862 0.420677 0.150446
O40   O     O_3   0.192380 0.037755 0.253659 -0.709520
H65   H     H_    0.181938 0.998084 0.287780 0.312743
O41   O     O_3   0.152983 0.562593 0.228744 -0.570021
C82   C     C_3   0.252725 0.490882 0.198372 0.007968
H66   H     H_    0.302750 0.409504 0.223054 0.123585
H67   H     H_    0.328228 0.526045 0.190987 0.187954
C83   C     C_3   0.191581 0.469499 0.139935 -0.269901
H68   H     H_    0.125690 0.423344 0.145702 0.156579
H69   H     H_    0.131939 0.551481 0.117289 0.172576
C84   C     C_3   0.296132 0.401890 0.103082 -0.468100
H70   H     H_    0.248952 0.381772 0.062412 0.157574
H71   H     H_    0.361673 0.321780 0.125825 0.147786
H72   H     H_    0.355346 0.451846 0.092885 0.173433

loop_
_geom_bond_atom_site_label_1
_geom_bond_atom_site_label_2
_ccdc_geom_bond_type
C1    O12   A    
C67   C68   S    
C82   H67   S    
C77   H52   S    
C1    C21   S    
C73   H43   S    
C37   H3    S    
O30   C64   S    
C6    C58   A    
Cr2   O2    S    
C35   C36   A    
C9    C51   S    
C24   C27   S    
C23   O1    A    
C4    C8    A    
O31   H26   S    
Cr6   O10   S    
O38   H57   S    
C7    C8    A    
Cr3   O4    S    
C79   H58   S    
C16   C53   S    
C77   H53   S    
C56   O4    A    
Cr2   O5    S    
O36   C73   S    
C75   H48   S    
C54   O15   A    
Cr3   O23   S    
Cr2   O21   S    
C71   H39   S    
C5    C6    A    
C2    C60   A    
Cr5   O8    S    
C82   C83   S    
C29   C54   S    
C83   H68   S    
Cr1   O5    S    
C40   C49   A    
C17   C20   S    
C80   H60   S    
C40   C48   A    
C18   C19   S    
C52   O9    A    
C64   H19   S    
C31   O30   S    
C81   H64   S    
C55   O16   A    
Cr1   O12   S    
C63   H15   S    
C78   H54   S    
C12   C59   S    
C67   H30   S    
C76   C77   S    
C75   H47   S    
O33   H28   S    
C65   C66   S    
C29   C38   A    
C34   O25   A    
C53   O11   A    
C7    C58   A    
C30   C33   A    
C16   C20   T    
Cr6   O19   S    
Cr2   O26   S    
C43   H8    S    
C15   C23   S    
C82   H66   S    
C10   C11   D    
C24   O28   S    
C73   H44   S    
C57   O18   A    
Cr2   O20   S    
C18   O41   S    
C41   C43   A    
C48   O32   S    
Cr1   O24   S    
C25   H2    S    
Cr4   O14   S    
C77   C78   S    
C44   C46   A    
O35   C70   S    
C32   H5    S    
C70   H37   S    
Cr3   O5    S    
C79   H59   S    
Cr1   O1    S    
Cr5   O15   S    
C49   O33   S    
C28   C45   S    
C17   H1    S    
C34   O26   A    
C65   H22   S    
O40   H65   S    
C74   C75   S    
C67   H29   S    
C75   H49   S    
C24   C25   D    
C69   H35   S    
C54   O14   A    
O28   H17   S    
C10   C14   S    
C63   H16   S    
O37   C76   S    
C2    C59   A    
C84   H70   S    
Cr5   O9    S    
Cr6   O17   S    
C25   C26   S    
C30   C56   S    
C69   H33   S    
C33   O31   S    
C64   C65   S    
C74   H46   S    
C83   C84   S    
C35   C39   A    
C9    C14   T    
C60   O36   S    
C34   C41   S    
C55   O17   A    
C8    O37   S    
C70   C71   S    
C10   H9    S    
C47   C48   A    
C78   H56   S    
C72   H42   S    
C1    O20   A    
C44   O35   S    
C65   H21   S    
C61   H11   S    
C83   H69   S    
C51   O7    A    
Cr4   O7    S    
C12   O22   A    
C45   O3    A    
C52   C58   S    
Cr6   O18   S    
C64   H20   S    
C84   H71   S    
C76   H50   S    
C52   O10   A    
C49   C50   A    
C73   C74   S    
C22   C27   T    
C66   H25   S    
C13   C15   T    
C41   C44   A    
C71   C72   S    
Cr1   O25   S    
C42   C43   A    
C3    C4    A    
C51   O8    A    
C7    H6    S    
O39   C79   S    
C66   H24   S    
C70   H36   S    
C79   C80   S    
Cr5   O16   S    
C46   C47   A    
Cr5   O19   S    
C40   C57   S    
C5    C60   A    
C19   C21   T    
C31   C32   A    
C72   H41   S    
C4    C5    A    
C68   C69   S    
Cr6   O11   S    
C57   O13   A    
C22   C55   S    
C68   H32   S    
C46   C50   A    
O34   C67   S    
C26   C28   T    
C17   C18   D    
C62   C63   S    
C42   O34   S    
C80   C81   S    
C74   H45   S    
C69   H34   S    
O32   H27   S    
Cr4   O19   S    
C81   H62   S    
Cr3   O22   S    
C71   H38   S    
C30   C32   A    
C38   O29   S    
C11   C13   S    
C38   C39   A    
C62   H13   S    
C84   H72   S    
C50   H7    S    
C76   H51   S    
C33   C35   A    
C39   H4    S    
C80   H61   S    
C61   C62   S    
C11   O40   S    
C42   C47   A    
C6    O27   S    
O27   C61   S    
C53   O6    A    
C78   H55   S    
Cr4   O6    S    
C81   H63   S    
C68   H31   S    
C3    O39   S    
C23   O23   A    
C72   H40   S    
C36   C37   A    
O41   C82   S    
C62   H12   S    
C29   C37   A    
C61   H10   S    
C31   C36   A    
C12   O21   A    
C45   O2    A    
C2    O38   S    
C56   O24   A    
C63   H14   S    
Cr4   O13   S    
O29   H18   S    
C66   H23   S    
Cr3   O3    S    
C3    C59   A    
