data_mof_unit_2414.cif
_audit_creation_date              2012-12-10T18:43:45-0500
_audit_creation_method            fapswitch 2.2
_symmetry_space_group_name_H-M    P1
_symmetry_Int_Tables_number       1
_space_group_crystal_system       triclinic
_cell_length_a                    10.876073
_cell_length_b                    10.752474
_cell_length_c                    9.872114
_cell_angle_alpha                 92.093112
_cell_angle_beta                  106.396197
_cell_angle_gamma                 90.720934
_cell_volume                      1106.48675688

loop_
_atom_site_label
_atom_site_type_symbol
_atom_type_description
_atom_site_fract_x
_atom_site_fract_y
_atom_site_fract_z
_atom_type_partial_charge
C1    C     C_R   0.503169 0.260167 0.498314 0.908572
C2    C     C_R   0.496831 0.739833 0.501686 0.908567
C3    C     C_R   0.258026 0.497056 0.438699 0.883610
C4    C     C_R   0.741973 0.502945 0.561301 0.883616
C5    C     C_R   0.597124 0.557072 0.105033 -0.139169
C6    C     C_R   0.402876 0.442927 0.894967 -0.139186
C7    C     C_R   0.597644 0.556705 0.961813 0.052708
C8    C     C_R   0.402355 0.443295 0.038187 0.052703
C9    C     C_2   0.119055 0.498375 0.400160 0.034620
C10   C     C_2   0.880943 0.501630 0.599845 0.034618
C11   C     C_2   0.065148 0.483694 0.505424 -0.211120
C12   C     C_2   0.934856 0.516343 0.494591 -0.211151
C13   C     C_R   0.435756 0.058475 0.374622 0.143370
C14   C     C_R   0.564244 0.941524 0.625377 0.143370
C15   C     C_R   0.421979 0.930800 0.382181 -0.098309
C16   C     C_R   0.578021 0.069200 0.617819 -0.098311
C17   C     C_R   0.491032 0.872645 0.504949 -0.162512
C18   C     C_R   0.508968 0.127355 0.495050 -0.162513
H1    H     H_    0.878422 0.550342 0.394637 0.169164
H2    H     H_    0.121586 0.449716 0.605386 0.169174
H3    H     H_    0.674408 0.603133 0.185998 0.133369
H4    H     H_    0.325592 0.396865 0.814002 0.133366
N1    N     N_R   0.499970 0.499970 0.857200 -0.093556
N2    N     N_R   0.500030 0.500030 0.142800 -0.093557
O1    O     O_R   0.499990 0.316750 0.614620 -0.618186
O2    O     O_R   0.500010 0.683250 0.385380 -0.618188
O3    O     O_R   0.499990 0.316780 0.385290 -0.590396
O4    O     O_R   0.500010 0.683220 0.614710 -0.590397
O5    O     O_R   0.317810 0.500000 0.571850 -0.650994
O6    O     O_R   0.682190 0.500000 0.428150 -0.650992
O7    O     O_R   0.317810 0.500030 0.342520 -0.582193
O8    O     O_R   0.682190 0.499970 0.657480 -0.582191
Zn1   Zn    Zn3+2 0.500000 0.499980 0.653120 0.967341
Zn2   Zn    Zn3+2 0.500000 0.500020 0.346880 0.967340
N3    N     N_2   0.951917 0.473606 0.740214 -0.296964
H5    H     H_    0.995561 0.388541 0.748023 0.224299
C19   C     C_3   0.034563 0.573752 0.820136 -0.719649
H6    H     H_    0.124314 0.581654 0.788498 0.224243
H7    H     H_    0.060802 0.554798 0.934306 0.252727
H8    H     H_    0.985405 0.664184 0.803910 0.255484
N4    N     N_2   0.048073 0.526356 0.259781 -0.296963
H9    H     H_    0.004431 0.611420 0.251942 0.224309
C20   C     C_3   0.965415 0.426194 0.179914 -0.719792
H10   H     H_    0.875705 0.418264 0.211621 0.224289
H11   H     H_    0.014596 0.335784 0.196115 0.255511
H12   H     H_    0.939105 0.445137 0.065749 0.252713
C21   C     C_1   0.702860 0.617611 0.928707 0.222030
N5    N     N_1   0.788324 0.667763 0.904335 -0.218751
C22   C     C_1   0.297139 0.382389 0.071292 0.222030
N6    N     N_1   0.211676 0.332237 0.095664 -0.218729
N7    N     N_2   0.378062 0.117448 0.245659 -0.276942
H13   H     H_    0.282745 0.093109 0.201214 0.230033
C23   C     C_3   0.452100 0.107723 0.144642 -0.722027
H14   H     H_    0.464208 0.008600 0.116286 0.225901
H15   H     H_    0.548008 0.153322 0.189215 0.253368
H16   H     H_    0.401932 0.154111 0.046473 0.222080
N8    N     N_2   0.621943 0.882552 0.754339 -0.276939
H17   H     H_    0.717262 0.906889 0.798780 0.230030
C24   C     C_3   0.547911 0.892279 0.855363 -0.722024
H18   H     H_    0.535799 0.991402 0.883714 0.225901
H19   H     H_    0.598086 0.845897 0.953534 0.222078
H20   H     H_    0.452004 0.846675 0.810798 0.253368
C25   C     C_1   0.334090 0.860799 0.264769 0.184097
N9    N     N_1   0.264132 0.805079 0.171371 -0.206200
C26   C     C_1   0.665911 0.139201 0.735230 0.184099
N10   N     N_1   0.735870 0.194921 0.828627 -0.206194

loop_
_geom_bond_atom_site_label_1
_geom_bond_atom_site_label_2
_ccdc_geom_bond_type
C1    O1    A    
C11   C12   S    
C7    C21   S    
C15   C17   A    
C19   H6    S    
C3    C9    S    
N4    C20   S    
N4    H9    S    
C9    N4    S    
N3    H5    S    
C20   H10   S    
C1    O3    A    
O8    Zn1   S    
C13   C15   A    
C1    C18   S    
O7    Zn2   S    
C24   H18   S    
C2    O2    A    
C23   H14   S    
C2    C17   S    
C3    O7    A    
C20   H11   S    
C9    C11   D    
C14   C17   A    
N8    H17   S    
C4    O8    A    
C5    N2    A    
C10   C12   D    
C13   C18   A    
C7    N1    A    
C6    N1    A    
C6    C8    A    
C12   H1    S    
C16   C18   A    
C8    N2    A    
O4    Zn1   S    
C26   N10   T    
C19   H8    S    
C23   H15   S    
O3    Zn2   S    
C19   H7    S    
C10   N3    S    
C14   C16   A    
C11   H2    S    
C20   H12   S    
N8    C24   S    
C24   H19   S    
O6    Zn2   S    
N7    C23   S    
C4    C10   S    
N7    H13   S    
C6    H4    S    
O5    Zn1   S    
C5    H3    S    
C3    O5    A    
C22   N6    T    
C23   H16   S    
C5    C7    A    
C14   N8    S    
C15   C25   S    
C24   H20   S    
C2    O4    A    
C16   C26   S    
N3    C19   S    
C13   N7    S    
C8    C22   S    
O2    Zn2   S    
C4    O6    A    
C21   N5    T    
O1    Zn1   S    
C25   N9    T    
N1    Zn1   S    
N2    Zn2   S    
