data_mof_unit_3908.cif
_audit_creation_date              2012-12-10T17:48:37-0500
_audit_creation_method            fapswitch 2.2
_symmetry_space_group_name_H-M    P1
_symmetry_Int_Tables_number       1
_space_group_crystal_system       triclinic
_cell_length_a                    15.754511
_cell_length_b                    10.7027
_cell_length_c                    9.965841
_cell_angle_alpha                 90.407294
_cell_angle_beta                  90.468439
_cell_angle_gamma                 93.310922
_cell_volume                      1677.48898791

loop_
_atom_site_label
_atom_site_type_symbol
_atom_type_description
_atom_site_fract_x
_atom_site_fract_y
_atom_site_fract_z
_atom_type_partial_charge
C1    C     C_R   0.504081 0.260664 0.499223 0.920503
C2    C     C_R   0.685080 0.082375 0.753971 0.590372
C3    C     C_R   0.684894 0.951286 0.755026 0.145626
C4    C     C_R   0.338802 0.502390 0.499561 0.924657
C5    C     C_R   0.629119 0.881663 0.669846 -0.272444
C6    C     C_R   0.570056 0.940370 0.587147 0.060653
C7    C     C_R   0.569776 0.071581 0.586171 -0.034591
C8    C     C_R   0.513501 0.128386 0.496109 -0.190210
C9    C     C_R   0.466676 0.057117 0.398799 0.499984
C10   C     C_R   0.461939 0.929541 0.409343 -0.307447
C11   C     C_R   0.512290 0.871847 0.501764 -0.143422
C12   C     C_3   0.948524 0.376248 0.499987 0.054964
C13   C     C_R   0.375742 0.360532 0.145121 -0.121934
C14   C     C_R   0.304132 0.304307 0.084980 0.136716
C15   C     C_R   0.298051 0.304496 0.947364 -0.350978
C16   C     C_R   0.504613 0.739274 0.500776 0.881373
C17   C     C_R   0.366640 0.351752 0.867363 0.529172
C18   C     C_R   0.435235 0.429567 0.928686 0.060511
C19   C     C_R   0.437048 0.431527 0.073147 0.033308
C20   C     C_R   0.560129 0.566098 0.072260 -0.083234
C21   C     C_R   0.560181 0.566019 0.929694 -0.102796
C22   C     C_R   0.661422 0.501614 0.500534 0.864289
C23   C     C_3   0.917422 0.513507 0.502798 0.206629
C24   C     C_3   0.046051 0.379791 0.484735 -0.423600
C25   C     C_3   0.051304 0.603662 0.388155 0.389529
C26   C     C_3   0.952074 0.594639 0.381613 -0.102333
C27   C     C_1   0.750260 0.506911 0.502141 -0.208180
C28   C     C_3   0.084376 0.515956 0.501562 0.094101
C29   C     C_3   0.903902 0.281827 0.400552 -0.930930
C30   C     C_3   0.461972 0.091093 0.174372 -0.279191
C31   C     C_3   0.808636 0.201426 0.764960 -0.379117
C32   C     C_3   0.744749 0.883096 0.843114 -0.905427
C33   C     C_3   0.239150 0.229524 0.165711 -0.870169
C34   C     C_3   0.954839 0.580583 0.634440 -0.082089
C35   C     C_3   0.306179 0.232771 0.682755 -0.330206
C36   C     C_3   0.107809 0.494249 0.200848 -0.266336
C37   C     C_3   0.911747 0.563652 0.242674 -0.789339
C38   C     C_3   0.086085 0.494807 0.762768 -0.858338
C39   C     C_3   0.907538 0.544924 0.765651 -0.868699
C40   C     C_3   0.054194 0.568511 0.640444 -0.025128
C41   C     C_1   0.825594 0.511154 0.503225 -0.036304
C42   C     C_1   0.175775 0.515374 0.499509 -0.034440
C43   C     C_1   0.250635 0.510073 0.498831 -0.199793
C44   C     C_R   0.628396 0.141547 0.669706 -0.305596
H1    H     H_    0.073146 0.317843 0.561192 0.162664
H2    H     H_    0.242331 0.254933 0.904988 0.164524
H3    H     H_    0.609494 0.620154 0.877423 0.134153
H4    H     H_    0.067330 0.699572 0.428589 0.059062
H5    H     H_    0.931839 0.691568 0.399749 0.114813
H6    H     H_    0.084070 0.664845 0.653722 0.133733
H7    H     H_    0.834362 0.291992 0.394704 0.258425
H8    H     H_    0.931066 0.287775 0.298705 0.245895
H9    H     H_    0.913424 0.185285 0.435690 0.230436
H10   H     H_    0.470560 0.990316 0.153713 0.156315
H11   H     H_    0.524410 0.145115 0.171132 0.183809
H12   H     H_    0.934196 0.335652 0.600053 0.157288
H13   H     H_    0.422088 0.123548 0.091169 0.194218
H14   H     H_    0.789628 0.277667 0.697776 0.180932
H15   H     H_    0.838934 0.127386 0.705992 0.161461
H16   H     H_    0.857310 0.241336 0.836497 0.193101
H17   H     H_    0.786647 0.947724 0.905112 0.279701
H18   H     H_    0.707574 0.820133 0.911758 0.230471
H19   H     H_    0.785658 0.825977 0.779797 0.228544
H20   H     H_    0.248081 0.246645 0.275182 0.237964
H21   H     H_    0.174117 0.254454 0.136928 0.214342
H22   H     H_    0.244780 0.128259 0.145153 0.263428
H23   H     H_    0.944721 0.682368 0.624703 0.126777
H24   H     H_    0.246193 0.282688 0.681622 0.147621
H25   H     H_    0.299308 0.141919 0.736117 0.164106
H26   H     H_    0.320786 0.211023 0.576702 0.184096
H27   H     H_    0.050689 0.429766 0.195627 0.149616
H28   H     H_    0.161649 0.450564 0.250064 0.184036
H29   H     H_    0.127360 0.511946 0.095760 0.184774
H30   H     H_    0.843041 0.581688 0.243540 0.228052
H31   H     H_    0.941500 0.625584 0.165164 0.255956
H32   H     H_    0.916831 0.466117 0.210858 0.241806
H33   H     H_    0.054259 0.399958 0.769084 0.234093
H34   H     H_    0.633351 0.242484 0.668704 0.185380
H35   H     H_    0.155748 0.485152 0.758473 0.239293
H36   H     H_    0.074289 0.546264 0.857178 0.242862
H37   H     H_    0.911649 0.444922 0.789980 0.238158
H38   H     H_    0.934598 0.602226 0.850678 0.246855
H39   H     H_    0.839429 0.565548 0.758568 0.243195
H40   H     H_    0.634261 0.781435 0.667682 0.179903
H41   H     H_    0.419119 0.875052 0.342657 0.182387
H42   H     H_    0.609468 0.620523 0.126332 0.137066
H43   H     H_    0.064727 0.337548 0.388829 0.176771
H44   H     H_    0.384529 0.340493 0.247981 0.252396
N1    N     N_R   0.499210 0.498800 0.142780 -0.105466
N2    N     N_R   0.499180 0.498720 0.857170 -0.098306
O1    O     O_R   0.500000 0.316780 0.614690 -0.551778
O2    O     O_3   0.738605 0.152991 0.839127 -0.602312
O3    O     O_3   0.374423 0.309379 0.736904 -0.545013
O4    O     O_3   0.092905 0.610114 0.261292 -0.589260
O5    O     O_R   0.499990 0.316750 0.385360 -0.616301
O6    O     O_R   0.377150 0.500020 0.614720 -0.558325
O7    O     O_R   0.377140 0.499990 0.385380 -0.643501
O8    O     O_R   0.500010 0.683250 0.614640 -0.625574
O9    O     O_R   0.500000 0.683220 0.385310 -0.619388
O10   O     O_R   0.622860 0.500010 0.614620 -0.636330
O11   O     O_R   0.622850 0.499980 0.385280 -0.615143
O12   O     O_3   0.420928 0.111490 0.297881 -0.623693
Zn1   Zn    Zn3+2 0.500010 0.500020 0.653130 0.982905
Zn2   Zn    Zn3+2 0.499990 0.499980 0.346870 0.946893

loop_
_geom_bond_atom_site_label_1
_geom_bond_atom_site_label_2
_ccdc_geom_bond_type
C37   H30   S    
C10   H41   S    
C12   C29   S    
C1    C8    S    
C14   C33   S    
C33   H21   S    
C7    C8    A    
C25   C28   S    
C30   H10   S    
C12   C23   S    
C22   O11   A    
C29   H9    S    
C34   C40   S    
C24   H1    S    
C31   H14   S    
C32   H17   S    
C29   H7    S    
C5    C6    A    
C38   H35   S    
C28   C40   S    
O8    Zn1   S    
C30   H13   S    
C18   C19   A    
C23   C26   S    
C31   H15   S    
C4    O6    A    
C35   H26   S    
C2    C44   A    
C8    C9    A    
C20   H42   S    
C9    C10   A    
C36   H27   S    
O9    Zn2   S    
C37   H31   S    
C25   O4    S    
C1    O1    A    
C13   C14   A    
C33   H22   S    
C21   N2    A    
C35   O3    S    
C22   O10   A    
C13   C19   A    
C34   C39   S    
C18   N2    A    
C39   H37   S    
C36   H29   S    
C26   H5    S    
C6    C11   A    
C5    H40   S    
C9    O12   S    
C25   C26   S    
O10   Zn1   S    
C31   H16   S    
C19   N1    A    
C11   C16   S    
C27   C41   T    
C1    O5    A    
C23   C34   S    
C30   O12   S    
C17   C18   A    
C16   O9    A    
C7    C44   A    
C2    O2    S    
C25   H4    S    
C12   H12   S    
C4    C43   S    
C37   H32   S    
O11   Zn2   S    
C22   C27   S    
N1    Zn2   S    
C17   O3    S    
C42   C43   T    
O5    Zn2   S    
C20   N1    A    
C15   C17   A    
C39   H38   S    
C24   C28   S    
C32   H19   S    
O1    Zn1   S    
C3    C5    A    
C34   H23   S    
C26   C37   S    
C6    C7    A    
C38   H33   S    
C30   H11   S    
C12   C24   S    
C23   C41   S    
C44   H34   S    
C2    C3    A    
C39   H39   S    
C38   C40   S    
C16   O8    A    
C38   H36   S    
C35   H24   S    
C33   H20   S    
C40   H6    S    
C13   H44   S    
C28   C42   S    
C3    C32   S    
C24   H43   S    
N2    Zn1   S    
O7    Zn2   S    
C10   C11   A    
C32   H18   S    
C36   O4    S    
C20   C21   A    
C35   H25   S    
C31   O2    S    
O6    Zn1   S    
C14   C15   A    
C15   H2    S    
C4    O7    A    
C36   H28   S    
C21   H3    S    
C29   H8    S    
