data_mof_unit_2773.cif
_audit_creation_date              2013-03-05T15:42:03-0500
_audit_creation_method            fapswitch 2.2
_symmetry_space_group_name_H-M    P1
_symmetry_Int_Tables_number       1
_space_group_crystal_system       triclinic
_cell_length_a                    27.809738
_cell_length_b                    8.670466
_cell_length_c                    7.431158
_cell_angle_alpha                 103.036123
_cell_angle_beta                  94.181156
_cell_angle_gamma                 92.334505
_cell_volume                      1737.98380318

loop_
_atom_site_label
_atom_site_type_symbol
_atom_site_description
_atom_site_fract_x
_atom_site_fract_y
_atom_site_fract_z
_atom_type_partial_charge
O1    O     O_R   0.503500 0.286120 0.619780 -0.583740
O2    O     O_R   0.496500 0.713880 0.380220 -0.583739
O3    O     O_R   0.494410 0.256780 0.308360 -0.582582
O4    O     O_R   0.505590 0.743220 0.691640 -0.582581
C1    C     C_R   0.498542 0.199606 0.453137 0.893200
C2    C     C_R   0.501458 0.800394 0.546863 0.893201
O5    O     O_R   0.434810 0.514700 0.655690 -0.591634
O6    O     O_R   0.565190 0.485300 0.344310 -0.591635
O7    O     O_R   0.425720 0.485350 0.344280 -0.584632
O8    O     O_R   0.574280 0.514650 0.655720 -0.584633
C3    C     C_R   0.407514 0.500128 0.502501 0.801380
C4    C     C_R   0.592486 0.499871 0.497498 0.801381
Cu1   Cu    Cu3+1 0.505380 0.517380 0.684380 0.959279
Cu2   Cu    Cu3+1 0.494620 0.482620 0.315620 0.959279
C5    C     C_R   0.175369 0.367204 0.432731 0.583668
C6    C     C_R   0.824630 0.632751 0.567264 0.583660
O9    O     O_2   0.197208 0.234403 0.357501 -0.471453
O10   O     O_2   0.802791 0.765554 0.642486 -0.471465
N1    N     N_R   0.202583 0.502569 0.514894 -0.483738
N2    N     N_R   0.797417 0.497384 0.485103 -0.483734
C7    C     C_R   0.181851 0.639390 0.592426 0.579226
C8    C     C_R   0.818150 0.360563 0.407577 0.579242
C9    C     C_R   0.275242 0.494463 0.346747 -0.088144
C10   C     C_R   0.724758 0.505550 0.653259 -0.088145
C11   C     C_R   0.325195 0.493729 0.343463 -0.198355
C12   C     C_R   0.674806 0.506300 0.656544 -0.198356
C13   C     C_R   0.333294 0.509367 0.674765 -0.211506
C14   C     C_R   0.666704 0.490564 0.325221 -0.211515
C15   C     C_R   0.283180 0.509908 0.677584 -0.075651
C16   C     C_R   0.716818 0.490005 0.322399 -0.075648
C17   C     C_R   0.254075 0.502368 0.513472 0.339835
C18   C     C_R   0.745924 0.497587 0.486522 0.339824
C19   C     C_R   0.102276 0.504806 0.504008 -0.093875
C20   C     C_R   0.897724 0.495147 0.496008 -0.093877
C21   C     C_R   0.124941 0.365207 0.427600 -0.002716
C22   C     C_R   0.875058 0.634749 0.572401 -0.002706
C23   C     C_R   0.097010 0.226657 0.345440 -0.057709
C24   C     C_R   0.902989 0.773303 0.654551 -0.057705
C25   C     C_R   0.131000 0.645982 0.582221 -0.138432
C26   C     C_R   0.869001 0.353969 0.417805 -0.138431
C27   C     C_R   0.354722 0.501118 0.507418 -0.038737
C28   C     C_R   0.645278 0.498871 0.492580 -0.038737
H1    H     H_    0.355158 0.514933 0.803065 0.157108
H2    H     H_    0.644840 0.484966 0.196912 0.157113
H3    H     H_    0.266931 0.515670 0.806869 0.144823
H4    H     H_    0.733067 0.484199 0.193105 0.144832
H5    H     H_    0.113631 0.118851 0.282773 0.219048
H6    H     H_    0.886367 0.881111 0.717204 0.219023
C29   C     C_R   0.971647 0.356502 0.422627 -0.010129
C30   C     C_R   0.028354 0.643451 0.577406 -0.010122
C31   C     C_R   0.977151 0.640611 0.578258 0.075407
C32   C     C_R   0.022849 0.359345 0.421760 0.075403
C33   C     C_R   0.949024 0.497365 0.498686 0.076586
C34   C     C_R   0.050976 0.502589 0.501336 0.076583
C35   C     C_R   0.942221 0.215652 0.354004 -0.275394
C36   C     C_R   0.057781 0.784294 0.646059 -0.275388
C37   C     C_R   0.892052 0.212407 0.352116 0.362840
C38   C     C_R   0.107949 0.787538 0.647943 0.362849
O11   O     O_2   0.789414 0.232748 0.319822 -0.455435
O12   O     O_2   0.210588 0.767209 0.680162 -0.455423
C39   C     C_R   0.047133 0.223636 0.341299 -0.208306
C40   C     C_R   0.952866 0.776324 0.658697 -0.208287
H7    H     H_    0.659388 0.512407 0.787520 0.159136
H8    H     H_    0.340614 0.487667 0.212498 0.159135
H9    H     H_    0.747131 0.510922 0.780359 0.147498
H10   H     H_    0.252870 0.489125 0.219656 0.147490
H11   H     H_    0.957001 0.102411 0.306316 0.169623
H12   H     H_    0.043003 0.897534 0.693787 0.169602
H13   H     H_    0.028934 0.112210 0.271080 0.147512
H14   H     H_    0.971063 0.887758 0.728897 0.147500
C41   C     C_2   0.497842 0.031658 0.426707 -0.360779
C42   C     C_2   0.502158 0.968341 0.573293 -0.360779
H15   H     H_    0.493775 0.959821 0.285542 0.180118
H16   H     H_    0.506225 0.040178 0.714458 0.180118
N3    N     N_2   0.486510 0.456430 0.038510 -0.218020
N4    N     N_2   0.513490 0.543570 0.961490 -0.218020
H17   H     H_    0.462194 0.378102 0.948280 0.226037
H18   H     H_    0.537806 0.621898 0.051720 0.226039
N5    N     N_R   0.865758 0.061318 0.292390 0.161256
O13   O     O_R   0.841946 0.005037 0.410137 -0.297138
O14   O     O_R   0.874167 0.966698 0.136697 -0.355472
N6    N     N_R   0.134245 0.938620 0.707721 0.161266
O15   O     O_R   0.158036 0.994978 0.589975 -0.297166
O16   O     O_R   0.125859 0.033163 0.863503 -0.355447

loop_
_geom_bond_atom_site_label_1
_geom_bond_atom_site_label_2
_geom_bond_distance
_ccdc_geom_bond_type
C1    C41   1.423914 S    
C13   C15   1.395527 A    
C37   N5    1.435324 S    
C12   H7    1.083246 S    
N1    C17   1.432860 S    
C5    N1    1.363836 A    
C19   C25   1.416299 A    
O1    C1    1.289502 A    
C9    H10   1.083260 S    
N1    C7    1.366564 A    
N4    H18   1.029139 S    
C32   C39   1.415734 A    
C38   N6    1.435324 S    
C40   H14   1.075190 S    
O4    Cu1   1.946435 S    
C4    C28   1.471591 S    
C23   H5    1.083723 S    
C24   H6    1.083726 S    
O6    C4    1.299752 A    
Cu1   Cu2   2.681453 S    
O2    C2    1.289501 A    
C31   C40   1.415737 A    
C5    C21   1.399420 A    
C32   C34   1.423431 A    
O5    C3    1.299752 A    
C7    O12   1.348282 S    
O4    C2    1.282046 A    
C11   C27   1.406205 A    
C8    O11   1.348282 S    
C41   H15   1.087834 S    
O7    Cu2   1.943772 S    
C29   C35   1.413469 A    
C25   C38   1.412511 A    
C14   H2    1.083222 S    
C30   C36   1.413477 A    
C15   H3    1.083151 S    
C31   C33   1.423435 A    
C11   H8    1.083241 S    
C9    C17   1.399123 A    
C2    C42   1.423914 S    
N3    N4    1.293410 D    
C10   C18   1.399124 A    
N3    H17   1.029140 S    
C13   C27   1.406449 A    
C23   C39   1.384216 A    
C7    C25   1.414842 A    
Cu1   N4    2.014965 S    
C6    N2    1.363838 A    
C29   C32   1.423641 A    
C8    C26   1.414843 A    
C30   C31   1.423647 A    
C30   C34   1.417747 A    
O7    C3    1.295884 A    
O3    Cu2   1.946435 S    
O8    C4    1.295885 A    
C10   H9    1.083267 S    
C42   H16   1.087833 S    
N2    C8    1.366566 A    
N6    O16   1.301275 A    
C35   C37   1.393290 A    
C20   C26   1.416300 A    
O1    Cu1   1.951229 S    
C22   C24   1.393983 A    
C12   C28   1.406215 A    
N5    O14   1.301242 A    
N2    C18   1.432867 S    
C39   H13   1.075193 S    
C19   C34   1.424606 A    
C5    O9    1.350289 S    
O6    Cu2   1.957184 S    
C26   C37   1.412516 A    
C21   C23   1.393984 A    
C16   H4    1.083151 S    
C10   C12   1.391402 A    
O3    C1    1.282045 A    
O8    Cu1   1.943775 S    
C35   H11   1.075049 S    
Cu2   N3    2.014966 S    
C14   C16   1.395529 A    
C41   C42   1.326075 D    
C15   C17   1.400886 A    
C36   H12   1.075050 S    
C6    C22   1.399418 A    
C16   C18   1.400899 A    
C29   C33   1.417742 A    
C14   C28   1.406451 A    
C19   C21   1.410336 A    
C36   C38   1.393281 A    
C3    C27   1.471589 S    
C20   C22   1.410333 A    
C9    C11   1.391403 A    
O2    Cu2   1.951230 S    
N5    O13   1.301176 A    
C13   H1    1.083209 S    
O5    Cu1   1.957184 S    
C20   C33   1.424603 A    
C6    O10   1.350290 S    
N6    O15   1.301195 A    
C24   C40   1.384213 A    
