data_mof_unit_1787.cif
_audit_creation_date              2013-03-05T15:52:03-0500
_audit_creation_method            fapswitch 2.2
_symmetry_space_group_name_H-M    P1
_symmetry_Int_Tables_number       1
_space_group_crystal_system       triclinic
_cell_length_a                    12.142234
_cell_length_b                    12.790351
_cell_length_c                    27.619601
_cell_angle_alpha                 92.640705
_cell_angle_beta                  86.846716
_cell_angle_gamma                 93.481073
_cell_volume                      4271.09069837

loop_
_atom_site_label
_atom_site_type_symbol
_atom_site_description
_atom_site_fract_x
_atom_site_fract_y
_atom_site_fract_z
_atom_type_partial_charge
O1    O     O_R   0.421700 0.658820 0.502400 -0.529823
O2    O     O_R   0.578300 0.341180 0.497600 -0.573569
O3    O     O_R   0.609310 0.646410 0.496630 -0.667265
O4    O     O_R   0.390690 0.353590 0.503370 -0.654703
C1    C     C_R   0.522244 0.699929 0.498722 0.892579
C2    C     C_R   0.478127 0.299951 0.500427 0.890242
O5    O     O_R   0.406200 0.506190 0.574130 -0.575646
O6    O     O_R   0.593800 0.493810 0.425870 -0.529123
O7    O     O_R   0.593820 0.493770 0.568360 -0.649006
O8    O     O_R   0.406180 0.506230 0.431640 -0.658977
C3    C     C_R   0.500711 0.500935 0.593869 0.909923
C4    C     C_R   0.498812 0.498795 0.406267 0.895628
Zn1   Zn    Zn3+2 0.374730 0.508290 0.503850 1.032350
Zn2   Zn    Zn3+2 0.625270 0.491710 0.496150 1.031751
C5    C     C_R   0.467006 0.591751 0.826768 0.607187
C6    C     C_R   0.499425 0.389034 0.175105 0.626420
O9    O     O_2   0.435239 0.676498 0.804982 -0.518724
O10   O     O_2   0.539104 0.307784 0.196821 -0.495338
N1    N     N_R   0.503263 0.507897 0.799306 -0.344332
N2    N     N_R   0.464564 0.473645 0.202428 -0.349073
C7    C     C_R   0.538669 0.421666 0.819836 0.596002
C8    C     C_R   0.422229 0.556703 0.181987 0.589765
C9    C     C_R   0.405236 0.488679 0.724981 -0.145559
C10   C     C_R   0.565917 0.529555 0.273429 -0.146904
C11   C     C_R   0.403799 0.486249 0.674776 -0.129477
C12   C     C_R   0.575274 0.537063 0.323387 -0.121069
C13   C     C_R   0.601818 0.527643 0.669599 -0.267307
C14   C     C_R   0.400175 0.436606 0.334025 -0.281953
C15   C     C_R   0.603656 0.532118 0.720124 0.412948
C16   C     C_R   0.389474 0.429463 0.284025 0.437522
C17   C     C_R   0.504508 0.510521 0.747763 0.173344
C18   C     C_R   0.473563 0.476219 0.253677 0.171161
C19   C     C_R   0.495481 0.500539 0.899440 -0.052919
C20   C     C_R   0.458173 0.474440 0.102533 -0.055380
C21   C     C_R   0.464318 0.590322 0.877453 -0.073200
C22   C     C_R   0.494110 0.386775 0.124591 -0.104618
C23   C     C_R   0.440123 0.679358 0.906187 -0.175720
C24   C     C_R   0.516449 0.296725 0.096219 -0.144072
C25   C     C_R   0.536817 0.416974 0.870320 -0.028020
C26   C     C_R   0.417549 0.558352 0.131606 -0.030179
C27   C     C_R   0.502261 0.504490 0.646765 -0.107384
C28   C     C_R   0.492672 0.490153 0.353775 -0.072794
H1    H     H_    0.677950 0.543199 0.648146 0.238434
H2    H     H_    0.336399 0.400534 0.357777 0.198818
H3    H     H_    0.427592 0.752101 0.889184 0.217329
H4    H     H_    0.531683 0.225032 0.113544 0.235640
C29   C     C_R   0.432099 0.570307 0.030008 0.071880
C30   C     C_R   0.515837 0.401930 0.971901 0.092296
C31   C     C_R   0.496723 0.390227 0.022488 -0.078282
C32   C     C_R   0.452352 0.582640 0.979570 -0.064320
C33   C     C_R   0.463084 0.478430 0.051437 0.050134
C34   C     C_R   0.486557 0.494691 0.950504 0.052035
C35   C     C_R   0.373572 0.643036 0.059562 -0.097406
C36   C     C_R   0.573437 0.328484 0.942355 -0.093404
C37   C     C_R   0.370167 0.639749 0.109760 -0.077475
C38   C     C_R   0.579691 0.333254 0.892226 -0.096296
O11   O     O_2   0.385527 0.637382 0.210405 -0.508687
O12   O     O_2   0.575038 0.340872 0.791400 -0.509402
C39   C     C_R   0.445190 0.679910 0.956523 0.299565
C40   C     C_R   0.506566 0.294045 0.046059 0.356546
H5    H     H_    0.645022 0.581796 0.338252 0.197530
H6    H     H_    0.325976 0.468601 0.657917 0.203732
H7    H     H_    0.629531 0.566653 0.249899 0.176139
H8    H     H_    0.329181 0.472570 0.746394 0.175641
H9    H     H_    0.330051 0.700902 0.131268 0.211928
H10   H     H_    0.619927 0.272025 0.870815 0.208024
H11   H     H_    0.329203 0.702730 0.044249 0.210326
H12   H     H_    0.616243 0.267626 0.957545 0.203401
C41   C     C_R   0.465365 0.188271 0.498236 -0.052463
C42   C     C_R   0.537938 0.811302 0.498164 -0.046116
C43   C     C_R   0.631190 0.971194 0.526984 -0.159282
C44   C     C_R   0.376370 0.028863 0.466359 -0.140571
C45   C     C_R   0.625770 0.862973 0.521957 -0.172711
C46   C     C_R   0.377971 0.136686 0.474125 -0.152514
C47   C     C_R   0.459764 0.866327 0.476632 -0.173468
C48   C     C_R   0.548836 0.133493 0.516160 -0.195384
C49   C     C_R   0.461264 0.973705 0.483432 0.154707
C50   C     C_R   0.547604 0.026396 0.508958 0.161491
H13   H     H_    0.615618 0.174620 0.535163 0.171501
H14   H     H_    0.395515 0.825049 0.456203 0.181085
H15   H     H_    0.313909 0.179964 0.459799 0.200082
H16   H     H_    0.687197 0.819654 0.538189 0.186934
H17   H     H_    0.698072 0.011233 0.546195 0.173903
H18   H     H_    0.309556 0.988860 0.447099 0.176729
N3    N     N_R   0.207800 0.519340 0.508990 -0.242328
N4    N     N_R   0.792200 0.480660 0.491010 -0.242990
C51   C     C_R   0.949976 0.379193 0.464766 0.401898
C52   C     C_R   0.044467 0.574119 0.556436 0.371464
C53   C     C_R   0.839826 0.405647 0.459742 0.359330
C54   C     C_R   0.159181 0.585549 0.544308 0.362100
C55   C     C_R   0.858543 0.535720 0.523706 0.526491
C56   C     C_R   0.139632 0.449385 0.483063 0.539522
C57   C     C_R   0.974530 0.521574 0.523177 -0.264414
C58   C     C_R   0.022093 0.450331 0.489587 -0.260298
O13   O     O_3   0.182343 0.383494 0.447033 -0.693682
H19   H     H_    0.262748 0.387293 0.448030 0.369264
O14   O     O_3   0.817056 0.612609 0.554703 -0.700430
H20   H     H_    0.738145 0.615943 0.550233 0.372731
S1    S     S_3+6 0.226380 0.706198 0.564801 0.099796
O15   O     O_2   0.329437 0.689329 0.590237 -0.268708
O16   O     O_2   0.253392 0.770564 0.521245 -0.331246
O17   O     O_3   0.145254 0.777884 0.602825 -0.458589
H21   H     H_    0.189937 0.843691 0.609894 0.389150
S2    S     S_3+6 0.781765 0.363151 0.403777 0.114670
O18   O     O_2   0.671386 0.305426 0.411629 -0.270157
O19   O     O_2   0.770885 0.458336 0.375014 -0.314230
O20   O     O_3   0.863497 0.284283 0.369643 -0.439994
H22   H     H_    0.825353 0.270065 0.339027 0.397234
S3    S     S_3+6 0.982848 0.245243 0.456637 0.116254
O21   O     O_2   0.047080 0.227395 0.409171 -0.184486
O22   O     O_2   0.051465 0.217149 0.497305 -0.287550
O23   O     O_3   0.865996 0.167377 0.457491 -0.519639
H23   H     H_    0.890963 0.095015 0.453736 0.385974
S4    S     S_3+6 0.996792 0.591014 0.618323 0.152584
O24   O     O_2   0.943639 0.693954 0.626406 -0.162952
O25   O     O_2   0.913301 0.503479 0.630907 -0.242229
O26   O     O_3   0.103093 0.588192 0.654749 -0.512531
H24   H     H_    0.070081 0.598815 0.688081 0.409644
S5    S     S_3+6 0.730918 0.563886 0.747172 0.094782
O27   O     O_2   0.714171 0.611644 0.797581 -0.284768
O28   O     O_2   0.791592 0.465490 0.749563 -0.187939
O29   O     O_3   0.808229 0.648969 0.713156 -0.459262
H25   H     H_    0.764353 0.711814 0.713050 0.366388
S6    S     S_3+6 0.270088 0.364031 0.260434 0.090477
O30   O     O_2   0.216871 0.435252 0.228060 -0.221706
O31   O     O_2   0.301925 0.267659 0.231047 -0.248738
O32   O     O_3   0.178031 0.329102 0.305451 -0.464170
H26   H     H_    0.205632 0.264927 0.318130 0.376797
S7    S     S_3+6 0.473748 0.806071 0.984898 0.073732
O33   O     O_2   0.537096 0.798080 0.029698 -0.206893
O34   O     O_2   0.542386 0.873823 0.950260 -0.226382
O35   O     O_3   0.355261 0.864420 0.999555 -0.503914
H27   H     H_    0.321644 0.872653 0.968183 0.355836
S8    S     S_3+6 0.476328 0.167037 0.019064 0.073557
O36   O     O_2   0.582121 0.114051 0.006835 -0.245906
O37   O     O_2   0.407438 0.102341 0.054840 -0.191853
O38   O     O_3   0.405088 0.173603 0.968849 -0.540033
H28   H     H_    0.399411 0.100796 0.954960 0.405607

loop_
_geom_bond_atom_site_label_1
_geom_bond_atom_site_label_2
_geom_bond_distance
_ccdc_geom_bond_type
C2    C41   1.426270 S    
C57   C58   1.397003 A    
C13   C15   1.395374 A    
C45   H16   1.083581 S    
O13   H19   0.976397 S    
C48   H13   1.085950 S    
N1    C17   1.424774 S    
C8    O11   1.349915 S    
S2    O19   1.500309 D    
S4    O24   1.503388 D    
C49   C50   1.414920 A    
C19   C34   1.413630 A    
C30   C36   1.408513 A    
C15   S5    1.770242 S    
C20   C33   1.412367 A    
C19   C25   1.408085 A    
C31   C40   1.432382 A    
O1    C1    1.300205 A    
C32   C39   1.432766 A    
C21   C23   1.394520 A    
C12   H5    1.082084 S    
C48   C50   1.374365 A    
N4    C55   1.383085 A    
S3    O22   1.503803 D    
C1    C42   1.426350 S    
C36   H12   1.074837 S    
C51   C58   1.405859 A    
C41   C48   1.391622 A    
O4    Zn1   1.999179 S    
O23   H23   0.990475 S    
C4    C28   1.454577 S    
C5    N1    1.365669 A    
C39   S7    1.784295 S    
S1    O15   1.499802 D    
O35   H27   0.990474 S    
C31   C33   1.419767 A    
C32   C34   1.421002 A    
O20   H22   0.990603 S    
C43   C50   1.396944 A    
C47   H14   1.084743 S    
C6    N2    1.365662 A    
C29   C35   1.408240 A    
S7    O35   1.682016 S    
S5    O28   1.502201 D    
O2    C2    1.295789 A    
S8    O38   1.682372 S    
C35   H11   1.075572 S    
C5    C21   1.399420 A    
S2    O18   1.500346 D    
C37   H9    1.083309 S    
N3    C56   1.383724 A    
O14   H20   0.976518 S    
C29   C32   1.415579 A    
C43   H17   1.084057 S    
C35   C37   1.387278 A    
C36   C38   1.386396 A    
Zn2   N4    2.037094 S    
C44   C46   1.385005 A    
S3    O23   1.682984 S    
C11   C27   1.401186 A    
C43   C45   1.382681 A    
S8    O37   1.503712 D    
C14   H2    1.082352 S    
C56   O13   1.374240 S    
N4    C53   1.391698 A    
C9    C17   1.397600 A    
O5    C3    1.303935 A    
O7    Zn2   2.009174 S    
C10   C18   1.400220 A    
C44   C49   1.398247 A    
C55   C57   1.429962 A    
O7    C3    1.304587 A    
C13   C27   1.403533 A    
S4    O25   1.503766 D    
C25   C38   1.394904 A    
C7    C25   1.397290 A    
C30   C34   1.422067 A    
O6    C4    1.307013 A    
C26   C37   1.395620 A    
C8    C26   1.396957 A    
C42   C45   1.399103 A    
C56   C58   1.429370 A    
C41   C46   1.398956 A    
C44   H18   1.083934 S    
C55   O14   1.374391 S    
S5    O27   1.502813 D    
C47   C49   1.376748 A    
C23   C39   1.394680 A    
O3    Zn2   1.999180 S    
O8    C4    1.298219 A    
S6    O32   1.683032 S    
C24   C40   1.395830 A    
O4    C2    1.295487 A    
C30   C31   1.416956 A    
S1    O16   1.499204 D    
C52   C54   1.414979 A    
C10   H7    1.082955 S    
C51   C53   1.415020 A    
C53   S2    1.782601 S    
C20   C26   1.407587 A    
O1    Zn1   1.976112 S    
N2    C8    1.365675 A    
C46   H15   1.083670 S    
C23   H3    1.083823 S    
O32   H26   0.990697 S    
C40   S8    1.782041 S    
C54   S1    1.784613 S    
C12   C28   1.396822 A    
S6    O31   1.502921 D    
S7    O33   1.503023 D    
N2    C18   1.424413 S    
S5    O29   1.679664 S    
C5    O9    1.349897 S    
C52   C57   1.405802 A    
C9    H8    1.083084 S    
O6    Zn2   2.000572 S    
N1    C7    1.365575 A    
C10   C12   1.389150 A    
C16   S6    1.769938 S    
O3    C1    1.291146 A    
O8    Zn1   2.009179 S    
C29   C33   1.419528 A    
N3    C54   1.392275 A    
S8    O36   1.503451 D    
C51   S3    1.784030 S    
O38   H28   0.990605 S    
C22   C24   1.394850 A    
C7    O12   1.349894 S    
C15   C17   1.409368 A    
S3    O21   1.503537 D    
C6    C22   1.399092 A    
C16   C18   1.407332 A    
C38   H10   1.083378 S    
C14   C28   1.402706 A    
C19   C21   1.404636 A    
C14   C16   1.392482 A    
C3    C27   1.460701 S    
C20   C22   1.403726 A    
C11   H6    1.083290 S    
C9    C11   1.386602 A    
C52   S4    1.782053 S    
O17   H21   0.990948 S    
O2    Zn2   1.976111 S    
C24   H4    1.083888 S    
S4    O26   1.682668 S    
C13   H1    1.083279 S    
O5    Zn1   2.000566 S    
S1    O17   1.679603 S    
C6    O10   1.349764 S    
Zn1   N3    2.037094 S    
C42   C47   1.389879 A    
O29   H25   0.991134 S    
O26   H24   0.990530 S    
S2    O20   1.679960 S    
S6    O30   1.502328 D    
S7    O34   1.503917 D    
