data_mof_unit_1724.cif
_audit_creation_date              2012-12-10T21:00:21-0500
_audit_creation_method            fapswitch 2.2
_symmetry_space_group_name_H-M    P1
_symmetry_Int_Tables_number       1
_space_group_crystal_system       triclinic
_cell_length_a                    15.701137
_cell_length_b                    15.095211
_cell_length_c                    15.781204
_cell_angle_alpha                 88.352652
_cell_angle_beta                  89.822202
_cell_angle_gamma                 89.647863
_cell_volume                      3738.70182697

loop_
_atom_site_label
_atom_site_type_symbol
_atom_type_description
_atom_site_fract_x
_atom_site_fract_y
_atom_site_fract_z
_atom_type_partial_charge
C1    C     C_R   0.338542 0.500148 0.501564 0.896506
C2    C     C_3   0.616333 0.468137 0.952772 -0.072704
C3    C     C_3   0.605382 0.484550 0.056427 -0.076126
C4    C     C_1   0.513581 0.492545 0.824732 -0.152043
C5    C     C_1   0.502614 0.505098 0.174357 -0.114182
C6    C     C_1   0.500428 0.504277 0.249428 -0.161538
C7    C     C_R   0.954156 0.576452 0.554917 -0.243413
C8    C     C_R   0.956338 0.416201 0.545048 -0.218640
C9    C     C_R   0.912150 0.496403 0.545725 0.134007
C10   C     C_R   0.045001 0.415565 0.547936 -0.005521
C11   C     C_R   0.042770 0.578184 0.556103 0.000406
C12   C     C_R   0.087945 0.497447 0.549232 0.057792
C13   C     C_1   0.823867 0.497363 0.529715 -0.054670
C14   C     C_R   0.499368 0.501273 0.337950 0.917939
C15   C     C_1   0.176806 0.498906 0.533393 -0.075260
C16   C     C_1   0.250733 0.499834 0.517528 -0.176982
C17   C     C_1   0.749736 0.498533 0.515014 -0.173191
C18   C     C_R   0.459854 0.955077 0.435924 -0.059276
C19   C     C_R   0.461640 0.049521 0.434718 -0.062430
C20   C     C_R   0.498988 0.904969 0.502574 -0.026531
C21   C     C_R   0.501900 0.095039 0.500671 -0.026000
C22   C     C_R   0.539007 0.950351 0.569215 -0.064087
C23   C     C_R   0.541719 0.045104 0.567494 -0.059159
C24   C     C_1   0.499431 0.806877 0.501169 0.167147
C25   C     C_1   0.500819 0.193104 0.500145 0.175441
C26   C     C_R   0.661537 0.499696 0.500963 0.909426
C27   C     C_R   0.500857 0.498711 0.661813 0.911313
C28   C     C_3   0.475501 0.592564 0.043062 -0.184784
C29   C     C_3   0.448443 0.425124 0.052010 -0.186182
C30   C     C_3   0.447488 0.414404 0.950889 -0.031808
C31   C     C_3   0.483285 0.595327 0.941450 -0.008167
C32   C     C_1   0.507606 0.495258 0.749668 -0.280199
C33   C     C_3   0.507190 0.501879 0.081464 0.018174
C34   C     C_3   0.516343 0.492660 0.915451 0.098145
H1    H     H_    0.479529 0.368173 0.080129 0.075960
H2    H     H_    0.520862 0.638980 0.069210 0.172394
H3    H     H_    0.918070 0.637925 0.556486 0.148066
H4    H     H_    0.921783 0.354554 0.540171 0.154475
N1    N     N_1   0.500020 0.270550 0.499980 -0.079310
N2    N     N_1   0.500020 0.729450 0.499980 -0.083204
O1    O     O_R   0.378020 0.573650 0.500000 -0.611645
O2    O     O_R   0.378020 0.426350 0.500000 -0.614417
O3    O     O_R   0.500000 0.573700 0.377120 -0.622824
O4    O     O_R   0.500000 0.426300 0.377120 -0.599661
O5    O     O_R   0.621980 0.573680 0.499960 -0.613939
O6    O     O_R   0.621980 0.426320 0.499960 -0.587768
O7    O     O_R   0.500000 0.573630 0.622840 -0.601783
O8    O     O_R   0.500000 0.426370 0.622840 -0.613976
Zn1   Zn    Zn3+2 0.500000 0.598370 0.499970 0.984465
Zn2   Zn    Zn3+2 0.500000 0.401630 0.499970 1.002947
C35   C     C_R   0.397912 0.626509 0.894401 0.092129
C36   C     C_R   0.314775 0.615653 0.928821 -0.007669
C37   C     C_R   0.241995 0.650100 0.888856 -0.130262
C38   C     C_R   0.248400 0.694106 0.810793 -0.146445
C39   C     C_R   0.327424 0.702419 0.771929 -0.110286
C40   C     C_R   0.400456 0.669073 0.812302 -0.160550
H5    H     H_    0.303100 0.575223 0.983796 0.202406
H6    H     H_    0.179984 0.639992 0.917598 0.138803
H7    H     H_    0.191849 0.719684 0.779602 0.141773
H8    H     H_    0.332331 0.734507 0.709854 0.161328
H9    H     H_    0.458071 0.676434 0.776382 0.178088
C41   C     C_R   0.351403 0.413609 0.918021 0.149739
C42   C     C_R   0.295744 0.347274 0.953011 -0.031854
C43   C     C_R   0.213180 0.334908 0.923117 -0.124047
C44   C     C_R   0.184103 0.383711 0.853082 -0.130330
C45   C     C_R   0.238798 0.442248 0.811311 -0.151495
C46   C     C_R   0.321482 0.454548 0.841292 -0.195796
H10   H     H_    0.317278 0.301953 0.002924 0.101142
H11   H     H_    0.172546 0.285517 0.953181 0.125793
H12   H     H_    0.120356 0.373842 0.829347 0.131469
H13   H     H_    0.217646 0.477674 0.754466 0.140816
H14   H     H_    0.359016 0.497588 0.802435 0.162636
C47   C     C_2   0.580383 0.899116 0.640257 0.341749
H15   H     H_    0.637079 0.924171 0.670238 0.049832
O9    O     O_2   0.550543 0.829357 0.667393 -0.586770
C48   C     C_2   0.585187 0.091528 0.637184 0.319633
H16   H     H_    0.585354 0.063212 0.701104 0.042920
O10   O     O_2   0.623127 0.160845 0.623568 -0.581875
C49   C     C_2   0.397816 0.632312 0.087099 0.303682
H17   H     H_    0.367126 0.598045 0.139906 0.156053
O11   O     O_2   0.371813 0.706641 0.068260 -0.627198
C50   C     C_2   0.365230 0.418634 0.102965 0.325494
H18   H     H_    0.362171 0.373051 0.157354 0.082618
O12   O     O_2   0.302927 0.464657 0.087618 -0.614498
C51   C     C_R   0.473440 0.317157 0.922459 0.092040
C52   C     C_R   0.457535 0.293416 0.836751 -0.137671
C53   C     C_R   0.468456 0.207231 0.808710 -0.136299
C54   C     C_R   0.495589 0.140256 0.864443 -0.118061
C55   C     C_R   0.511378 0.159292 0.948442 -0.107894
C56   C     C_R   0.499754 0.245161 0.977679 -0.159532
H19   H     H_    0.435100 0.341385 0.790124 0.152664
H20   H     H_    0.455517 0.192537 0.743271 0.136976
H21   H     H_    0.504146 0.073440 0.842670 0.121344
H22   H     H_    0.532068 0.106683 0.991876 0.118933
H23   H     H_    0.512431 0.249445 0.043900 0.098068
C57   C     C_R   0.546785 0.674814 0.918269 0.154350
C58   C     C_R   0.598418 0.678323 0.844588 -0.122686
C59   C     C_R   0.652813 0.749073 0.825248 -0.031882
C60   C     C_R   0.652848 0.823145 0.875244 -0.101317
C61   C     C_R   0.595834 0.827781 0.942312 -0.122206
C62   C     C_R   0.542051 0.756544 0.961703 -0.076511
H24   H     H_    0.593172 0.630611 0.796712 0.138997
H25   H     H_    0.692534 0.747756 0.769089 0.134833
H26   H     H_    0.694011 0.878533 0.859592 0.110977
H27   H     H_    0.592048 0.887401 0.978717 0.120569
H28   H     H_    0.496977 0.767646 0.011480 0.174749
C63   C     C_2   0.654826 0.565203 0.090329 0.352793
H29   H     H_    0.674211 0.566147 0.156271 0.144183
O13   O     O_2   0.667670 0.632713 0.047911 -0.605179
C64   C     C_2   0.634448 0.403583 0.111638 0.283524
H30   H     H_    0.610155 0.338319 0.100233 0.099905
O14   O     O_2   0.686028 0.409209 0.169164 -0.597385
C65   C     C_R   0.695623 0.519144 0.910508 0.195843
C66   C     C_R   0.708234 0.523694 0.820787 -0.190471
C67   C     C_R   0.780901 0.560561 0.782798 -0.148490
C68   C     C_R   0.848654 0.586221 0.832320 -0.120893
C69   C     C_R   0.845638 0.569420 0.919102 -0.129268
C70   C     C_R   0.772886 0.532031 0.956407 -0.033563
H31   H     H_    0.663652 0.498038 0.777280 0.136926
H32   H     H_    0.785439 0.566700 0.714403 0.141309
H33   H     H_    0.905348 0.613916 0.803011 0.122605
H34   H     H_    0.901157 0.581846 0.957396 0.130768
H35   H     H_    0.780388 0.510398 0.021522 0.122269
C71   C     C_R   0.652597 0.371602 0.931195 0.065014
C72   C     C_R   0.640756 0.333865 0.850315 -0.090728
C73   C     C_R   0.678721 0.253969 0.827500 -0.103304
C74   C     C_R   0.735973 0.211053 0.881384 -0.124611
C75   C     C_R   0.759905 0.251646 0.955094 -0.126337
C76   C     C_R   0.722908 0.332359 0.976633 -0.167968
H36   H     H_    0.602720 0.364400 0.801939 0.146824
H37   H     H_    0.664551 0.226212 0.766873 0.186141
H38   H     H_    0.765455 0.149277 0.863613 0.126475
H39   H     H_    0.810268 0.222796 0.993831 0.134947
H40   H     H_    0.754522 0.364945 0.027178 0.154879
C77   C     C_R   0.085896 0.665094 0.562073 0.129665
C78   C     C_R   0.142207 0.695435 0.498306 -0.123763
C79   C     C_R   0.183310 0.776695 0.505483 -0.140023
C80   C     C_R   0.167043 0.829472 0.575025 -0.115725
C81   C     C_R   0.109481 0.800972 0.637598 -0.149403
C82   C     C_R   0.069153 0.719046 0.631387 -0.178844
H41   H     H_    0.154250 0.656395 0.442988 0.133979
H42   H     H_    0.227626 0.798708 0.456978 0.143853
H43   H     H_    0.198785 0.892535 0.580236 0.122008
H44   H     H_    0.096634 0.842020 0.691335 0.130536
H45   H     H_    0.025466 0.697313 0.680909 0.120839
C83   C     C_R   0.091326 0.329333 0.546951 0.127071
C84   C     C_R   0.152689 0.308242 0.609191 -0.130506
C85   C     C_R   0.195707 0.226887 0.608863 -0.127606
C86   C     C_R   0.177555 0.165682 0.546776 -0.133475
C87   C     C_R   0.116770 0.185988 0.484591 -0.138541
C88   C     C_R   0.073563 0.267314 0.484694 -0.155734
H46   H     H_    0.166754 0.354541 0.658245 0.123086
H47   H     H_    0.242891 0.211190 0.656953 0.130370
H48   H     H_    0.210717 0.102590 0.546725 0.116077
H49   H     H_    0.103114 0.138665 0.436287 0.132464
H50   H     H_    0.026821 0.282185 0.435925 0.133679
C89   C     C_R   0.422514 0.100651 0.362660 0.117427
C90   C     C_R   0.455686 0.093564 0.280299 -0.104232
C91   C     C_R   0.416067 0.137733 0.211882 -0.138634
C92   C     C_R   0.343314 0.189337 0.225213 -0.127758
C93   C     C_R   0.310736 0.197903 0.307136 -0.112729
C94   C     C_R   0.350132 0.153743 0.375684 -0.168474
H51   H     H_    0.511536 0.053036 0.269095 0.126105
H52   H     H_    0.441316 0.131323 0.148452 0.122956
H53   H     H_    0.311994 0.222330 0.171998 0.117166
H54   H     H_    0.254516 0.238102 0.317454 0.139734
H55   H     H_    0.323800 0.159900 0.438673 0.129497
C95   C     C_R   0.414010 0.908483 0.368270 0.125584
C96   C     C_R   0.458645 0.854132 0.312401 -0.183501
C97   C     C_R   0.415069 0.809854 0.249400 -0.099986
C98   C     C_R   0.326865 0.820148 0.241291 -0.078815
C99   C     C_R   0.282222 0.874941 0.295998 -0.175324
C100  C     C_R   0.325497 0.918854 0.359464 -0.141560
H56   H     H_    0.527023 0.846068 0.317787 0.129318
H57   H     H_    0.449888 0.767648 0.207038 0.156808
H58   H     H_    0.292891 0.785756 0.192774 0.178116
H59   H     H_    0.213960 0.882852 0.289677 0.137451
H60   H     H_    0.290055 0.960397 0.402116 0.121978

loop_
_geom_bond_atom_site_label_1
_geom_bond_atom_site_label_2
_ccdc_geom_bond_type
C99   H59   S    
C27   O8    A    
C79   H42   S    
C73   C74   A    
C47   O9    D    
C96   C97   A    
C84   C85   A    
C23   C48   S    
C39   C40   A    
C75   C76   A    
C66   C67   A    
C77   C78   A    
O7    Zn1   S    
C51   C52   A    
C36   C37   A    
C7    C11   A    
C61   H27   S    
C78   H41   S    
C41   C46   A    
C17   C26   S    
C73   H37   S    
C19   C21   A    
C48   O10   D    
C18   C19   A    
C52   H19   S    
C5    C6    T    
C2    C65   S    
C97   C98   A    
C3    C33   S    
C3    C64   S    
C27   O7    A    
C59   H25   S    
C29   H1    S    
C29   C33   S    
C68   C69   A    
C46   H14   S    
C47   H15   S    
C55   H22   S    
C28   C49   S    
C9    C13   S    
C64   H30   S    
C26   O5    A    
C74   H38   S    
C72   H36   S    
C89   C90   A    
C20   C24   S    
C8    C9    A    
C5    C33   S    
C96   H56   S    
C58   H24   S    
C38   H7    S    
C65   C70   A    
C2    C34   S    
O8    Zn2   S    
C45   C46   A    
C27   C32   S    
C86   H48   S    
C39   H8    S    
C54   H21   S    
C63   O13   D    
C77   C82   A    
C8    H4    S    
O1    Zn1   S    
C58   C59   A    
C97   H57   S    
C95   C100  A    
C81   C82   A    
C4    C34   S    
C68   H33   S    
C30   C34   S    
C35   C36   A    
C19   C89   S    
C56   H23   S    
C48   H16   S    
C80   C81   A    
C31   C35   S    
C49   O11   D    
C18   C95   S    
C52   C53   A    
O3    Zn1   S    
C3    C63   S    
C92   H53   S    
C42   C43   A    
C83   C88   A    
C35   C40   A    
C69   H34   S    
C45   H13   S    
C75   H39   S    
C29   C30   S    
C11   C77   S    
C6    C14   S    
C81   H44   S    
C91   C92   A    
C91   H52   S    
C12   C15   S    
O5    Zn1   S    
C51   C56   A    
C57   C58   A    
C41   C42   A    
C7    H3    S    
C31   C34   S    
C1    C16   S    
C88   H50   S    
C85   C86   A    
C30   C51   S    
C98   C99   A    
C4    C32   T    
C83   C84   A    
C10   C12   A    
C90   H51   S    
O2    Zn2   S    
C1    O1    A    
C95   C96   A    
C10   C83   S    
C28   C33   S    
C44   C45   A    
C50   O12   D    
C87   H49   S    
C30   C41   S    
C72   C73   A    
C49   H17   S    
C85   H47   S    
C63   H29   S    
C74   C75   A    
C53   H20   S    
C99   C100  A    
C14   O4    A    
C65   C66   A    
C98   H58   S    
O4    Zn2   S    
C62   H28   S    
C7    C9    A    
C21   C25   S    
C38   C39   A    
C60   H26   S    
C42   H10   S    
C40   H9    S    
C28   C31   S    
C66   H31   S    
C20   C22   A    
C78   C79   A    
C82   H45   S    
C37   H6    S    
C67   H32   S    
C37   C38   A    
C2    C71   S    
C43   H11   S    
C79   C80   A    
O6    Zn2   S    
C69   C70   A    
C87   C88   A    
C60   C61   A    
C13   C17   T    
C80   H43   S    
C92   C93   A    
C21   C23   A    
C84   H46   S    
C55   C56   A    
C29   C50   S    
C93   C94   A    
C86   C87   A    
C25   N1    T    
N2    Zn1   S    
C90   C91   A    
C100  H60   S    
C15   C16   T    
C43   C44   A    
C61   C62   A    
C24   N2    T    
C59   C60   A    
C71   C76   A    
C2    C3    S    
C18   C20   A    
C70   H35   S    
C64   O14   D    
C76   H40   S    
C36   H5    S    
C26   O6    A    
C93   H54   S    
C94   H55   S    
C1    O2    A    
N1    Zn2   S    
C54   C55   A    
C28   H2    S    
C53   C54   A    
C8    C10   A    
C50   H18   S    
C22   C23   A    
C14   O3    A    
C22   C47   S    
C67   C68   A    
C44   H12   S    
C57   C62   A    
C89   C94   A    
C31   C57   S    
C11   C12   A    
C71   C72   A    
