data_mof_unit_3915.cif
_audit_creation_date              2012-12-10T17:40:04-0500
_audit_creation_method            fapswitch 2.2
_symmetry_space_group_name_H-M    P1
_symmetry_Int_Tables_number       1
_space_group_crystal_system       triclinic
_cell_length_a                    11.95832
_cell_length_b                    12.863289
_cell_length_c                    27.691262
_cell_angle_alpha                 89.942597
_cell_angle_beta                  86.762052
_cell_angle_gamma                 93.399178
_cell_volume                      4245.23952082

loop_
_atom_site_label
_atom_site_type_symbol
_atom_type_description
_atom_site_fract_x
_atom_site_fract_y
_atom_site_fract_z
_atom_type_partial_charge
C1    C     C_R   0.522092 0.700507 0.499661 0.890274
C2    C     C_R   0.533810 0.613173 0.127686 -0.155913
C3    C     C_R   0.503497 0.512837 0.646264 -0.100636
C4    C     C_R   0.496452 0.502176 0.353336 -0.105184
C5    C     C_R   0.538533 0.617784 0.025208 -0.023067
C6    C     C_R   0.419401 0.457998 0.975097 -0.022060
C7    C     C_R   0.422087 0.453110 0.026064 0.096616
C8    C     C_R   0.548215 0.614788 0.973951 0.092767
C9    C     C_R   0.479761 0.534396 0.050989 0.070844
C10   C     C_R   0.486609 0.535753 0.949125 0.074153
C11   C     C_R   0.585661 0.701645 0.051663 -0.316227
C12   C     C_R   0.477875 0.299507 0.500220 0.892672
C13   C     C_R   0.351687 0.386868 0.949217 -0.330003
C14   C     C_R   0.581750 0.701059 0.102078 0.512244
C15   C     C_R   0.359743 0.382512 0.898804 0.541514
C16   C     C_R   0.500948 0.501788 0.593942 0.905027
C17   C     C_R   0.499116 0.500058 0.405984 0.904036
C18   C     C_R   0.619299 0.687154 0.946528 -0.221070
C19   C     C_R   0.371940 0.367418 0.052931 -0.225219
C20   C     C_R   0.464503 0.188157 0.500319 -0.056971
C21   C     C_R   0.535246 0.811876 0.499044 -0.049033
C22   C     C_R   0.647722 0.970430 0.483043 -0.216189
C23   C     C_R   0.492001 0.534755 0.897878 -0.121697
C24   C     C_R   0.351645 0.029552 0.515583 -0.222368
C25   C     C_R   0.639375 0.862930 0.486294 -0.195994
C26   C     C_R   0.360218 0.137080 0.512763 -0.185321
C27   C     C_R   0.440124 0.867432 0.509567 -0.282877
C28   C     C_R   0.559413 0.132591 0.489408 -0.273728
C29   C     C_R   0.447424 0.974081 0.506080 0.186087
C30   C     C_R   0.551983 0.025901 0.492649 0.188338
C31   C     C_R   0.953965 0.398694 0.455969 0.411009
C32   C     C_R   0.046438 0.603507 0.543012 0.415419
C33   C     C_R   0.836536 0.407904 0.461308 -0.121233
C34   C     C_R   0.480161 0.531173 0.102119 -0.119716
C35   C     C_R   0.163241 0.589798 0.539882 -0.117012
C36   C     C_R   0.858750 0.545114 0.517649 -0.029911
C37   C     C_R   0.141523 0.456946 0.481342 -0.033158
C38   C     C_R   0.976281 0.538118 0.515168 -0.079882
C39   C     C_R   0.024016 0.463827 0.483931 -0.077652
C40   C     C_R   0.567718 0.607607 0.821257 0.494339
C41   C     C_R   0.431202 0.441092 0.177907 0.471302
C42   C     C_R   0.434627 0.461764 0.821829 0.592094
C43   C     C_R   0.536635 0.604546 0.178267 0.587312
C44   C     C_R   0.598056 0.494901 0.720320 -0.187686
C45   C     C_R   0.562181 0.609655 0.871769 0.010057
C46   C     C_R   0.394756 0.530732 0.281974 -0.178848
C47   C     C_R   0.597072 0.484606 0.670414 -0.208217
C48   C     C_R   0.397281 0.525429 0.331890 -0.214460
C49   C     C_R   0.412967 0.555271 0.672177 -0.318404
C50   C     C_R   0.592622 0.482459 0.324162 -0.306811
C51   C     C_R   0.416200 0.571055 0.722005 0.555292
C52   C     C_R   0.589606 0.485299 0.273898 0.528134
C53   C     C_R   0.507087 0.536048 0.746120 0.211677
C54   C     C_R   0.490670 0.511866 0.252972 0.213291
C55   C     C_3   0.955311 0.309968 0.382142 0.074775
C56   C     C_R   0.427577 0.445123 0.127703 0.016485
C57   C     C_3   0.888983 0.204685 0.379665 -0.335504
C58   C     C_3   0.831148 0.192725 0.332140 -0.966726
C59   C     C_3   0.057621 0.769900 0.577556 0.076238
C60   C     C_3   0.108928 0.783063 0.626786 -0.333806
C61   C     C_3   0.180966 0.884625 0.629205 -0.981936
C62   C     C_3   0.313939 0.715726 0.735507 0.039898
C63   C     C_3   0.399855 0.789325 0.759454 -0.345540
C64   C     C_3   0.381116 0.903044 0.748521 -0.941678
C65   C     C_3   0.683125 0.362422 0.232028 0.057118
C66   C     C_3   0.798366 0.337971 0.209798 -0.303002
C67   C     C_R   0.625890 0.684513 0.896435 -0.145382
C68   C     C_3   0.799128 0.225736 0.191987 -0.973241
C69   C     C_3   0.554767 0.864632 0.129545 0.105716
C70   C     C_3   0.603753 0.953122 0.160189 -0.291117
C71   C     C_3   0.524220 0.041458 0.165775 -0.964229
C72   C     C_3   0.325062 0.206954 0.884253 0.097979
C73   C     C_3   0.426947 0.180254 0.851418 -0.327576
C74   C     C_3   0.461006 0.070052 0.861223 -0.970332
C75   C     C_R   0.374422 0.363882 0.102786 -0.151017
C76   C     C_R   0.428144 0.458634 0.872679 -0.153977
H1    H     H_    0.339935 0.576399 0.653803 0.163086
H2    H     H_    0.335370 0.296167 0.121701 0.186627
H3    H     H_    0.322031 0.541053 0.353636 0.174080
H4    H     H_    0.667894 0.452152 0.650934 0.178460
H5    H     H_    0.318452 0.550252 0.265668 0.159113
H6    H     H_    0.668234 0.468786 0.739187 0.166934
H7    H     H_    0.624391 0.770775 0.034355 0.154661
H8    H     H_    0.289022 0.334511 0.967214 0.152839
H9    H     H_    0.639855 0.172189 0.479009 0.154814
H10   H     H_    0.359686 0.827866 0.520002 0.152221
H11   H     H_    0.286358 0.180032 0.521082 0.170540
H12   H     H_    0.669811 0.464240 0.340139 0.171117
H13   H     H_    0.713275 0.819965 0.478084 0.164059
H14   H     H_    0.026110 0.310663 0.354353 0.170860
H15   H     H_    0.903344 0.375043 0.372055 0.121208
H16   H     H_    0.947047 0.141023 0.382982 0.232349
H17   H     H_    0.824546 0.196762 0.410131 0.208861
H18   H     H_    0.770205 0.253876 0.329046 0.259890
H19   H     H_    0.785156 0.115276 0.331082 0.272010
H20   H     H_    0.894043 0.199081 0.301033 0.273590
H21   H     H_    0.996678 0.830988 0.573960 0.165204
H22   H     H_    0.122381 0.784584 0.547328 0.109609
H23   H     H_    0.728181 0.009961 0.472807 0.139436
H24   H     H_    0.040393 0.782894 0.655635 0.240437
H25   H     H_    0.161431 0.716938 0.633855 0.209883
H26   H     H_    0.255387 0.882527 0.603441 0.261853
H27   H     H_    0.210288 0.894976 0.666294 0.270744
H28   H     H_    0.131623 0.951965 0.620431 0.273665
H29   H     H_    0.228450 0.735721 0.748713 0.188389
H30   H     H_    0.318534 0.728743 0.695688 0.128282
H31   H     H_    0.393228 0.776661 0.799255 0.240320
H32   H     H_    0.485873 0.772630 0.745625 0.249672
H33   H     H_    0.389316 0.917515 0.708897 0.268430
H34   H     H_    0.271004 0.990055 0.525484 0.139926
H35   H     H_    0.445236 0.954024 0.765854 0.278464
H36   H     H_    0.296552 0.923308 0.762836 0.265783
H37   H     H_    0.619889 0.346728 0.204625 0.170288
H38   H     H_    0.662555 0.309779 0.263730 0.132886
H39   H     H_    0.821554 0.391515 0.178829 0.240406
H40   H     H_    0.861941 0.350487 0.237318 0.225661
H41   H     H_    0.774457 0.170512 0.222118 0.272686
H42   H     H_    0.884800 0.209573 0.177506 0.273318
H43   H     H_    0.740192 0.213263 0.162654 0.271533
H44   H     H_    0.473046 0.834904 0.147371 0.140197
H45   H     H_    0.181020 0.401846 0.457367 0.181844
H46   H     H_    0.540157 0.895983 0.093058 0.118554
H47   H     H_    0.619402 0.922639 0.196623 0.253694
H48   H     H_    0.685082 0.984123 0.142864 0.224668
H49   H     H_    0.510341 0.075582 0.129889 0.263937
H50   H     H_    0.561189 0.103444 0.188905 0.273684
H51   H     H_    0.442351 0.012287 0.183159 0.274333
H52   H     H_    0.253375 0.152110 0.876095 0.171135
H53   H     H_    0.341519 0.193117 0.922838 0.108313
H54   H     H_    0.406279 0.186470 0.812937 0.262159
H55   H     H_    0.499172 0.235986 0.857766 0.210998
H56   H     H_    0.819407 0.601489 0.540971 0.182859
H57   H     H_    0.484332 0.062582 0.899283 0.267443
H58   H     H_    0.534590 0.052847 0.836917 0.273882
H59   H     H_    0.390866 0.012337 0.854445 0.270927
H60   H     H_    0.673777 0.745331 0.962674 0.146156
H61   H     H_    0.333509 0.299534 0.036367 0.138292
H62   H     H_    0.219419 0.635064 0.562008 0.137980
H63   H     H_    0.779680 0.356880 0.442061 0.140064
H64   H     H_    0.681612 0.741740 0.877069 0.188742
N1    N     N_R   0.503297 0.535418 0.797662 -0.341363
N2    N     N_R   0.486607 0.519196 0.201773 -0.348608
N3    N     N_R   0.207800 0.519340 0.508990 -0.129839
N4    N     N_R   0.792200 0.480660 0.491010 -0.129630
O1    O     O_R   0.421700 0.658820 0.502400 -0.629206
O2    O     O_2   0.381275 0.359040 0.202833 -0.583589
O3    O     O_2   0.588817 0.680048 0.204006 -0.503162
O4    O     O_2   0.373179 0.392188 0.796344 -0.501644
O5    O     O_3   0.001699 0.321209 0.427946 -0.660601
O6    O     O_3   0.997340 0.671855 0.575731 -0.653865
O7    O     O_3   0.326577 0.610638 0.748521 -0.624637
O8    O     O_3   0.685624 0.468333 0.245592 -0.631786
O9    O     O_3   0.631219 0.784970 0.125777 -0.592727
O10   O     O_3   0.292999 0.309252 0.875040 -0.587464
O11   O     O_R   0.578300 0.341180 0.497600 -0.626333
O12   O     O_R   0.609310 0.646410 0.496630 -0.626970
O13   O     O_R   0.390690 0.353590 0.503370 -0.622640
O14   O     O_R   0.406200 0.506190 0.574130 -0.619000
O15   O     O_R   0.593800 0.493810 0.425870 -0.622574
O16   O     O_R   0.593820 0.493770 0.568360 -0.618349
O17   O     O_R   0.406180 0.506230 0.431640 -0.624084
O18   O     O_2   0.636295 0.677424 0.795801 -0.584955
Zn1   Zn    Zn3+2 0.374730 0.508290 0.503850 0.948626
Zn2   Zn    Zn3+2 0.625270 0.491710 0.496150 0.949247

loop_
_geom_bond_atom_site_label_1
_geom_bond_atom_site_label_2
_ccdc_geom_bond_type
C66   C68   S    
C73   H55   S    
C34   C56   A    
C23   C45   A    
C57   H16   S    
C16   O16   A    
C65   H38   S    
C1    O1    A    
C23   C76   A    
C42   O4    S    
C3    C49   A    
C72   H53   S    
C62   H29   S    
C1    C21   S    
C13   H8    S    
C5    C9    A    
C29   C30   A    
C66   H40   S    
C72   H52   S    
O16   Zn2   S    
C48   H3    S    
C61   H27   S    
C24   C26   A    
C5    C11   A    
C55   H14   S    
C44   H6    S    
C36   H56   S    
C35   H62   S    
C38   C39   A    
C31   O5    S    
C11   C14   A    
C64   H36   S    
C27   C29   A    
C74   H57   S    
C73   C74   S    
C3    C47   A    
C58   H20   S    
C24   C29   A    
C15   O10   S    
C55   H15   S    
C68   H42   S    
C70   H47   S    
C41   O2    S    
C49   H1    S    
C26   H11   S    
C49   C51   A    
C22   C25   A    
C45   C67   A    
C50   C52   A    
C31   C33   A    
C71   H50   S    
C18   H60   S    
C70   C71   S    
C32   C38   A    
C12   O13   A    
C22   C30   A    
O13   Zn1   S    
C46   C54   A    
C44   C47   A    
C50   H12   S    
C2    C34   A    
C15   C76   A    
C21   C27   A    
C51   O7    S    
C59   C60   S    
C56   C75   A    
C57   H17   S    
C40   N1    A    
N4    Zn2   S    
C71   H51   S    
C47   H4    S    
C2    C14   A    
C44   C53   A    
N3    Zn1   S    
O17   Zn1   S    
C52   C54   A    
C55   O5    S    
C33   N4    A    
C40   C45   A    
C46   C48   A    
C72   O10   S    
C66   H39   S    
C16   O14   A    
C64   H33   S    
C32   C35   A    
C61   H28   S    
C24   H34   S    
C62   O7    S    
C64   H35   S    
C25   H13   S    
O1    Zn1   S    
C11   H7    S    
C18   C67   A    
C69   O9    S    
C4    C50   A    
C60   C61   S    
C51   C53   A    
C1    O12   A    
C58   H19   S    
C41   C56   A    
C40   O18   S    
C62   C63   S    
C68   H41   S    
C46   H5    S    
C2    C43   A    
C52   O8    S    
C74   H59   S    
C12   C20   S    
C42   N1    A    
C55   C57   S    
C67   H64   S    
C17   O17   A    
O14   Zn1   S    
C37   H45   S    
C4    C17   S    
C8    C10   A    
C54   N2    S    
C7    C19   A    
C13   C15   A    
C14   O9    S    
C9    C34   A    
O11   Zn2   S    
C27   H10   S    
C19   H61   S    
C12   O11   A    
C63   H31   S    
C60   H25   S    
C4    C48   A    
C59   O6    S    
C7    C9    A    
C21   C25   A    
C73   H54   S    
C22   H23   S    
C37   N3    A    
C65   H37   S    
C72   C73   S    
C60   H24   S    
C6    C10   A    
C5    C8    A    
C6    C7    A    
C62   H30   S    
C10   C23   A    
C20   C28   A    
C69   H44   S    
C42   C76   A    
C65   O8    S    
C36   C38   A    
C61   H26   S    
C36   N4    A    
C28   C30   A    
C68   H43   S    
C6    C13   A    
C57   C58   S    
C20   C26   A    
C69   H46   S    
C33   H63   S    
C59   H21   S    
C74   H58   S    
C19   C75   A    
C31   C39   A    
C53   N1    S    
C58   H18   S    
C69   C70   S    
C17   O15   A    
C75   H2    S    
C8    C18   A    
C43   O3    S    
C63   C64   S    
C70   H48   S    
C41   N2    A    
C32   O6    S    
O12   Zn2   S    
C37   C39   A    
C65   C66   S    
C28   H9    S    
C59   H22   S    
O15   Zn2   S    
C71   H49   S    
C43   N2    A    
C63   H32   S    
C3    C16   S    
C35   N3    A    
