data_mof_unit_2244.cif
_audit_creation_date              2012-12-10T18:21:14-0500
_audit_creation_method            fapswitch 2.2
_symmetry_space_group_name_H-M    P1
_symmetry_Int_Tables_number       1
_space_group_crystal_system       triclinic
_cell_length_a                    9.480273
_cell_length_b                    10.604249
_cell_length_c                    17.252584
_cell_angle_alpha                 88.755626
_cell_angle_beta                  88.04871
_cell_angle_gamma                 90.399546
_cell_volume                      1732.9563875

loop_
_atom_site_label
_atom_site_type_symbol
_atom_type_description
_atom_site_fract_x
_atom_site_fract_y
_atom_site_fract_z
_atom_type_partial_charge
C1    C     C_R   0.500290 0.740362 0.499696 0.783129
C2    C     C_R   0.499789 0.259608 0.500531 0.784822
C3    C     C_3   0.367684 0.958191 0.492006 -0.129122
C4    C     C_3   0.632911 0.041776 0.508525 -0.144007
C5    C     C_3   0.450897 0.044499 0.433077 -0.181519
C6    C     C_3   0.549864 0.955375 0.567467 -0.194183
C7    C     C_3   0.500241 0.122540 0.500769 0.029007
C8    C     C_3   0.500289 0.877378 0.499768 0.027712
C9    C     C_3   0.417424 0.038398 0.559757 -0.142664
C10   C     C_3   0.583244 0.961480 0.440826 -0.153284
C11   C     C_3   0.947779 0.386297 0.494033 -0.284712
C12   C     C_3   0.052973 0.613544 0.506137 -0.283643
C13   C     C_3   0.043914 0.432904 0.557362 0.013693
C14   C     C_3   0.956247 0.567704 0.442660 -0.025781
C15   C     C_3   0.053518 0.454560 0.437286 0.557696
C16   C     C_3   0.946848 0.546171 0.562356 0.542684
C17   C     C_R   0.483725 0.495480 0.650255 0.811140
C18   C     C_R   0.516275 0.499072 0.349884 0.838374
C19   C     C_R   0.476863 0.472605 0.735248 -0.118821
C20   C     C_R   0.522683 0.486660 0.264906 -0.101450
C21   C     C_R   0.596574 0.433013 0.776408 0.451891
C22   C     C_R   0.408237 0.521035 0.218147 0.451636
C23   C     C_R   0.575419 0.387490 0.853052 -0.268686
C24   C     C_R   0.422625 0.501857 0.137614 -0.276671
C25   C     C_R   0.448082 0.407460 0.893755 0.130377
C26   C     C_R   0.541155 0.442578 0.105260 0.140298
C27   C     C_R   0.331752 0.451425 0.854014 -0.181482
C28   C     C_R   0.653866 0.411909 0.151645 -0.177965
C29   C     C_R   0.345005 0.480466 0.775015 -0.254657
C30   C     C_R   0.644988 0.434070 0.230655 -0.276074
C31   C     C_2   0.440014 0.397573 0.978999 -0.200902
C32   C     C_2   0.553157 0.422451 0.021510 -0.203794
Cu1   Cu    Cu3+1 0.356850 0.500010 0.499980 1.026996
Cu2   Cu    Cu3+1 0.643150 0.499990 0.500020 1.007250
H1    H     H_    0.899411 0.290991 0.490878 0.158661
H2    H     H_    0.101338 0.708846 0.508889 0.161168
H3    H     H_    0.733431 0.407283 0.265342 0.159588
H4    H     H_    0.252121 0.511765 0.745410 0.173707
H5    H     H_    0.657183 0.436557 0.994431 0.142879
H6    H     H_    0.336524 0.384653 0.007178 0.141596
H7    H     H_    0.231417 0.465593 0.884387 0.136004
H8    H     H_    0.748477 0.369961 0.126766 0.132642
H9    H     H_    0.343784 0.535634 0.098845 0.131638
H10   H     H_    0.660057 0.341958 0.882713 0.128588
H11   H     H_    0.412556 0.083776 0.377651 0.125563
H12   H     H_    0.589869 0.916350 0.622637 0.117155
H13   H     H_    0.258716 0.921989 0.485141 0.146260
H14   H     H_    0.741724 0.078277 0.515396 0.145577
H15   H     H_    0.349555 0.071317 0.608712 0.146646
H16   H     H_    0.651113 0.928192 0.391958 0.148698
N1    N     N_3   0.141720 0.500030 0.499940 -0.207544
N2    N     N_3   0.858280 0.499970 0.500060 -0.219864
O1    O     O_R   0.379130 0.683150 0.499960 -0.590038
O2    O     O_R   0.620870 0.316850 0.500040 -0.596216
O3    O     O_R   0.620910 0.683140 0.500000 -0.567588
O4    O     O_R   0.379090 0.316860 0.500000 -0.538650
O5    O     O_R   0.365090 0.500030 0.613580 -0.565393
O6    O     O_R   0.634910 0.499970 0.386420 -0.564091
O7    O     O_R   0.606870 0.500020 0.613610 -0.502584
O8    O     O_R   0.393130 0.499980 0.386390 -0.494144
O9    O     O_3   0.730280 0.436876 0.739923 -0.547123
C33   C     C_3   0.840958 0.468516 0.790205 0.185401
H17   H     H_    0.939759 0.476694 0.754226 0.212991
H18   H     H_    0.861977 0.391091 0.832420 0.101383
C34   C     C_3   0.819654 0.595811 0.830448 -0.425167
H19   H     H_    0.792112 0.669262 0.786976 0.235040
H20   H     H_    0.731900 0.589451 0.874570 0.212272
C35   C     C_3   0.952575 0.636005 0.871248 -0.939565
H21   H     H_    0.978541 0.565112 0.916828 0.249844
H22   H     H_    0.934686 0.728245 0.899055 0.266819
H23   H     H_    0.043221 0.645972 0.828990 0.253054
O10   O     O_3   0.292334 0.582518 0.252036 -0.569734
C36   C     C_3   0.164782 0.566600 0.212223 0.156467
H24   H     H_    0.078217 0.551579 0.255945 0.206004
H25   H     H_    0.161401 0.480295 0.176646 0.077989
C37   C     C_3   0.130423 0.686167 0.165102 -0.355401
H26   H     H_    0.120949 0.767298 0.204557 0.263455
H27   H     H_    0.216399 0.709024 0.121767 0.203711
C38   C     C_3   0.992232 0.670527 0.123268 -0.928182
H28   H     H_    0.000316 0.591525 0.082129 0.247301
H29   H     H_    0.969363 0.758487 0.090091 0.261227
H30   H     H_    0.903618 0.651286 0.165808 0.269496
O11   O     O_3   0.119443 0.407976 0.369115 -0.579291
C39   C     C_3   0.037808 0.310515 0.337784 -0.009926
H31   H     H_    0.054436 0.314134 0.273762 0.143627
H32   H     H_    0.922065 0.322792 0.348381 0.128894
C40   C     C_3   0.087674 0.181532 0.367488 -0.329768
H33   H     H_    0.192950 0.161933 0.340527 0.215031
H34   H     H_    0.098678 0.181800 0.431374 0.220990
C41   C     C_3   0.985299 0.076433 0.347514 -0.915762
H35   H     H_    0.879741 0.092991 0.375205 0.246200
H36   H     H_    0.025253 0.984635 0.369409 0.282762
H37   H     H_    0.975295 0.071857 0.283675 0.259228
O12   O     O_3   0.886207 0.595531 0.631008 -0.583907
C42   C     C_3   0.859367 0.726163 0.621565 0.093492
H38   H     H_    0.758217 0.746711 0.652889 0.145653
H39   H     H_    0.844691 0.756418 0.560107 0.155286
C43   C     C_3   0.976765 0.804568 0.656880 -0.442672
H40   H     H_    0.969552 0.794881 0.721029 0.232274
H41   H     H_    0.082071 0.769820 0.637521 0.222014
C44   C     C_3   0.965586 0.943918 0.633876 -0.869399
H42   H     H_    0.978092 0.956659 0.569888 0.244808
H43   H     H_    0.050356 0.998297 0.661287 0.266869
H44   H     H_    0.861678 0.981596 0.653605 0.266260
C45   C     C_2   0.079541 0.341182 0.621447 0.811592
O13   O     O_2   0.983760 0.297210 0.663052 -0.603581
O14   O     O_R   0.216605 0.298555 0.630590 -0.741016
H45   H     H_    0.224255 0.237973 0.676502 0.305640
C46   C     C_2   0.921301 0.664279 0.381069 0.801848
O15   O     O_2   0.018235 0.721089 0.347088 -0.625521
O16   O     O_R   0.782831 0.696842 0.366024 -0.734649
H46   H     H_    0.776662 0.762306 0.322587 0.308193

loop_
_geom_bond_atom_site_label_1
_geom_bond_atom_site_label_2
_ccdc_geom_bond_type
C25   C31   S    
C14   C46   S    
C40   H33   S    
C26   C32   S    
C44   H42   S    
C16   O12   S    
C27   C29   A    
C1    C8    S    
C36   H24   S    
C42   H38   S    
C37   C38   S    
C6    C9    S    
C42   C43   S    
C20   C30   A    
C45   O14   S    
C37   H27   S    
C19   C21   A    
C24   C26   A    
C46   O16   S    
C8    C10   S    
C43   H40   S    
C31   H6    S    
C32   H5    S    
C28   H8    S    
C1    O1    A    
C33   H18   S    
C11   N2    S    
C2    C7    S    
C13   N1    S    
C11   C15   S    
C11   H1    S    
C18   O6    A    
C14   N2    S    
C12   C16   S    
C35   H21   S    
C34   H20   S    
C29   H4    S    
O14   H45   S    
C39   C40   S    
C15   N1    S    
C12   H2    S    
C21   O9    S    
C33   C34   S    
Cu1   O4    S    
Cu2   O3    S    
C44   H43   S    
C36   H25   S    
O9    C33   S    
C4    C7    S    
C22   O10   S    
Cu1   O1    S    
C9    H15   S    
C37   H26   S    
C13   C45   S    
C3    C8    S    
C2    O2    A    
C5    C7    S    
C15   O11   S    
C5    H11   S    
C23   H10   S    
C30   H3    S    
C33   H17   S    
C3    C9    S    
C27   H7    S    
C41   H36   S    
O11   C39   S    
C34   C35   S    
Cu1   Cu2   S    
C39   H31   S    
C17   O7    A    
C18   O8    A    
C20   C22   A    
Cu2   O2    S    
Cu1   O8    S    
C43   H41   S    
C21   C23   A    
Cu2   O7    S    
C36   C37   S    
C22   C24   A    
C13   C16   S    
C4    C6    S    
C25   C27   A    
C4    C10   S    
C19   C29   A    
C12   N1    S    
C41   H37   S    
C38   H29   S    
C4    H14   S    
C7    C9    S    
Cu1   O5    S    
C6    H12   S    
O16   H46   S    
Cu2   N2    S    
C31   C32   D    
C16   N2    S    
C12   C14   S    
O10   C36   S    
C3    C5    S    
C38   H30   S    
C6    C8    S    
C42   H39   S    
Cu1   N1    S    
C43   C44   S    
C45   O13   D    
C26   C28   A    
C40   H34   S    
C1    O3    A    
C5    C10   S    
C2    O4    A    
C46   O15   D    
C11   C13   S    
C41   H35   S    
C35   H23   S    
C3    H13   S    
C17   C19   S    
C28   C30   A    
C18   C20   S    
C23   C25   A    
O12   C42   S    
C38   H28   S    
C35   H22   S    
C34   H19   S    
C40   C41   S    
Cu2   O6    S    
C24   H9    S    
C14   C15   S    
C39   H32   S    
C44   H44   S    
C17   O5    A    
C10   H16   S    
