data_mof_unit_2022.cif
_audit_creation_date              2012-10-26T19:59:38-0400
_audit_creation_method            fapswitch 2.2
_symmetry_space_group_name_H-M    P1
_symmetry_Int_Tables_number       1
_space_group_crystal_system       triclinic
_cell_length_a                    10.778163
_cell_length_b                    8.703021
_cell_length_c                    7.44468
_cell_angle_alpha                 102.806583
_cell_angle_beta                  94.511704
_cell_angle_gamma                 91.477395
_cell_volume                      678.177104106

loop_
_atom_site_label
_atom_site_type_symbol
_atom_type_description
_atom_site_fract_x
_atom_site_fract_y
_atom_site_fract_z
_atom_type_partial_charge
C1    C     C_R   0.490598 0.200017 0.454209 0.574595
C2    C     C_R   0.497572 0.799426 0.546895 0.549543
C3    C     C_R   0.736688 0.485712 0.496531 0.583739
C4    C     C_R   0.142711 0.267393 0.666459 -0.118788
C5    C     C_R   0.086372 0.158728 0.748247 -0.140643
C6    C     C_R   0.958055 0.147850 0.744776 -0.110303
C7    C     C_R   0.883822 0.245265 0.658616 0.101048
C8    C     C_R   0.939357 0.363619 0.580840 0.062349
C9    C     C_R   0.071388 0.373037 0.585584 -0.000277
C10   C     C_R   0.129092 0.483879 0.502522 0.004076
C11   C     C_R   0.059039 0.578469 0.408813 -0.150071
C12   C     C_R   0.931121 0.571143 0.403633 -0.167424
C13   C     C_R   0.870369 0.469012 0.491918 0.012629
C14   C     C_2   0.487121 0.032432 0.430866 -0.111503
C15   C     C_2   0.483326 0.965704 0.575617 0.039466
C16   C     C_R   0.262673 0.497360 0.501569 0.532933
Cu1   Cu    Cu3+1 0.513920 0.517380 0.684380 0.960180
Cu2   Cu    Cu3+1 0.486080 0.482620 0.315620 0.952299
H1    H     H_    0.104050 0.661152 0.342322 0.131907
H2    H     H_    0.735666 0.096632 0.569453 0.208318
H3    H     H_    0.540339 0.041893 0.848535 0.241420
H4    H     H_    0.384605 0.005799 0.801457 0.223312
H5    H     H_    0.597155 0.620784 0.051755 0.236594
H6    H     H_    0.242618 0.264318 0.664730 0.145593
H7    H     H_    0.142454 0.079659 0.810499 0.116603
H8    H     H_    0.915083 0.058873 0.804036 0.111658
H9    H     H_    0.879155 0.650205 0.335281 0.122216
H10   H     H_    0.495572 0.962634 0.292158 0.098866
H11   H     H_    0.402780 0.379309 0.948325 0.249890
H12   H     H_    0.724182 0.223768 0.774402 0.253405
N1    N     N_2   0.465100 0.456430 0.038520 -0.250705
N2    N     N_2   0.534900 0.543570 0.961480 -0.257824
N3    N     N_3   0.752809 0.213761 0.641398 -0.587385
N4    N     N_3   0.463758 0.054235 0.758302 -0.617188
O1    O     O_R   0.509050 0.286130 0.619770 -0.457338
O2    O     O_R   0.485540 0.256780 0.308360 -0.509183
O3    O     O_R   0.331410 0.514680 0.655740 -0.516757
O4    O     O_R   0.307900 0.485330 0.344330 -0.500084
O5    O     O_R   0.514460 0.743220 0.691640 -0.504721
O6    O     O_R   0.490950 0.713870 0.380230 -0.521810
O7    O     O_R   0.692100 0.514670 0.655670 -0.480300
O8    O     O_R   0.668590 0.485320 0.344260 -0.510333

loop_
_geom_bond_atom_site_label_1
_geom_bond_atom_site_label_2
_ccdc_geom_bond_type
C8    C9    A    
C11   C12   A    
C3    O8    A    
C6    C7    A    
Cu2   N1    S    
C9    C10   A    
C15   N4    S    
N1    N2    D    
C3    C13   S    
C16   O3    A    
H5    N2    S    
Cu1   Cu2   S    
Cu2   O4    S    
C7    C8    A    
H11   N1    S    
Cu1   O3    S    
C2    C15   S    
C7    N3    S    
C11   H1    S    
C8    C13   A    
C4    H6    S    
C5    H7    S    
H2    N3    S    
Cu2   O8    S    
C5    C6    A    
H4    N4    S    
Cu1   O7    S    
C10   C11   A    
C12   H9    S    
C2    O6    A    
C12   C13   A    
C1    O1    A    
Cu1   O5    S    
Cu1   N2    S    
Cu2   O6    S    
C6    H8    S    
C3    O7    A    
C10   C16   S    
C1    C14   S    
Cu1   O1    S    
H12   N3    S    
C14   H10   S    
C4    C9    A    
C14   C15   D    
Cu2   O2    S    
C2    O5    A    
H3    N4    S    
C1    O2    A    
C16   O4    A    
C4    C5    A    
