data_mof_unit_3626.cif
_audit_creation_date              2012-12-10T18:47:48-0500
_audit_creation_method            fapswitch 2.2
_symmetry_space_group_name_H-M    P1
_symmetry_Int_Tables_number       1
_space_group_crystal_system       triclinic
_cell_length_a                    9.858563
_cell_length_b                    10.713201
_cell_length_c                    15.537769
_cell_angle_alpha                 90.068531
_cell_angle_beta                  67.058201
_cell_angle_gamma                 89.991432
_cell_volume                      1511.24264408

loop_
_atom_site_label
_atom_site_type_symbol
_atom_type_description
_atom_site_fract_x
_atom_site_fract_y
_atom_site_fract_z
_atom_type_partial_charge
C1    C     C_R   0.500000 0.740073 0.500054 0.866540
C2    C     C_R   0.392310 0.936024 0.479681 -0.193130
C3    C     C_R   0.500034 0.127463 0.499934 -0.014736
C4    C     C_R   0.499966 0.872537 0.500066 -0.014736
C5    C     C_R   0.965653 0.426747 0.438830 -0.089962
C6    C     C_R   0.034347 0.573253 0.561170 -0.089961
C7    C     C_R   0.109365 0.426701 0.438890 -0.065785
C8    C     C_R   0.890635 0.573299 0.561110 -0.065785
C9    C     C_R   0.407477 0.499712 0.676024 0.871209
C10   C     C_R   0.592523 0.500288 0.323976 0.871209
C11   C     C_R   0.348481 0.490704 0.777328 -0.054023
C12   C     C_R   0.500000 0.259927 0.499946 0.866540
C13   C     C_R   0.651518 0.509295 0.222672 -0.054023
C14   C     C_R   0.177927 0.404442 0.921990 -0.219941
C15   C     C_R   0.822073 0.595557 0.078010 -0.219942
C16   C     C_R   0.217374 0.428221 0.827273 -0.233020
C17   C     C_R   0.782627 0.571778 0.172727 -0.233020
C18   C     C_R   0.437401 0.531541 0.822107 -0.236610
C19   C     C_R   0.562598 0.468459 0.177893 -0.236611
C20   C     C_R   0.410643 0.495408 0.913727 0.076165
C21   C     C_R   0.589357 0.504592 0.086273 0.076165
C22   C     C_R   0.273968 0.436197 0.966543 0.134364
C23   C     C_R   0.339185 0.439181 0.101195 -0.256313
C24   C     C_R   0.726032 0.563802 0.033457 0.134365
C25   C     C_R   0.517719 0.515165 0.952691 0.028024
C26   C     C_R   0.482281 0.484835 0.047309 0.028023
C27   C     C_3   0.091083 0.354345 0.124950 -0.427427
C28   C     C_3   0.095199 0.212283 0.117260 -0.858481
C29   C     C_3   0.908916 0.645656 0.875051 -0.427423
C30   C     C_3   0.904802 0.787718 0.882745 -0.858476
C31   C     C_R   0.660814 0.560819 0.898805 -0.256314
C32   C     C_R   0.237343 0.410982 0.061951 0.143716
C33   C     C_R   0.762657 0.589018 0.938049 0.143715
C34   C     C_R   0.607635 0.936092 0.520408 -0.197676
C35   C     C_R   0.392365 0.063908 0.479592 -0.197675
C36   C     C_R   0.607690 0.063976 0.520319 -0.193130
H1    H     H_    0.470564 0.410456 0.217998 0.137762
H2    H     H_    0.309246 0.112622 0.463038 0.153288
H3    H     H_    0.690868 0.112743 0.536793 0.158649
H4    H     H_    0.309132 0.887257 0.463207 0.158649
H5    H     H_    0.941316 0.368149 0.389912 0.122019
H6    H     H_    0.058684 0.631851 0.610088 0.122019
H7    H     H_    0.193646 0.367943 0.389988 0.118648
H8    H     H_    0.806354 0.632057 0.610012 0.118648
H9    H     H_    0.118737 0.182313 0.044420 0.260239
H10   H     H_    0.181490 0.174117 0.139239 0.260853
H11   H     H_    0.986914 0.173460 0.163640 0.249885
H12   H     H_    0.529435 0.589544 0.782002 0.137761
H13   H     H_    0.064205 0.379885 0.199196 0.199751
H14   H     H_    0.999260 0.392015 0.108688 0.215686
H15   H     H_    0.818509 0.825888 0.860768 0.260852
H16   H     H_    0.881266 0.817684 0.955585 0.260237
H17   H     H_    0.013086 0.826542 0.836364 0.249885
H18   H     H_    0.000739 0.607983 0.891311 0.215685
H19   H     H_    0.935792 0.620120 0.800803 0.199749
H20   H     H_    0.852956 0.604067 0.207088 0.159718
H21   H     H_    0.147045 0.395931 0.792912 0.159718
H22   H     H_    0.074723 0.356813 0.958061 0.159106
H23   H     H_    0.925278 0.643184 0.041939 0.159107
H24   H     H_    0.301633 0.424624 0.175328 0.143011
H25   H     H_    0.698367 0.575376 0.824672 0.143010
H26   H     H_    0.690754 0.887378 0.536962 0.153288
N1    N     N_R   0.142780 0.500030 0.500020 -0.074068
N2    N     N_R   0.857220 0.499970 0.499980 -0.074067
O1    O     O_R   0.385370 0.683250 0.500010 -0.621010
O2    O     O_R   0.614630 0.316750 0.499990 -0.621011
O3    O     O_R   0.614700 0.683220 0.500000 -0.625363
O4    O     O_R   0.385300 0.316780 0.500000 -0.625363
O5    O     O_R   0.319830 0.500020 0.632250 -0.616755
O6    O     O_R   0.680170 0.499980 0.367750 -0.616755
O7    O     O_R   0.549160 0.499990 0.632240 -0.614823
O8    O     O_R   0.450840 0.500010 0.367760 -0.614823
Zn1   Zn    Zn3+2 0.346870 0.500020 0.500000 0.940490
Zn2   Zn    Zn3+2 0.653130 0.499980 0.500000 0.940490

loop_
_geom_bond_atom_site_label_1
_geom_bond_atom_site_label_2
_ccdc_geom_bond_type
C2    C35   A    
C25   C31   A    
O7    Zn2   S    
C2    C4    A    
C21   C26   A    
C31   C33   A    
C11   C18   A    
O5    Zn1   S    
C29   C30   S    
C3    C35   A    
C18   H12   S    
C6    N1    A    
N1    Zn1   S    
C11   C16   A    
C31   H25   S    
C18   C20   A    
C24   C33   A    
C27   H14   S    
C13   C17   A    
C30   H15   S    
C1    C4    S    
C7    N1    A    
C23   C32   A    
C14   C22   A    
O4    Zn1   S    
C12   O2    A    
C28   H11   S    
O3    Zn2   S    
C25   C26   A    
C29   C33   S    
C9    C11   S    
C17   H20   S    
C28   H10   S    
C22   C32   A    
C3    C36   A    
C8    N2    A    
C10   O6    A    
C15   C24   A    
C1    O3    A    
C34   C36   A    
C9    O5    A    
C29   H18   S    
C7    H7    S    
C16   H21   S    
C4    C34   A    
C23   H24   S    
C14   H22   S    
C30   H17   S    
C14   C16   A    
C28   H9    S    
C21   C24   A    
C20   C25   A    
C13   C19   A    
C5    H5    S    
O2    Zn2   S    
C2    H4    S    
C34   H26   S    
C35   H2    S    
O1    Zn1   S    
C27   H13   S    
C9    O7    A    
C6    H6    S    
C23   C26   A    
C27   C28   S    
C5    C7    A    
N2    Zn2   S    
O6    Zn2   S    
O8    Zn1   S    
C6    C8    A    
C3    C12   S    
C19   H1    S    
C19   C21   A    
C27   C32   S    
C15   C17   A    
C29   H19   S    
C15   H23   S    
C1    O1    A    
C12   O4    A    
C36   H3    S    
C8    H8    S    
C5    N2    A    
C20   C22   A    
C30   H16   S    
C10   C13   S    
C10   O8    A    
