data_mof_unit_2029.cif
_audit_creation_date              2012-12-11T15:22:33-0500
_audit_creation_method            fapswitch 2.2
_symmetry_space_group_name_H-M    P1
_symmetry_Int_Tables_number       1
_space_group_crystal_system       triclinic
_cell_length_a                    22.452492
_cell_length_b                    12.992144
_cell_length_c                    27.002351
_cell_angle_alpha                 90.000155
_cell_angle_beta                  90.414417
_cell_angle_gamma                 90.000058
_cell_volume                      7876.54201295

loop_
_atom_site_label
_atom_site_type_symbol
_atom_type_description
_atom_site_fract_x
_atom_site_fract_y
_atom_site_fract_z
_atom_type_partial_charge
C1    C     C_R   0.720704 0.344853 0.178188 0.542785
C2    C     C_R   0.479217 0.256996 0.897210 -0.133645
C3    C     C_R   0.009395 0.586226 0.555014 -0.119478
C4    C     C_R   0.502833 0.083108 0.394485 -0.127669
C5    C     C_R   0.497166 0.083107 0.605514 -0.127669
C6    C     C_R   0.002834 0.583108 0.394485 -0.127669
C7    C     C_R   0.997166 0.583108 0.605514 -0.127669
C8    C     C_R   0.738892 0.958109 0.372603 0.041916
C9    C     C_R   0.261107 0.958107 0.627397 0.041914
C10   C     C_R   0.238891 0.458112 0.372604 0.041916
C11   C     C_R   0.761107 0.458108 0.627397 0.041915
C12   C     C_R   0.686875 0.937673 0.399574 -0.179248
C13   C     C_R   0.020774 0.756990 0.102790 -0.133646
C14   C     C_R   0.313124 0.937668 0.600426 -0.179248
C15   C     C_R   0.186874 0.437679 0.399575 -0.179248
C16   C     C_R   0.813124 0.437668 0.600426 -0.179248
C17   C     C_R   0.689608 0.922937 0.450132 -0.144607
C18   C     C_R   0.310391 0.922931 0.549868 -0.144607
C19   C     C_R   0.189607 0.422945 0.450133 -0.144607
C20   C     C_R   0.810391 0.422932 0.549868 -0.144606
C21   C     C_R   0.744560 0.924579 0.474538 -0.006789
C22   C     C_R   0.255439 0.924577 0.525462 -0.006790
C23   C     C_R   0.244558 0.424586 0.474539 -0.006789
C24   C     C_R   0.979225 0.756991 0.897210 -0.133646
C25   C     C_R   0.755440 0.424579 0.525462 -0.006789
C26   C     C_R   0.797288 0.934961 0.447392 -0.108301
C27   C     C_R   0.202711 0.934961 0.552608 -0.108298
C28   C     C_R   0.297287 0.434965 0.447393 -0.108302
C29   C     C_R   0.702711 0.434963 0.552608 -0.108300
C30   C     C_R   0.795020 0.954925 0.396227 0.279539
C31   C     C_R   0.204979 0.954926 0.603773 0.279538
C32   C     C_R   0.295019 0.454927 0.396228 0.279538
C33   C     C_R   0.704979 0.454927 0.603773 0.279539
C34   C     C_R   0.786515 0.978056 0.555793 -0.120107
C35   C     C_R   0.509063 0.258385 0.051703 0.014321
C36   C     C_R   0.213485 0.978056 0.444208 -0.120107
C37   C     C_R   0.286514 0.478061 0.555794 -0.120107
C38   C     C_R   0.713486 0.478057 0.444207 -0.120107
C39   C     C_R   0.721204 0.347490 0.321624 0.542453
C40   C     C_R   0.278796 0.347491 0.678376 0.542455
C41   C     C_R   0.221204 0.847490 0.321624 0.542454
C42   C     C_R   0.778796 0.847490 0.678376 0.542454
C43   C     C_R   0.793200 0.962600 0.606388 -0.126713
C44   C     C_R   0.206800 0.962600 0.393612 -0.126713
C45   C     C_R   0.293199 0.462602 0.606389 -0.126712
C46   C     C_R   0.490926 0.258391 0.948295 0.014314
C47   C     C_R   0.706801 0.462600 0.393612 -0.126713
C48   C     C_R   0.715953 0.831865 0.603504 -0.129788
C49   C     C_R   0.284046 0.831863 0.396496 -0.129787
C50   C     C_R   0.215951 0.331870 0.603505 -0.129788
C51   C     C_R   0.784046 0.331864 0.396496 -0.129787
C52   C     C_R   0.709899 0.846303 0.552909 -0.120857
C53   C     C_R   0.290100 0.846301 0.447091 -0.120856
C54   C     C_R   0.209897 0.346311 0.552910 -0.120856
C55   C     C_R   0.790100 0.346302 0.447090 -0.120857
C56   C     C_R   0.746744 0.916670 0.528505 0.043619
C57   C     C_R   0.009068 0.758388 0.051704 0.014317
C58   C     C_R   0.253255 0.916668 0.471495 0.043618
C59   C     C_R   0.246742 0.416676 0.528506 0.043619
C60   C     C_R   0.753256 0.416669 0.471495 0.043619
C61   C     C_R   0.759872 0.885995 0.630053 0.026693
C62   C     C_R   0.240128 0.885995 0.369947 0.026693
C63   C     C_R   0.259871 0.385998 0.630053 0.026693
C64   C     C_R   0.740128 0.385995 0.369947 0.026693
C65   C     C_R   0.554373 0.158918 0.321660 0.544221
C66   C     C_R   0.445627 0.158918 0.678340 0.544220
C67   C     C_R   0.054373 0.658918 0.321660 0.544220
C68   C     C_R   0.990931 0.758389 0.948296 0.014317
C69   C     C_R   0.945627 0.658918 0.678340 0.544221
C70   C     C_R   0.731548 0.002152 0.323106 0.572984
C71   C     C_R   0.268452 0.002152 0.676894 0.572982
C72   C     C_R   0.231548 0.502153 0.323106 0.572985
C73   C     C_R   0.768452 0.502152 0.676894 0.572982
C74   C     C_R   0.516430 0.069983 0.102336 -0.131864
C75   C     C_R   0.483631 0.069999 0.897647 -0.131874
C76   C     C_R   0.016401 0.569990 0.102344 -0.131869
C77   C     C_R   0.983603 0.569992 0.897655 -0.131868
C78   C     C_R   0.507019 0.070001 0.051458 0.012378
C79   C     C_R   0.503862 0.164373 0.025822 0.064346
C80   C     C_R   0.493051 0.070010 0.948524 0.012384
C81   C     C_R   0.006987 0.570005 0.051466 0.012381
C82   C     C_R   0.993018 0.570006 0.948532 0.012381
C83   C     C_R   0.496825 0.976723 0.974358 -0.139222
C84   C     C_R   0.503289 0.976718 0.025615 -0.139233
C85   C     C_R   0.996772 0.476720 0.974370 -0.139226
C86   C     C_R   0.003236 0.476720 0.025627 -0.139228
C87   C     C_3   0.887216 0.033993 0.390663 -0.114657
C88   C     C_3   0.112790 0.034013 0.609338 -0.114651
C89   C     C_3   0.387217 0.533988 0.390664 -0.114658
C90   C     C_R   0.496169 0.164377 0.974169 0.064345
C91   C     C_3   0.612786 0.534004 0.609337 -0.114656
C92   C     C_R   0.003847 0.664375 0.025826 0.064345
C93   C     C_R   0.279296 0.344854 0.821812 0.542785
C94   C     C_R   0.996155 0.664375 0.974173 0.064345
C95   C     C_R   0.504767 0.351631 0.025646 -0.137779
C96   C     C_R   0.495181 0.351634 0.974361 -0.137779
C97   C     C_R   0.004792 0.851632 0.025643 -0.137779
C98   C     C_R   0.995205 0.851633 0.974358 -0.137780
C99   C     C_R   0.739247 0.957541 0.129838 0.024452
C100  C     C_R   0.260751 0.957537 0.870160 0.024449
C101  C     C_R   0.239248 0.457539 0.129839 0.024451
C102  C     C_R   0.760751 0.457539 0.870161 0.024451
C103  C     C_R   0.794188 0.965487 0.105752 -0.129265
C104  C     C_R   0.220704 0.844853 0.178188 0.542784
C105  C     C_R   0.205809 0.965485 0.894246 -0.129262
C106  C     C_R   0.294190 0.465484 0.105753 -0.129265
C107  C     C_R   0.705811 0.465491 0.894248 -0.129261
C108  C     C_R   0.797860 0.946423 0.055085 -0.119895
C109  C     C_R   0.202136 0.946418 0.944913 -0.119894
C110  C     C_R   0.297862 0.446418 0.055086 -0.119895
C111  C     C_R   0.702138 0.446425 0.944915 -0.119894
C112  C     C_R   0.746486 0.920572 0.027724 0.036501
C113  C     C_R   0.253510 0.920561 0.972274 0.036499
C114  C     C_R   0.246488 0.420566 0.027725 0.036501
C115  C     C_R   0.779295 0.844854 0.821812 0.542785
C116  C     C_R   0.753512 0.420566 0.972275 0.036501
C117  C     C_R   0.692364 0.906786 0.052449 -0.121511
C118  C     C_R   0.307632 0.906772 0.947549 -0.121511
C119  C     C_R   0.192366 0.406780 0.052450 -0.121511
C120  C     C_R   0.807633 0.406773 0.947549 -0.121510
C121  C     C_R   0.553918 0.157198 0.177416 0.550028
C122  C     C_R   0.446085 0.157200 0.822582 0.550029
C123  C     C_R   0.053917 0.657199 0.177417 0.550028
C124  C     C_R   0.946084 0.657200 0.822583 0.550029
C125  C     C_R   0.688906 0.924063 0.103101 -0.126177
C126  C     C_R   0.473590 0.162620 0.872071 -0.003855
C127  C     C_R   0.311091 0.924052 0.896897 -0.126177
C128  C     C_R   0.188907 0.424059 0.103102 -0.126178
C129  C     C_R   0.811091 0.424052 0.896897 -0.126177
C130  C     C_R   0.716173 0.832694 0.949389 -0.118663
C131  C     C_R   0.283820 0.832680 0.050608 -0.118662
C132  C     C_R   0.216176 0.332688 0.949390 -0.118663
C133  C     C_R   0.783822 0.332683 0.050609 -0.118663
C134  C     C_R   0.721843 0.817932 0.898670 -0.125208
C135  C     C_R   0.278153 0.817921 0.101327 -0.125204
C136  C     C_R   0.221844 0.317928 0.898671 -0.125206
C137  C     C_R   0.526426 0.162608 0.127921 -0.003848
C138  C     C_R   0.778153 0.317922 0.101328 -0.125206
C139  C     C_R   0.791379 0.960434 0.894670 -0.124064
C140  C     C_R   0.208621 0.960430 0.105328 -0.124063
C141  C     C_R   0.291380 0.460431 0.894671 -0.124066
C142  C     C_R   0.708623 0.460434 0.105330 -0.124061
C143  C     C_R   0.784973 0.976229 0.945365 -0.115869
C144  C     C_R   0.215025 0.976222 0.054633 -0.115869
C145  C     C_R   0.284975 0.476224 0.945367 -0.115871
C146  C     C_R   0.715028 0.476228 0.054634 -0.115867
C147  C     C_R   0.749000 0.910065 0.973436 0.038476
C148  C     C_R   0.973583 0.662614 0.872075 -0.003852
C149  C     C_R   0.250996 0.910054 0.026561 0.038474
C150  C     C_R   0.249002 0.410059 0.973438 0.038476
C151  C     C_R   0.750998 0.410059 0.026562 0.038475
C152  C     C_R   0.761305 0.879057 0.871253 0.024497
C153  C     C_R   0.238694 0.879051 0.128745 0.024497
C154  C     C_R   0.261306 0.379054 0.871254 0.024497
C155  C     C_R   0.738695 0.379053 0.128746 0.024497
C156  C     C_R   0.527636 0.169085 0.370929 0.027915
C157  C     C_R   0.472364 0.169085 0.629071 0.027915
C158  C     C_R   0.027636 0.669085 0.370929 0.027915
C159  C     C_R   0.026418 0.662613 0.127925 -0.003852
C160  C     C_R   0.972365 0.669085 0.629071 0.027915
C161  C     C_R   0.536546 0.260199 0.398048 -0.118103
C162  C     C_R   0.463456 0.260199 0.601953 -0.118100
C163  C     C_R   0.036546 0.760199 0.398048 -0.118102
C164  C     C_R   0.963455 0.760199 0.601953 -0.118099
C165  C     C_R   0.525213 0.262777 0.448613 -0.118982
C166  C     C_R   0.474788 0.262778 0.551387 -0.118980
C167  C     C_R   0.025213 0.762778 0.448613 -0.118982
C168  C     C_R   0.974788 0.762777 0.551387 -0.118979
C169  C     C_R   0.731200 0.002083 0.179287 0.545445
C170  C     C_R   0.520766 0.256986 0.102789 -0.133646
C171  C     C_R   0.268799 0.002082 0.820712 0.545445
C172  C     C_R   0.231200 0.502082 0.179288 0.545446
C173  C     C_R   0.768799 0.502082 0.820712 0.545446
C174  C     C_R   0.503755 0.174876 0.472855 0.037617
C175  C     C_R   0.496245 0.174876 0.527145 0.037618
C176  C     C_R   0.003755 0.674876 0.472855 0.037617
C177  C     C_R   0.996246 0.674876 0.527145 0.037617
C178  C     C_R   0.490604 0.086227 0.444985 -0.119479
C179  C     C_R   0.509395 0.086226 0.555014 -0.119479
C180  C     C_R   0.990605 0.586227 0.444985 -0.119479
Cr1   Cr    Cr6+3 0.756570 0.170940 0.251190 1.026667
Cr2   Cr    Cr6+3 0.374010 0.036240 0.749520 1.008483
Cr3   Cr    Cr6+3 0.125990 0.536240 0.250480 1.008483
Cr4   Cr    Cr6+3 0.874010 0.536240 0.749520 1.008482
Cr5   Cr    Cr6+3 0.243430 0.170940 0.748810 1.026665
Cr6   Cr    Cr6+3 0.256570 0.670940 0.251190 1.026667
Cr7   Cr    Cr6+3 0.743430 0.670940 0.748810 1.026666
Cr8   Cr    Cr6+3 0.623740 0.299110 0.249580 1.015707
Cr9   Cr    Cr6+3 0.376260 0.299110 0.750420 1.015703
Cr10  Cr    Cr6+3 0.123740 0.799110 0.249580 1.015706
Cr11  Cr    Cr6+3 0.876260 0.799110 0.750420 1.015705
Cr12  Cr    Cr6+3 0.625990 0.036240 0.250480 1.008483
H1    H     H_    0.479704 0.996714 0.878675 0.127544
H2    H     H_    0.348042 0.887599 0.967652 0.105152
H3    H     H_    0.365088 0.601902 0.407797 0.093257
H4    H     H_    0.417658 0.563653 0.361812 0.140510
H5    H     H_    0.584992 0.492457 0.581635 0.104194
H6    H     H_    0.634920 0.601915 0.592205 0.093257
H7    H     H_    0.582346 0.563673 0.638189 0.140509
H8    H     H_    0.151956 0.387610 0.032347 0.105150
H9    H     H_    0.848043 0.387598 0.967651 0.105148
H10   H     H_    0.645717 0.918166 0.120502 0.129853
H11   H     H_    0.354280 0.918154 0.879497 0.129870
H12   H     H_    0.145718 0.418162 0.120502 0.129861
H13   H     H_    0.854280 0.418149 0.879496 0.129860
H14   H     H_    0.556182 0.327525 0.381033 0.131574
H15   H     H_    0.443821 0.327526 0.618968 0.131575
H16   H     H_    0.056181 0.827526 0.381033 0.131574
H17   H     H_    0.520383 0.996696 0.121301 0.127545
H18   H     H_    0.943820 0.827525 0.618967 0.131575
H19   H     H_    0.527782 0.018371 0.537559 0.097817
H20   H     H_    0.472216 0.018373 0.462441 0.097818
H21   H     H_    0.027783 0.518372 0.537559 0.097816
H22   H     H_    0.972217 0.518372 0.462441 0.097817
H23   H     H_    0.504655 0.012076 0.625615 0.121926
H24   H     H_    0.495343 0.012077 0.374384 0.121927
H25   H     H_    0.004656 0.512076 0.625616 0.121926
H26   H     H_    0.995344 0.512077 0.374384 0.121927
H27   H     H_    0.536082 0.332049 0.469059 0.093683
H28   H     H_    0.979663 0.496706 0.878686 0.127545
H29   H     H_    0.463920 0.332050 0.530942 0.093682
H30   H     H_    0.036082 0.832049 0.469059 0.093684
H31   H     H_    0.963919 0.832049 0.530941 0.093683
H32   H     H_    0.643171 0.940928 0.382368 0.146192
H33   H     H_    0.356828 0.940921 0.617633 0.146191
H34   H     H_    0.143170 0.440936 0.382369 0.146193
H35   H     H_    0.856828 0.440921 0.617633 0.146191
H36   H     H_    0.813892 0.035279 0.537697 0.096562
H37   H     H_    0.186109 0.035279 0.462304 0.096562
H38   H     H_    0.313891 0.535283 0.537698 0.096562
H39   H     H_    0.020342 0.496704 0.121312 0.127544
H40   H     H_    0.686110 0.535281 0.462303 0.096562
H41   H     H_    0.826898 0.006000 0.626293 0.123942
H42   H     H_    0.173103 0.006001 0.373707 0.123941
H43   H     H_    0.326898 0.506001 0.626294 0.123942
H44   H     H_    0.673103 0.506002 0.373707 0.123941
H45   H     H_    0.494014 0.903804 0.954985 0.098579
H46   H     H_    0.506133 0.903795 0.044983 0.098564
H47   H     H_    0.993946 0.403800 0.955000 0.098572
H48   H     H_    0.006064 0.403799 0.044997 0.098572
H49   H     H_    0.648396 0.914891 0.470385 0.113723
H50   H     H_    0.821910 0.008786 0.874274 0.123470
H51   H     H_    0.351604 0.914884 0.529616 0.113721
H52   H     H_    0.148393 0.414902 0.470386 0.113723
H53   H     H_    0.851604 0.414885 0.529616 0.113721
H54   H     H_    0.678797 0.798277 0.532570 0.094758
H55   H     H_    0.321202 0.798274 0.467430 0.094759
H56   H     H_    0.178793 0.298286 0.532571 0.094757
H57   H     H_    0.821202 0.298275 0.467430 0.094759
H58   H     H_    0.689565 0.772362 0.620896 0.128280
H59   H     H_    0.310434 0.772360 0.379104 0.128283
H60   H     H_    0.189563 0.272368 0.620897 0.128275
H61   H     H_    0.178091 0.008785 0.125725 0.123470
H62   H     H_    0.810434 0.272360 0.379104 0.128282
H63   H     H_    0.839798 0.928855 0.466300 0.100196
H64   H     H_    0.160201 0.928858 0.533700 0.100199
H65   H     H_    0.339797 0.428857 0.466302 0.100195
H66   H     H_    0.660201 0.428859 0.533699 0.100196
H67   H     H_    0.471524 0.328733 0.877683 0.124255
H68   H     H_    0.528425 0.328725 0.122325 0.124236
H69   H     H_    0.971548 0.828730 0.877679 0.124246
H70   H     H_    0.028449 0.828729 0.122321 0.124245
H71   H     H_    0.491184 0.424482 0.955088 0.101128
H72   H     H_    0.321911 0.508784 0.874275 0.123469
H73   H     H_    0.508732 0.424477 0.044925 0.101126
H74   H     H_    0.991224 0.924480 0.955082 0.101127
H75   H     H_    0.008771 0.924479 0.044919 0.101127
H76   H     H_    0.833648 0.990905 0.125559 0.124187
H77   H     H_    0.166351 0.990907 0.874439 0.124188
H78   H     H_    0.333649 0.490903 0.125560 0.124186
H79   H     H_    0.666352 0.490915 0.874441 0.124189
H80   H     H_    0.688361 0.780161 0.970064 0.099135
H81   H     H_    0.311630 0.780145 0.029933 0.099139
H82   H     H_    0.188364 0.280155 0.970065 0.099137
H83   H     H_    0.678094 0.508790 0.125727 0.123470
H84   H     H_    0.811631 0.280147 0.029933 0.099138
H85   H     H_    0.698546 0.753798 0.881732 0.132757
H86   H     H_    0.301448 0.753786 0.118266 0.132761
H87   H     H_    0.198548 0.253794 0.881732 0.132759
H88   H     H_    0.801447 0.253785 0.118266 0.132761
H89   H     H_    0.840572 0.954466 0.037108 0.106189
H90   H     H_    0.159425 0.954463 0.962890 0.106189
H91   H     H_    0.340574 0.454461 0.037109 0.106187
H92   H     H_    0.659428 0.454474 0.962892 0.106190
H93   H     H_    0.809332 0.038565 0.962794 0.100257
H94   H     H_    0.651953 0.887618 0.032346 0.105148
H95   H     H_    0.190668 0.038560 0.037205 0.100259
H96   H     H_    0.309334 0.538560 0.962795 0.100257
H97   H     H_    0.690672 0.538567 0.037207 0.100260
H98   H     H_    0.915010 0.992440 0.418364 0.104197
H99   H     H_    0.865085 0.101905 0.407796 0.093257
H100  H     H_    0.917656 0.063660 0.361811 0.140510
H101  H     H_    0.084995 0.992475 0.581633 0.104189
H102  H     H_    0.134928 0.101925 0.592211 0.093259
H103  H     H_    0.082350 0.063680 0.638191 0.140509
H104  H     H_    0.415009 0.492434 0.418365 0.104198
O1    O     O_R   0.769900 0.064540 0.196060 -0.520330
O2    O     O_R   0.433710 0.069580 0.694600 -0.524537
O3    O     O_R   0.066290 0.569580 0.305400 -0.524537
O4    O     O_R   0.933710 0.569580 0.694600 -0.524536
O5    O     O_R   0.680760 0.993330 0.302620 -0.521100
O6    O     O_R   0.319240 0.993330 0.697380 -0.521100
O7    O     O_R   0.180760 0.493330 0.302620 -0.521101
O8    O     O_R   0.819240 0.493330 0.697380 -0.521100
O9    O     O_3   0.668770 0.168760 0.250420 -0.243968
O10   O     O_3   0.331230 0.168760 0.749580 -0.243966
O11   O     O_3   0.168770 0.668760 0.250420 -0.243968
O12   O     O_R   0.230100 0.064540 0.803940 -0.520331
O13   O     O_3   0.831230 0.668760 0.749580 -0.243967
O14   O     O_R   0.750800 0.274080 0.199250 -0.507044
O15   O     O_R   0.249200 0.274080 0.800750 -0.507043
O16   O     O_R   0.250800 0.774080 0.199250 -0.507043
O17   O     O_R   0.749200 0.774080 0.800750 -0.507043
O18   O     O_R   0.669990 0.371670 0.194150 -0.519712
O19   O     O_R   0.330010 0.371670 0.805850 -0.519719
O20   O     O_R   0.169990 0.871670 0.194150 -0.519715
O21   O     O_R   0.830010 0.871670 0.805850 -0.519716
O22   O     O_R   0.574600 0.238480 0.197800 -0.498828
O23   O     O_R   0.269900 0.564540 0.196060 -0.520330
O24   O     O_R   0.425400 0.238480 0.802200 -0.498837
O25   O     O_R   0.074600 0.738480 0.197800 -0.498832
O26   O     O_R   0.925400 0.738480 0.802200 -0.498833
O27   O     O_R   0.566130 0.068680 0.194240 -0.525513
O28   O     O_R   0.433870 0.068680 0.805760 -0.525507
O29   O     O_R   0.066130 0.568680 0.194240 -0.525510
O30   O     O_R   0.933870 0.568680 0.805760 -0.525510
O31   O     O_R   0.680610 0.992490 0.199570 -0.506097
O32   O     O_R   0.319390 0.992490 0.800430 -0.506093
O33   O     O_R   0.180610 0.492490 0.199570 -0.506095
O34   O     O_R   0.730100 0.564540 0.803940 -0.520331
O35   O     O_R   0.819390 0.492490 0.800430 -0.506095
O36   O     O_R   0.770060 0.065440 0.307230 -0.470826
O37   O     O_R   0.229940 0.065440 0.692770 -0.470828
O38   O     O_R   0.270060 0.565440 0.307230 -0.470826
O39   O     O_R   0.729940 0.565440 0.692770 -0.470826
O40   O     O_R   0.750960 0.274920 0.302300 -0.508500
O41   O     O_R   0.249040 0.274920 0.697700 -0.508500
O42   O     O_R   0.250960 0.774920 0.302300 -0.508500
O43   O     O_R   0.749040 0.774920 0.697700 -0.508500
O44   O     O_R   0.670160 0.372580 0.305320 -0.524616
O45   O     O_R   0.574760 0.239320 0.300850 -0.502103
O46   O     O_R   0.329840 0.372580 0.694680 -0.524616
O47   O     O_R   0.170160 0.872580 0.305320 -0.524615
O48   O     O_R   0.829840 0.872580 0.694680 -0.524616
O49   O     O_3   0.846170 0.966103 0.367953 -0.544662
O50   O     O_3   0.153830 0.966107 0.632046 -0.544662
O51   O     O_3   0.346169 0.466102 0.367953 -0.544663
O52   O     O_3   0.653830 0.466108 0.632046 -0.544662
O53   O     O_R   0.425240 0.239320 0.699150 -0.502103
O54   O     O_R   0.074760 0.739320 0.300850 -0.502103
O55   O     O_R   0.925240 0.739320 0.699150 -0.502103
O56   O     O_R   0.566290 0.069580 0.305400 -0.524535

loop_
_geom_bond_atom_site_label_1
_geom_bond_atom_site_label_2
_ccdc_geom_bond_type
C18   H51   S    
C99   C103  A    
C21   C26   A    
C83   H45   S    
C34   C56   A    
C82   C94   A    
C162  H15   S    
C100  C127  A    
C132  C150  A    
C111  H92   S    
C142  C146  A    
C133  C151  A    
C73   O39   A    
C66   O53   A    
C131  H81   S    
C65   C156  S    
C141  C154  A    
Cr7   O39   S    
C29   C33   A    
C139  C152  A    
C71   O37   A    
C69   C160  S    
C45   H43   S    
C139  H50   S    
C5    C179  A    
C79   C90   A    
C164  H18   S    
Cr5   O12   S    
C86   H48   S    
C55   H57   S    
Cr6   O11   S    
C25   C60   S    
C81   C86   A    
C141  C145  A    
C119  C128  A    
C17   H49   S    
C133  H84   S    
Cr1   O14   S    
C144  H95   S    
Cr12  O9    S    
C130  C134  A    
C80   C83   A    
C166  H29   S    
Cr6   O42   S    
C25   C29   A    
C74   C137  A    
C125  H10   S    
Cr2   O28   S    
C27   C31   A    
C119  H8    S    
C9    C71   S    
C28   C32   A    
C136  H87   S    
C14   H33   S    
C72   O7    A    
C47   C64   A    
C17   C21   A    
Cr2   O10   S    
C19   C23   A    
C53   H55   S    
C16   C20   A    
C57   C97   A    
C73   O8    A    
C92   C94   A    
C87   H100  S    
C178  H20   S    
Cr4   O8    S    
C22   C27   A    
C104  O20   A    
C70   O5    A    
C36   C44   A    
C114  C150  S    
C37   C45   A    
Cr9   O19   S    
Cr1   O40   S    
C50   H60   S    
C43   C61   A    
Cr10  O20   S    
C123  O25   A    
C49   C62   A    
C138  H88   S    
C134  H85   S    
C51   C64   A    
C173  O34   A    
C22   C58   S    
C53   C58   A    
C3    H21   S    
C82   C85   A    
Cr1   O1    S    
C75   C126  A    
Cr2   O6    S    
Cr9   O10   S    
C112  C117  A    
C123  C159  S    
C77   C82   A    
C49   C53   A    
C45   C63   A    
C51   C55   A    
C68   C98   A    
C48   C52   A    
C46   C96   A    
Cr9   O46   S    
C35   C170  A    
C140  H61   S    
C51   H62   S    
C157  C162  A    
C161  C165  A    
C1    O14   A    
C122  O24   A    
Cr11  O13   S    
C57   C92   A    
C135  H86   S    
C71   O6    A    
C101  C128  A    
C97   C98   A    
Cr3   O29   S    
C85   C86   A    
C23   C59   S    
C129  H13   S    
C88   O50   S    
C44   H42   S    
C26   H63   S    
C70   O36   A    
C42   O48   A    
C89   H3    S    
C163  H16   S    
C87   H98   S    
C101  C172  S    
C88   H101  S    
C121  C137  S    
C145  H96   S    
C174  C175  S    
C81   C92   A    
C139  C143  A    
C97   H75   S    
C69   O4    A    
C24   H69   S    
C104  C153  S    
C27   H64   S    
C110  C114  A    
C145  C150  A    
C132  C136  A    
C2    H67   S    
C6    H26   S    
C1    O18   A    
C50   C63   A    
C41   O47   A    
C6    C158  A    
C54   C59   A    
Cr9   O53   S    
C171  O12   A    
C74   H17   S    
C120  C129  A    
Cr11  O55   S    
C11   C33   A    
Cr10  O11   S    
C165  C174  A    
C66   O2    A    
C68   C94   A    
C116  C120  A    
C34   H36   S    
C167  H30   S    
C83   C84   A    
C169  O31   A    
Cr11  O26   S    
C102  C107  A    
Cr4   O35   S    
C23   C28   A    
C137  C170  A    
C37   C59   A    
C158  C163  A    
C38   C60   A    
C20   H53   S    
C156  C161  A    
C26   C30   A    
C172  O23   A    
C32   O51   S    
C118  C127  A    
C168  H31   S    
C2    C126  A    
Cr12  O56   S    
C101  C106  A    
C105  C109  A    
C6    C180  A    
C130  C147  A    
C18   C22   A    
Cr3   O11   S    
C34   C43   A    
C4    C178  A    
C67   O54   A    
C89   H104  S    
C8    C70   S    
C112  C147  S    
C88   H103  S    
C180  H22   S    
Cr4   O4    S    
C98   H74   S    
C93   O19   A    
C35   C79   A    
C104  O16   A    
Cr10  O54   S    
Cr1   O36   S    
C165  H27   S    
C146  C151  A    
C176  C180  A    
Cr4   O13   S    
C33   O52   S    
C117  C125  A    
C13   C159  A    
C66   C157  S    
C108  H89   S    
C10   C72   S    
C138  C155  A    
Cr8   O45   S    
C76   C159  A    
Cr10  O47   S    
Cr2   O2    S    
C102  C173  S    
C15   C19   A    
C39   C64   S    
C124  C148  S    
C166  C175  A    
C50   C54   A    
C40   C63   S    
C4    H24   S    
C160  C164  A    
C3    C7    A    
C172  O33   A    
C146  H97   S    
C95   H73   S    
C20   C25   A    
C168  C177  A    
C128  H12   S    
C12   H32   S    
Cr8   O18   S    
C162  C166  A    
C91   H6    S    
C40   O41   A    
C121  O27   A    
C42   O43   A    
C36   H37   S    
C69   O55   A    
C12   C17   A    
C87   H99   S    
C65   O45   A    
C111  C116  A    
C54   H56   S    
C8    C12   A    
C13   H70   S    
C174  C178  A    
C140  C153  A    
C67   O3    A    
C133  C138  A    
C55   C60   A    
C107  C111  A    
C41   C62   S    
Cr3   O3    S    
Cr8   O44   S    
Cr7   O43   S    
C105  H77   S    
C107  H79   S    
C11   C73   S    
Cr12  O31   S    
C38   H40   S    
C7    C160  A    
Cr12  O5    S    
C108  C112  A    
C9    C14   A    
Cr9   O24   S    
C136  C154  A    
C11   C16   A    
C164  C168  A    
C134  C152  A    
C103  H76   S    
C77   C148  A    
C19   H52   S    
C4    C156  A    
C143  H93   S    
C5    C157  A    
C43   H41   S    
C161  H14   S    
C115  O21   A    
Cr5   O37   S    
C47   H44   S    
C40   O46   A    
C121  O22   A    
C65   O56   A    
C84   H46   S    
C140  C144  A    
C21   C56   S    
C46   C90   A    
C35   C95   A    
C36   C58   A    
C29   H66   S    
C8    C30   A    
C109  H90   S    
Cr7   O34   S    
C30   O49   S    
Cr7   O17   S    
C88   H102  S    
C118  H2    S    
C24   C68   A    
C49   H59   S    
C13   C57   A    
C74   C78   A    
Cr10  O25   S    
Cr8   O9    S    
C127  H11   S    
C122  O28   A    
C5    H23   S    
C16   H35   S    
C1    C155  S    
C14   C18   A    
C95   C96   A    
C102  C129  A    
C173  O35   A    
C31   O50   S    
C99   C125  A    
C2    C46   A    
C143  C147  A    
C93   O15   A    
C100  C105  A    
C10   C32   A    
C93   C154  S    
C131  C135  A    
C10   C15   A    
C87   O49   S    
Cr6   O38   S    
C179  H19   S    
Cr5   O15   S    
Cr2   O32   S    
Cr6   O16   S    
Cr7   O13   S    
Cr1   O9    S    
C115  C152  S    
C103  C108  A    
C142  C155  A    
C75   C80   A    
C109  C113  A    
C91   H7    S    
C39   O40   A    
C100  C171  S    
C48   H58   S    
C120  H9    S    
C41   O42   A    
C37   H38   S    
C15   H34   S    
C113  C149  S    
Cr8   O22   S    
C24   C148  A    
C78   C79   A    
C175  C179  A    
C110  H91   S    
C44   C62   A    
Cr11  O21   S    
C89   H4    S    
C123  O29   A    
C85   H47   S    
C7    H25   S    
C122  C126  S    
C163  C167  A    
C144  C149  A    
C124  O30   A    
C130  H80   S    
C132  H82   S    
C76   H39   S    
C142  H83   S    
C42   C61   S    
Cr3   O7    S    
C38   C47   A    
C171  O32   A    
C75   H1    S    
C176  C177  S    
C39   O44   A    
C106  H78   S    
C96   H71   S    
Cr5   O10   S    
Cr11  O48   S    
C141  H72   S    
C124  O26   A    
Cr12  O27   S    
Cr6   O23   S    
C106  C110  A    
C72   O38   A    
C114  C119  A    
C52   H54   S    
C76   C81   A    
C77   H28   S    
C99   C169  S    
C89   O51   S    
Cr3   O33   S    
C135  C153  A    
C3    C177  A    
C48   C61   A    
C67   C158  S    
Cr4   O30   S    
C116  C151  S    
C80   C90   A    
C115  O17   A    
Cr5   O41   S    
C131  C149  A    
C9    C31   A    
C113  C118  A    
C91   H5    S    
C78   C84   A    
C28   H65   S    
C91   O52   S    
C170  H68   S    
C117  H94   S    
C169  O1    A    
C52   C56   A    
C167  C176  A    
