data_mof_unit_363.cif
_audit_creation_date              2012-12-10T17:21:40-0500
_audit_creation_method            fapswitch 2.2
_symmetry_space_group_name_H-M    P1
_symmetry_Int_Tables_number       1
_space_group_crystal_system       triclinic
_cell_length_a                    10.770014
_cell_length_b                    10.823077
_cell_length_c                    9.610016
_cell_angle_alpha                 92.684793
_cell_angle_beta                  89.811007
_cell_angle_gamma                 93.711224
_cell_volume                      1116.61241588

loop_
_atom_site_label
_atom_site_type_symbol
_atom_type_description
_atom_site_fract_x
_atom_site_fract_y
_atom_site_fract_z
_atom_type_partial_charge
C1    C     C_R   0.506135 0.263198 0.496883 0.800981
C2    C     C_3   0.878746 0.498566 0.498102 -0.107514
C3    C     C_3   0.938732 0.612377 0.420046 0.303702
C4    C     C_3   0.923341 0.372462 0.430896 0.234631
C5    C     C_R   0.660125 0.144616 0.691677 -0.220879
C6    C     C_R   0.679623 0.103838 0.823888 -0.182589
C7    C     C_R   0.618411 0.993858 0.863587 0.486692
C8    C     C_R   0.559160 0.912653 0.762247 -0.263765
C9    C     C_R   0.546285 0.949849 0.623989 0.073989
C10   C     C_R   0.578344 0.075005 0.599295 0.103024
C11   C     C_R   0.517759 0.130176 0.491106 -0.088482
C12   C     C_R   0.260268 0.499093 0.500346 0.781369
C13   C     C_R   0.448413 0.056947 0.392375 -0.111341
C14   C     C_R   0.442531 0.929162 0.398022 -0.154528
C15   C     C_R   0.491844 0.873455 0.512509 -0.099838
C16   C     C_R   0.679642 0.652481 0.150087 -0.050112
C17   C     C_R   0.773043 0.719070 0.080263 -0.091068
C18   C     C_R   0.770257 0.721661 0.937027 -0.170011
C19   C     C_R   0.675955 0.654823 0.862872 -0.176870
C20   C     C_R   0.587331 0.575407 0.928665 0.191226
C21   C     C_R   0.588127 0.574795 0.077990 0.228343
C22   C     C_R   0.416868 0.427592 0.070370 -0.003294
C23   C     C_R   0.495200 0.737982 0.503976 0.864030
C24   C     C_R   0.417005 0.427512 0.922502 -0.029887
C25   C     C_R   0.740112 0.498207 0.499478 0.845004
C26   C     C_3   0.071554 0.512768 0.651403 -0.343156
C27   C     C_3   0.928955 0.507270 0.650512 -0.407368
C28   C     C_3   0.081621 0.605877 0.414524 -0.377934
C29   C     C_3   0.067466 0.374784 0.432895 -0.411609
C30   C     C_3   0.122744 0.498265 0.500554 -0.005598
Cu1   Cu    Cu3+1 0.499990 0.499990 0.640660 0.945142
Cu2   Cu    Cu3+1 0.500010 0.500010 0.359340 1.011536
H1    H     H_    0.108325 0.602543 0.701281 0.227657
H2    H     H_    0.110594 0.591793 0.303863 0.171630
H3    H     H_    0.903475 0.607659 0.311973 0.139674
H4    H     H_    0.396705 0.098822 0.312615 0.197426
H5    H     H_    0.700208 0.235252 0.666801 0.156277
H6    H     H_    0.729921 0.164934 0.899807 0.198646
H7    H     H_    0.510398 0.829713 0.796890 0.199683
H8    H     H_    0.394176 0.873753 0.315767 0.202433
H9    H     H_    0.348765 0.368173 0.122616 0.142655
H10   H     H_    0.102612 0.437506 0.715634 0.177423
H11   H     H_    0.681390 0.668397 0.259914 0.208810
H12   H     H_    0.844117 0.774720 0.138120 0.208410
H13   H     H_    0.838454 0.779978 0.883443 0.189378
H14   H     H_    0.673844 0.671214 0.754835 0.236505
H15   H     H_    0.348940 0.368033 0.864529 0.142904
H16   H     H_    0.892638 0.425234 0.707550 0.162211
H17   H     H_    0.896579 0.589710 0.709301 0.248938
H18   H     H_    0.130844 0.694260 0.453557 0.210378
H19   H     H_    0.105921 0.363061 0.325816 0.223045
H20   H     H_    0.097350 0.295802 0.492077 0.151773
H21   H     H_    0.888325 0.297189 0.498817 0.096694
N1    N     N_R   0.501200 0.501210 0.147910 -0.202767
N2    N     N_R   0.501250 0.501290 0.852040 -0.209716
O1    O     O_R   0.499990 0.319640 0.618810 -0.590874
O2    O     O_R   0.500000 0.319660 0.381240 -0.533023
O3    O     O_R   0.317680 0.499970 0.618790 -0.590063
O4    O     O_R   0.317700 0.499990 0.381210 -0.596978
O5    O     O_R   0.500000 0.680340 0.618760 -0.607326
O6    O     O_R   0.500010 0.680360 0.381190 -0.584699
O7    O     O_R   0.682300 0.500010 0.618790 -0.615665
O8    O     O_R   0.682320 0.500030 0.381210 -0.552490
S1    S     S_3+6 0.866234 0.322431 0.258495 -0.009308
O9    O     O_2   0.938136 0.215464 0.205140 -0.249763
O10   O     O_2   0.731528 0.278045 0.265896 -0.251795
O11   O     O_3   0.884003 0.436023 0.145310 -0.580672
H22   H     H_    0.836439 0.404549 0.061533 0.366646
S2    S     S_3+6 0.590798 0.977515 0.041842 -0.013955
O12   O     O_2   0.516078 0.083556 0.090826 -0.300575
O13   O     O_2   0.518572 0.857266 0.067181 -0.342662
O14   O     O_3   0.726262 0.987228 0.129200 -0.486634
H23   H     H_    0.702454 0.982363 0.228582 0.402242
S3    S     S_3+6 0.901471 0.763475 0.491321 -0.069536
O15   O     O_2   0.937361 0.858258 0.386543 -0.284257
O16   O     O_2   0.765000 0.766716 0.520551 -0.368928
O17   O     O_3   0.981282 0.800690 0.639131 -0.572010
H24   H     H_    0.955129 0.883720 0.669795 0.378429

loop_
_geom_bond_atom_site_label_1
_geom_bond_atom_site_label_2
_ccdc_geom_bond_type
C27   H16   S    
C16   C21   A    
C5    H5    S    
C4    H21   S    
C19   C20   A    
C1    C11   S    
C19   H14   S    
C7    C8    A    
C22   N1    A    
O17   H24   S    
C24   N2    A    
C26   C27   S    
S3    O16   D    
Cu1   O3    S    
C3    C28   S    
C1    O1    A    
Cu2   O6    S    
C5    C6    A    
C22   H9    S    
C18   C19   A    
C25   O8    A    
S2    O13   D    
C3    S3    S    
C12   O4    A    
C28   H18   S    
C8    C9    A    
S3    O17   S    
C6    H6    S    
C2    C27   S    
C8    H7    S    
Cu1   O1    S    
C9    C10   A    
C4    C29   S    
C12   O3    A    
C15   C23   S    
C28   H2    S    
C13   C14   A    
Cu1   O7    S    
Cu2   O2    S    
C20   N2    A    
Cu2   N1    S    
C23   O5    A    
S3    O15   D    
O11   H22   S    
S1    O11   S    
C13   H4    S    
C16   C17   A    
S1    O10   D    
Cu1   O5    S    
S2    O14   S    
C2    C4    S    
C29   C30   S    
C1    O2    A    
C26   H1    S    
Cu1   Cu2   S    
C3    H3    S    
C17   C18   A    
C16   H11   S    
C26   C30   S    
C22   C24   A    
C18   H13   S    
C26   H10   S    
C29   H19   S    
C12   C30   S    
C24   H15   S    
Cu2   O8    S    
O14   H23   S    
C7    S2    S    
C6    C7    A    
C4    S1    S    
S1    O9    D    
C28   C30   S    
C2    C3    S    
C9    C15   A    
C17   H12   S    
C5    C10   A    
C11   C13   A    
C21   N1    A    
C2    C25   S    
C25   O7    A    
S2    O12   D    
C10   C11   A    
C14   H8    S    
C23   O6    A    
C20   C21   A    
C14   C15   A    
Cu2   O4    S    
Cu1   N2    S    
C27   H17   S    
C29   H20   S    
