data_mof_unit_4574.cif
_audit_creation_date              2012-12-10T20:40:04-0500
_audit_creation_method            fapswitch 2.2
_symmetry_space_group_name_H-M    P1
_symmetry_Int_Tables_number       1
_space_group_crystal_system       triclinic
_cell_length_a                    23.422926
_cell_length_b                    10.662799
_cell_length_c                    9.841644
_cell_angle_alpha                 89.989845
_cell_angle_beta                  89.656014
_cell_angle_gamma                 89.929615
_cell_volume                      2457.94329431

loop_
_atom_site_label
_atom_site_type_symbol
_atom_type_description
_atom_site_fract_x
_atom_site_fract_y
_atom_site_fract_z
_atom_type_partial_charge
C1    C     C_R   0.502100 0.259817 0.499935 0.883644
C2    C     C_R   0.968847 0.244598 0.526771 -0.182936
C3    C     C_R   0.028458 0.239539 0.520137 -0.031224
C4    C     C_R   0.060088 0.352715 0.503741 -0.094739
C5    C     C_R   0.030259 0.467049 0.483668 -0.018744
C6    C     C_R   0.060260 0.580043 0.461448 -0.012196
C7    C     C_R   0.030496 0.692613 0.440380 -0.153608
C8    C     C_R   0.971265 0.694420 0.443827 -0.133979
C9    C     C_R   0.120165 0.358490 0.511812 0.529673
C10   C     C_R   0.119628 0.578162 0.462246 0.515284
C11   C     C_R   0.234807 0.529567 0.606651 -0.163825
C12   C     C_R   0.389282 0.499751 0.500519 0.890117
C13   C     C_R   0.294075 0.541793 0.610043 0.180275
C14   C     C_R   0.327013 0.493548 0.500984 -0.073546
C15   C     C_R   0.299937 0.434507 0.391385 -0.272258
C16   C     C_R   0.240978 0.424269 0.388734 -0.090584
C17   C     C_R   0.208539 0.472418 0.495839 0.286961
C18   C     C_R   0.761471 0.475097 0.367071 -0.000645
C19   C     C_R   0.702017 0.484605 0.372126 -0.245766
C20   C     C_R   0.673035 0.493437 0.497034 -0.068787
C21   C     C_R   0.703713 0.493281 0.618618 -0.191864
C22   C     C_R   0.762740 0.484796 0.615348 -0.101703
C23   C     C_R   0.502266 0.740155 0.499914 0.880498
C24   C     C_R   0.791673 0.475977 0.491063 0.242462
C25   C     C_R   0.516736 0.063995 0.621972 0.151682
C26   C     C_R   0.512499 0.128624 0.499533 -0.107544
C27   C     C_R   0.520406 0.064756 0.376218 -0.213085
C28   C     C_R   0.520585 0.935142 0.376267 -0.211285
C29   C     C_R   0.512876 0.871256 0.499635 -0.108078
C30   C     C_R   0.517134 0.935972 0.622096 0.137784
C31   C     C_3   0.481132 0.928797 0.747777 -0.479702
C32   C     C_3   0.480417 0.070879 0.747123 -0.487538
C33   C     C_R   0.473706 0.405735 0.071699 0.219217
C34   C     C_R   0.610762 0.499285 0.499420 0.882749
C35   C     C_R   0.530264 0.586568 0.071602 -0.120364
C36   C     C_R   0.530243 0.586622 0.927450 -0.122259
C37   C     C_R   0.473807 0.405559 0.928927 0.212572
C38   C     C_3   0.412049 0.372613 0.923938 -0.497983
C39   C     C_3   0.411877 0.373515 0.078022 -0.519327
C40   C     C_R   0.881219 0.583499 0.471421 0.551065
C41   C     C_R   0.879928 0.362648 0.513212 0.576532
C42   C     C_R   0.939599 0.358045 0.510282 -0.032390
C43   C     C_R   0.970214 0.469352 0.486844 -0.008351
C44   C     C_R   0.940773 0.583511 0.467482 -0.010769
H1    H     H_    0.945121 0.158191 0.540515 0.212781
H2    H     H_    0.678079 0.483537 0.278309 0.206778
H3    H     H_    0.682199 0.499853 0.716090 0.172925
H4    H     H_    0.786347 0.486090 0.709644 0.147249
H5    H     H_    0.521887 0.113608 0.279722 0.172929
H6    H     H_    0.522144 0.886279 0.279800 0.169175
H7    H     H_    0.438582 0.886890 0.728954 0.207769
H8    H     H_    0.504808 0.888468 0.835085 0.203253
H9    H     H_    0.437404 0.110816 0.727143 0.202646
H10   H     H_    0.503494 0.112954 0.834309 0.207664
H11   H     H_    0.553790 0.657828 0.125793 0.148784
H12   H     H_    0.553752 0.657905 0.872566 0.148705
H13   H     H_    0.385559 0.448372 0.879302 0.235812
H14   H     H_    0.404784 0.277967 0.880399 0.199135
H15   H     H_    0.385555 0.450629 0.121457 0.221507
H16   H     H_    0.404403 0.279488 0.123508 0.203886
H17   H     H_    0.052867 0.779929 0.422250 0.205372
H18   H     H_    0.949522 0.782924 0.428104 0.202877
H19   H     H_    0.208836 0.567385 0.688439 0.144276
H20   H     H_    0.324404 0.394777 0.308327 0.166121
H21   H     H_    0.220364 0.380066 0.302994 0.155829
N1    N     N_R   0.852400 0.473935 0.492519 -0.347585
N2    N     N_R   0.147916 0.469202 0.488933 -0.355033
N3    N     N_R   0.499610 0.499140 0.142800 -0.108148
N4    N     N_R   0.499610 0.499180 0.857150 -0.105631
O1    O     O_R   0.500010 0.316790 0.614690 -0.617141
O2    O     O_2   0.849494 0.257030 0.534883 -0.534848
O3    O     O_2   0.150891 0.256707 0.547060 -0.515819
O4    O     O_2   0.149185 0.684594 0.437954 -0.537607
O5    O     O_R   0.500000 0.316760 0.385350 -0.623949
O6    O     O_R   0.416160 0.499980 0.614700 -0.591358
O7    O     O_R   0.416150 0.499940 0.385360 -0.622945
O8    O     O_R   0.500000 0.683240 0.614650 -0.618821
O9    O     O_R   0.499990 0.683210 0.385310 -0.624347
O10   O     O_R   0.583850 0.500060 0.614640 -0.620886
O11   O     O_R   0.583840 0.500020 0.385300 -0.621136
O12   O     O_2   0.852114 0.691556 0.453516 -0.540313
Zn1   Zn    Zn3+2 0.500000 0.500020 0.653130 0.958681
Zn2   Zn    Zn3+2 0.500000 0.499980 0.346870 0.951765
C45   C     C_2   0.054542 0.112922 0.523369 0.992765
O13   O     O_2   0.088272 0.080906 0.434563 -0.565427
O14   O     O_R   0.037801 0.027644 0.623863 -0.793641
H22   H     H_    0.057894 0.943771 0.614839 0.348940
N5    N     N_2   0.319750 0.604409 0.721705 -0.305270
H23   H     H_    0.297853 0.592971 0.812157 0.222785
C46   C     C_3   0.333264 0.734537 0.695946 -0.728908
H24   H     H_    0.293701 0.788299 0.673827 0.252838
H25   H     H_    0.363430 0.743104 0.608918 0.233258
H26   H     H_    0.353601 0.775381 0.787354 0.228193
C47   C     C_2   0.790246 0.464126 0.231919 0.945769
O15   O     O_2   0.840517 0.434077 0.223103 -0.614874
O16   O     O_R   0.759286 0.486867 0.113242 -0.812715
H27   H     H_    0.783204 0.476051 0.027806 0.350501

loop_
_geom_bond_atom_site_label_1
_geom_bond_atom_site_label_2
_ccdc_geom_bond_type
C22   H4    S    
C37   N4    A    
C41   C42   A    
C19   C20   A    
C9    O3    S    
O5    Zn2   S    
C19   H2    S    
C7    C8    A    
C10   N2    A    
C26   C27   A    
C29   C30   A    
C18   C24   A    
C1    O5    A    
C23   C29   S    
C28   C29   A    
C45   O14   S    
C11   H19   S    
C5    C6    A    
C10   O4    S    
C15   C16   A    
C35   N3    A    
C18   C19   A    
C7    H17   S    
N4    Zn1   S    
C34   O11   A    
C38   H14   S    
C28   H6    S    
O9    Zn2   S    
C35   C36   A    
C16   C17   A    
C15   H20   S    
C31   H8    S    
C24   N1    S    
C41   O2    S    
C20   C34   S    
C25   C32   S    
C5    C43   A    
C40   N1    A    
C21   C22   A    
O11   Zn2   S    
O7    Zn2   S    
C32   H10   S    
C2    H1    S    
C17   N2    S    
C35   H11   S    
C45   O13   D    
C31   H7    S    
O14   H22   S    
C25   C26   A    
C33   C37   A    
C43   C44   A    
C9    N2    A    
C37   C38   S    
C36   H12   S    
C34   O10   A    
C38   H13   S    
C46   H25   S    
C31   C32   S    
C30   C31   S    
C39   H15   S    
O16   H27   S    
C20   C21   A    
C33   C39   S    
C23   O8    A    
C47   O16   S    
C6    C7    A    
C12   C14   S    
C12   O7    A    
C1    C26   S    
C18   C47   S    
C22   C24   A    
C42   C43   A    
C3    C4    A    
C32   H9    S    
C3    C45   S    
C36   N4    A    
C46   H26   S    
C25   C30   A    
C11   C17   A    
N3    Zn2   S    
C40   O12   S    
C8    C44   A    
N5    C46   S    
C4    C5    A    
C6    C10   A    
O10   Zn1   S    
O6    Zn1   S    
C41   N1    A    
C1    O1    A    
C2    C3    A    
C11   C13   A    
C46   H24   S    
C38   C39   S    
O8    Zn1   S    
C2    C42   A    
C39   H16   S    
C13   N5    S    
C23   O9    A    
C47   O15   D    
O1    Zn1   S    
C40   C44   A    
N5    H23   S    
C12   O6    A    
C27   C28   A    
C14   C15   A    
C16   H21   S    
C4    C9    A    
C13   C14   A    
C27   H5    S    
C33   N3    A    
C8    H18   S    
C21   H3    S    
