data_mof_unit_3659.cif
_audit_creation_date              2012-12-11T15:31:40-0500
_audit_creation_method            fapswitch 2.2
_symmetry_space_group_name_H-M    P1
_symmetry_Int_Tables_number       1
_space_group_crystal_system       triclinic
_cell_length_a                    13.571738
_cell_length_b                    13.553227
_cell_length_c                    27.728215
_cell_angle_alpha                 90.367884
_cell_angle_beta                  90.246184
_cell_angle_gamma                 119.877456
_cell_volume                      4422.22162259

loop_
_atom_site_label
_atom_site_type_symbol
_atom_type_description
_atom_site_fract_x
_atom_site_fract_y
_atom_site_fract_z
_atom_type_partial_charge
C1    C     C_R   0.619576 0.898133 0.431367 0.546527
C2    C     C_R   0.093041 0.855068 0.270348 -0.102987
C3    C     C_R   0.075393 0.850385 0.219865 0.289472
C4    C     C_R   0.599497 0.218407 0.431230 0.549062
C5    C     C_R   0.234398 0.816994 0.208918 -0.154045
C6    C     C_R   0.252205 0.823738 0.258736 -0.109516
C7    C     C_R   0.181716 0.842583 0.289594 -0.008224
C8    C     C_R   0.145963 0.829349 0.189354 0.047780
C9    C     C_1   0.123219 0.813430 0.138129 -0.000525
C10   C     C_1   0.203783 0.851752 0.340838 -0.040016
C11   C     C_1   0.096008 0.794021 0.096140 0.010060
C12   C     C_R   0.574752 0.279520 0.211052 -0.094199
C13   C     C_1   0.634992 0.865568 0.383854 0.012393
C14   C     C_R   0.689492 0.762340 0.272352 0.275590
C15   C     C_R   0.696755 0.752863 0.221788 -0.115046
C16   C     C_R   0.279331 0.878769 0.430521 0.548557
C17   C     C_R   0.616233 0.875388 0.208029 -0.025563
C18   C     C_R   0.610565 0.887716 0.258338 -0.063731
C19   C     C_R   0.647836 0.831782 0.290287 0.021865
C20   C     C_R   0.660247 0.808199 0.189937 -0.039145
C21   C     C_1   0.674643 0.798382 0.138781 -0.029806
C22   C     C_1   0.642961 0.846548 0.341899 0.017192
C23   C     C_R   0.564055 0.265265 0.261008 -0.085507
C24   C     C_1   0.692726 0.787844 0.097031 0.011379
C25   C     C_R   0.639336 0.276945 0.615349 -0.030762
C26   C     C_R   0.710561 0.251142 0.642577 -0.141568
C27   C     C_R   0.724406 0.273995 0.691441 -0.054618
C28   C     C_R   0.620489 0.900738 0.569027 0.539826
C29   C     C_R   0.669263 0.327154 0.713313 0.024334
C30   C     C_R   0.603648 0.360766 0.685772 0.274271
C31   C     C_R   0.590010 0.335899 0.636245 -0.104653
C32   C     C_R   0.579324 0.297616 0.793401 -0.082159
C33   C     C_R   0.588491 0.318527 0.842783 -0.131775
C34   C     C_R   0.660957 0.313055 0.290780 0.033285
C35   C     C_R   0.794359 0.425944 0.835540 -0.118402
C36   C     C_R   0.784864 0.408561 0.786377 -0.102449
C37   C     C_R   0.677617 0.345057 0.765198 0.071088
C38   C     C_R   0.696178 0.384232 0.863828 0.022414
C39   C     C_R   0.216668 0.861226 0.613900 -0.007511
C40   C     C_R   0.601654 0.222832 0.568402 0.547360
C41   C     C_R   0.229048 0.955215 0.641807 -0.030219
C42   C     C_R   0.206334 0.942245 0.690706 -0.128289
C43   C     C_R   0.163619 0.835942 0.712172 0.011928
C44   C     C_R   0.135870 0.739975 0.683671 -0.124681
C45   C     C_R   0.682505 0.341625 0.190448 0.038483
C46   C     C_R   0.161685 0.751490 0.634760 -0.027460
C47   C     C_R   0.174093 0.754657 0.790804 -0.129046
C48   C     C_R   0.151881 0.739615 0.840012 -0.032948
C49   C     C_R   0.088141 0.879436 0.837275 -0.032433
C50   C     C_R   0.107138 0.889750 0.788087 -0.126845
C51   C     C_R   0.146988 0.825607 0.764403 0.009324
C52   C     C_R   0.277919 0.880983 0.567863 0.537852
C53   C     C_R   0.101306 0.796567 0.863430 -0.011600
C54   C     C_R   0.639319 0.862097 0.615611 0.018553
C55   C     C_R   0.548204 0.768879 0.638126 -0.120188
C56   C     C_1   0.692693 0.364277 0.139450 -0.044099
C57   C     C_R   0.555084 0.748305 0.686654 -0.107768
C58   C     C_R   0.653789 0.819502 0.713246 0.037834
C59   C     C_R   0.748383 0.906625 0.689748 -0.106091
C60   C     C_R   0.741056 0.928168 0.641275 -0.121142
C61   C     C_R   0.711872 0.901528 0.796027 -0.116747
C62   C     C_R   0.724095 0.888668 0.844998 -0.111124
C63   C     C_R   0.616951 0.683508 0.834657 -0.117399
C64   C     C_1   0.630556 0.265121 0.383732 0.004027
C65   C     C_R   0.606451 0.696379 0.785578 -0.112167
C66   C     C_R   0.656835 0.805506 0.765649 0.024815
C67   C     C_1   0.648200 0.292013 0.341898 -0.041650
C68   C     C_R   0.679797 0.779576 0.864287 0.022983
C69   C     C_R   0.049033 0.761004 0.048371 0.545830
C70   C     C_R   0.714563 0.436171 0.049869 0.548084
C71   C     C_R   0.723711 0.770847 0.049545 0.548932
C72   C     C_R   0.045040 0.756849 0.910570 0.534066
C73   C     C_R   0.708792 0.430205 0.912158 0.540656
C74   C     C_R   0.717476 0.764921 0.911743 0.540800
C75   C     C_R   0.768899 0.374924 0.270230 -0.123006
C76   C     C_R   0.779595 0.389702 0.220185 -0.112060
C77   C     C_1   0.578645 0.932922 0.175114 0.210848
C78   C     C_1   0.701636 0.390894 0.097569 -0.001566
C79   C     C_1   0.568051 0.959307 0.277341 0.190512
C80   C     C_1   0.789192 0.234712 0.718713 0.184814
C81   C     C_3   0.443440 0.375692 0.698137 -0.129173
C82   C     C_1   0.267282 0.067392 0.622562 0.215743
C83   C     C_1   0.181927 0.665042 0.865108 0.218634
C84   C     C_1   0.052956 0.954559 0.858614 0.225711
C85   C     C_1   0.131140 0.649110 0.607251 0.218872
C86   C     C_3   0.983645 0.954528 0.215754 -0.119459
C87   C     C_3   0.719084 0.610003 0.289203 -0.114235
C88   C     C_1   0.231580 0.862034 0.382804 0.003034
Cr1   Cr    Cr6+3 0.417720 0.831920 0.499820 1.049475
Cr2   Cr    Cr6+3 0.668190 0.085770 0.500360 1.041268
Cr3   Cr    Cr6+3 0.414060 0.082260 0.499840 1.060569
Cr4   Cr    Cr6+3 0.908000 0.821090 0.979770 1.065096
Cr5   Cr    Cr6+3 0.912420 0.571130 0.979880 1.051727
Cr6   Cr    Cr6+3 0.657970 0.566940 0.980940 1.039425
H1    H     H_    0.844469 0.411717 0.292807 0.116870
H2    H     H_    0.211413 0.709873 0.772873 0.115587
H3    H     H_    0.225884 0.016831 0.712350 0.102145
H4    H     H_    0.087718 0.946441 0.767993 0.112964
H5    H     H_    0.096017 0.656266 0.699797 0.114560
H6    H     H_    0.468606 0.716219 0.619222 0.139467
H7    H     H_    0.499011 0.243151 0.188571 0.121738
H8    H     H_    0.748174 0.986575 0.781717 0.146574
H9    H     H_    0.772556 0.963769 0.867334 0.150279
H10   H     H_    0.480951 0.680506 0.703849 0.106843
H11   H     H_    0.563961 0.620936 0.762966 0.145148
H12   H     H_    0.733472 0.704716 0.206699 0.143216
H13   H     H_    0.583311 0.598275 0.848593 0.145587
H14   H     H_    0.826850 0.960338 0.709211 0.125517
H15   H     H_    0.812843 0.999960 0.624669 0.138262
H16   H     H_    0.480159 0.216366 0.276421 0.128656
H17   H     H_    0.037256 0.866717 0.294584 0.127675
H18   H     H_    0.288632 0.800434 0.185675 0.135715
H19   H     H_    0.320444 0.813046 0.273283 0.142733
H20   H     H_    0.396936 0.281083 0.700660 0.119945
H21   H     H_    0.428972 0.402961 0.662393 0.139212
H22   H     H_    0.407063 0.407962 0.725636 0.134471
H23   H     H_    0.748853 0.205032 0.626655 0.155987
H24   H     H_    0.070087 0.031264 0.215791 0.113453
H25   H     H_    0.944758 0.941284 0.251994 0.134436
H26   H     H_    0.929961 0.971267 0.190611 0.155714
H27   H     H_    0.790223 0.625868 0.264863 0.138217
H28   H     H_    0.635224 0.554047 0.271536 0.116421
H29   H     H_    0.725064 0.563496 0.320828 0.150981
H30   H     H_    0.496071 0.246917 0.777015 0.117985
H31   H     H_    0.512197 0.287027 0.864147 0.128811
H32   H     H_    0.861038 0.446273 0.764672 0.121101
H33   H     H_    0.878563 0.479126 0.850733 0.149052
H34   H     H_    0.863329 0.439411 0.204742 0.120293
H35   H     H_    0.538909 0.359301 0.614267 0.142408
N1    N     N_1   0.548597 0.978903 0.148900 -0.297171
N2    N     N_1   0.534176 0.016290 0.292635 -0.306932
N3    N     N_1   0.841188 0.203414 0.740450 -0.324370
N4    N     N_1   0.296982 0.157207 0.607434 -0.305565
N5    N     N_1   0.206172 0.605349 0.885102 -0.281513
N6    N     N_1   0.025433 0.015436 0.875367 -0.279584
N7    N     N_1   0.106483 0.566980 0.585311 -0.287315
O1    O     O_R   0.302900 0.805360 0.446400 -0.501029
O2    O     O_R   0.638120 0.455970 0.034270 -0.504070
O3    O     O_R   0.667540 0.672320 0.030160 -0.494886
O4    O     O_R   0.522090 0.841370 0.450730 -0.493930
O5    O     O_R   0.814460 0.840990 0.926980 -0.493828
O6    O     O_R   0.001710 0.811400 0.930110 -0.489067
O7    O     O_R   0.023410 0.659800 0.926210 -0.502205
O8    O     O_R   0.806940 0.473170 0.931090 -0.504122
O9    O     O_R   0.633420 0.451310 0.927930 -0.515658
O10   O     O_R   0.663190 0.668000 0.931580 -0.503694
O11   O     O_3   0.826130 0.653050 0.980200 -0.260001
O12   O     O_R   0.657980 0.180990 0.549630 -0.504775
O13   O     O_R   0.693280 0.995650 0.447220 -0.500902
O14   O     O_R   0.657260 0.178740 0.451050 -0.490535
O15   O     O_R   0.502640 0.195380 0.446850 -0.504895
O16   O     O_R   0.319630 0.976590 0.450330 -0.493228
O17   O     O_R   0.303680 0.807790 0.552740 -0.500781
O18   O     O_R   0.522820 0.843620 0.549310 -0.503482
O19   O     O_R   0.694060 0.998080 0.553560 -0.519299
O20   O     O_3   0.560838 0.423930 0.707725 -0.573569
O21   O     O_3   0.984365 0.855831 0.199709 -0.574397
O22   O     O_3   0.730066 0.713866 0.305606 -0.564967
O23   O     O_R   0.503420 0.197810 0.553190 -0.493161
O24   O     O_R   0.320350 0.978840 0.548910 -0.487213
O25   O     O_3   0.499990 0.999990 0.500010 -0.257037
O26   O     O_R   0.819150 0.845650 0.033320 -0.498954
O27   O     O_R   0.006060 0.815720 0.028680 -0.489321
O28   O     O_R   0.028100 0.664460 0.032550 -0.503279
O29   O     O_R   0.811290 0.477490 0.029660 -0.492037

loop_
_geom_bond_atom_site_label_1
_geom_bond_atom_site_label_2
_ccdc_geom_bond_type
C25   C31   A    
C72   O7    A    
C87   H29   S    
C63   C65   A    
C84   N6    T    
Cr6   O10   S    
C80   N3    T    
C71   O26   A    
C70   C78   S    
C41   C42   A    
C32   H30   S    
C40   O23   A    
C16   O1    A    
C26   H23   S    
Cr2   O14   S    
C57   C58   A    
C75   H1    S    
C39   C41   A    
C54   C60   A    
C72   O6    A    
C12   C23   A    
C10   C88   T    
C26   C27   A    
C81   O20   S    
C14   O22   S    
C45   C76   A    
C15   H12   S    
C36   C37   A    
C25   C40   S    
C30   C31   A    
C44   H5    S    
C49   C53   A    
C27   C29   A    
C68   C74   S    
C17   C20   A    
C56   C78   T    
C18   C19   A    
C7    C10   S    
Cr1   O25   S    
C57   H10   S    
C83   N5    T    
Cr2   O12   S    
C60   H15   S    
C54   C55   A    
C61   C66   A    
C58   C66   S    
C2    C7    A    
C45   C56   S    
Cr5   O11   S    
C8    C9    S    
C81   H20   S    
C28   O19   A    
C47   H2    S    
C69   O28   A    
C1    O13   A    
C86   H25   S    
Cr4   O6    S    
Cr3   O23   S    
Cr5   O7    S    
C34   C75   A    
C46   C85   S    
C23   C34   A    
Cr6   O9    S    
C30   O20   S    
C39   C52   S    
Cr5   O29   S    
C59   C60   A    
Cr4   O11   S    
C28   O18   A    
Cr6   O3    S    
C15   C20   A    
Cr2   O13   S    
C65   H11   S    
C44   C46   A    
C50   C51   A    
C48   C53   A    
C2    H17   S    
C50   H4    S    
C40   O12   A    
Cr2   O25   S    
C64   C67   T    
C1    O4    A    
C19   C22   S    
C86   H24   S    
C3    C8    A    
C70   O29   A    
C87   H27   S    
C28   C54   S    
C18   C79   S    
C47   C51   A    
Cr5   O28   S    
C25   C26   A    
C73   O9    A    
C35   C36   A    
C55   H6    S    
C43   C44   A    
C6    H19   S    
C29   C30   A    
C5    C8    A    
C17   C77   S    
Cr1   O17   S    
C47   C48   A    
Cr1   O4    S    
C79   N2    T    
C81   H21   S    
C33   H31   S    
C17   C18   A    
C16   O16   A    
C32   C37   A    
C35   H33   S    
Cr4   O5    S    
C9    C11   T    
Cr3   O24   S    
Cr5   O8    S    
C39   C46   A    
Cr4   O27   S    
C74   O5    A    
C27   C80   S    
Cr1   O1    S    
C55   C57   A    
C76   H34   S    
C49   C50   A    
C42   H3    S    
C1    C13   S    
C42   C43   A    
C63   H13   S    
Cr3   O16   S    
C49   C84   S    
C3    O21   S    
C62   H9    S    
Cr4   O26   S    
Cr6   O11   S    
C4    O15   A    
C63   C68   A    
C75   C76   A    
C14   C15   A    
C14   C19   A    
C74   O10   A    
C36   H32   S    
C69   O27   A    
C12   C45   A    
C34   C67   S    
C87   H28   S    
C71   O3    A    
C11   C69   S    
C70   O2    A    
C6    C7    A    
C5    H18   S    
C4    O14   A    
C4    C64   S    
C59   H14   S    
C87   O22   S    
C62   C68   A    
C32   C33   A    
C82   N4    T    
C61   H8    S    
C52   O17   A    
C12   H7    S    
C31   H35   S    
Cr3   O15   S    
C43   C51   S    
Cr1   O18   S    
C5    C6    A    
Cr6   O2    S    
C41   C82   S    
C81   H22   S    
C13   C22   T    
C2    C3    A    
C77   N1    T    
C61   C62   A    
C86   O21   S    
C58   C59   A    
C85   N7    T    
C20   C21   S    
C65   C66   A    
C21   C24   T    
C29   C37   S    
C16   C88   S    
C48   C83   S    
C35   C38   A    
Cr3   O25   S    
C33   C38   A    
C86   H26   S    
C23   H16   S    
Cr2   O19   S    
C53   C72   S    
C52   O24   A    
C38   C73   S    
C24   C71   S    
C73   O8    A    
