data_mof_unit_4552.cif
_audit_creation_date              2013-03-05T16:49:59-0500
_audit_creation_method            fapswitch 2.2
_symmetry_space_group_name_H-M    P1
_symmetry_Int_Tables_number       1
_space_group_crystal_system       triclinic
_cell_length_a                    27.811149
_cell_length_b                    10.955081
_cell_length_c                    26.495723
_cell_angle_alpha                 91.726196
_cell_angle_beta                  90.106518
_cell_angle_gamma                 89.27959
_cell_volume                      8068.23170288

loop_
_atom_site_label
_atom_site_type_symbol
_atom_site_description
_atom_site_fract_x
_atom_site_fract_y
_atom_site_fract_z
_atom_type_partial_charge
O1    O     O_R   0.500000 0.319660 0.542350 -0.550274
O2    O     O_R   0.500000 0.680340 0.457650 -0.528076
O3    O     O_R   0.500000 0.319630 0.457650 -0.579975
O4    O     O_R   0.500000 0.680370 0.542350 -0.585795
C1    C     C_R   0.496606 0.262246 0.499397 0.833503
C2    C     C_R   0.498522 0.738414 0.500498 0.839203
O5    O     O_R   0.430260 0.500030 0.542340 -0.573510
O6    O     O_R   0.569740 0.499970 0.457660 -0.604596
O7    O     O_R   0.430270 0.500010 0.457650 -0.618764
O8    O     O_R   0.569730 0.499990 0.542350 -0.563955
C3    C     C_R   0.407208 0.500151 0.499937 0.854268
C4    C     C_R   0.592655 0.501186 0.499977 0.874955
Cu1   Cu    Cu3+1 0.500000 0.500020 0.550150 0.954045
Cu2   Cu    Cu3+1 0.500000 0.499980 0.449850 0.946297
O9    O     O_2   0.464667 0.685774 0.789923 -0.557968
O10   O     O_2   0.530812 0.297604 0.212262 -0.546596
C5    C     C_R   0.446545 0.671872 0.056568 -0.275982
C6    C     C_R   0.543089 0.298665 0.943355 -0.247904
C7    C     C_R   0.177378 0.380404 0.494892 0.618244
C8    C     C_R   0.822549 0.624925 0.489910 0.578623
O11   O     O_2   0.202504 0.275137 0.499328 -0.487744
O12   O     O_2   0.797703 0.731290 0.493505 -0.530921
N1    N     N_R   0.201784 0.486806 0.489704 -0.418497
N2    N     N_R   0.798016 0.517304 0.489357 -0.421166
C9    C     C_R   0.178264 0.594967 0.482489 0.577715
C10   C     C_R   0.821609 0.407196 0.485828 0.624007
C11   C     C_R   0.275118 0.527365 0.538514 0.329042
C12   C     C_R   0.724468 0.470771 0.536300 0.315184
C13   C     C_R   0.325838 0.541707 0.540080 0.311140
C14   C     C_R   0.674057 0.458182 0.537808 0.318921
C15   C     C_R   0.331285 0.448795 0.455552 -0.414762
C16   C     C_R   0.667862 0.559434 0.457661 -0.429663
C17   C     C_R   0.281086 0.449321 0.451458 0.455572
C18   C     C_R   0.718151 0.566746 0.454630 0.448595
C19   C     C_R   0.253303 0.486187 0.493396 0.144458
C20   C     C_R   0.746398 0.519233 0.493583 0.150817
C21   C     C_R   0.101750 0.491479 0.485953 -0.114696
C22   C     C_R   0.898156 0.511264 0.485723 -0.118111
C23   C     C_R   0.126468 0.380800 0.495609 -0.128874
C24   C     C_R   0.873326 0.624693 0.487525 -0.137517
C25   C     C_R   0.100228 0.275339 0.507154 0.494120
C26   C     C_R   0.899862 0.733770 0.487907 0.489339
C27   C     C_R   0.128122 0.598531 0.478557 -0.004706
C28   C     C_R   0.871915 0.402003 0.485048 -0.019512
C29   C     C_R   0.354021 0.496186 0.499085 -0.223628
C30   C     C_R   0.645578 0.507130 0.499139 -0.220560
C31   C     C_R   0.973567 0.392259 0.487445 0.088075
C32   C     C_R   0.026460 0.609245 0.476858 0.092887
C33   C     C_R   0.975475 0.615586 0.480706 -0.021553
C34   C     C_R   0.024444 0.388898 0.491858 -0.015977
C35   C     C_R   0.949212 0.506512 0.484720 0.069361
C36   C     C_R   0.050761 0.496317 0.484605 0.072778
C37   C     C_R   0.946136 0.284565 0.484897 -0.214174
C38   C     C_R   0.054249 0.712422 0.466247 -0.218427
C39   C     C_R   0.896289 0.289632 0.483417 -0.155752
C40   C     C_R   0.104064 0.707226 0.467626 -0.175889
O13   O     O_2   0.796315 0.302782 0.483214 -0.535869
O14   O     O_2   0.203442 0.699016 0.479349 -0.568640
C41   C     C_R   0.049482 0.282192 0.505682 -0.332890
C42   C     C_R   0.949868 0.727753 0.481736 -0.301187
C43   C     C_R   0.430616 0.188905 0.336005 0.404674
C44   C     C_R   0.556961 0.839162 0.664487 0.403782
C45   C     C_R   0.438805 0.165656 0.387080 -0.211166
C46   C     C_R   0.548747 0.877056 0.615195 -0.156598
C47   C     C_R   0.483106 0.116613 0.402935 0.062691
C48   C     C_R   0.501750 0.888073 0.596485 0.111927
C49   C     C_R   0.520579 0.099484 0.367970 -0.186362
C50   C     C_R   0.462979 0.858326 0.627302 -0.275335
C51   C     C_R   0.512844 0.121403 0.316864 0.440104
C52   C     C_R   0.470476 0.831945 0.678065 0.467471
C53   C     C_R   0.467850 0.165175 0.300970 -0.282753
C54   C     C_R   0.517490 0.820537 0.696270 -0.268985
C55   C     C_R   0.486222 0.931628 0.454145 0.417123
C56   C     C_R   0.487816 0.069119 0.545351 0.411381
C57   C     C_R   0.493212 0.872511 0.500703 -0.266704
C58   C     C_R   0.490005 0.128948 0.498815 -0.259156
C59   C     C_R   0.493169 0.942111 0.546467 -0.130906
C60   C     C_R   0.486713 0.059786 0.452991 -0.117368
C61   C     C_R   0.480363 0.595355 0.188629 0.561788
C62   C     C_R   0.515898 0.387730 0.810964 0.561387
O15   O     O_2   0.467991 0.698319 0.214951 -0.522235
O16   O     O_2   0.530375 0.287879 0.783824 -0.518173
N3    N     N_R   0.499021 0.497902 0.213844 -0.457919
N4    N     N_R   0.498036 0.487218 0.786345 -0.453711
C63   C     C_R   0.514817 0.395627 0.187317 0.540316
C64   C     C_R   0.480942 0.586783 0.813775 0.542238
C65   C     C_R   0.541332 0.466801 0.295611 -0.208255
C66   C     C_R   0.457494 0.525566 0.704150 -0.176184
C67   C     C_R   0.540410 0.465272 0.348427 0.051920
C68   C     C_R   0.459557 0.534297 0.651579 0.006718
C69   C     C_R   0.459659 0.535341 0.349412 0.023297
C70   C     C_R   0.539689 0.460284 0.650797 0.038577
C71   C     C_R   0.458902 0.536832 0.296702 -0.294809
C72   C     C_R   0.540012 0.456778 0.703643 -0.263463
C73   C     C_R   0.499932 0.501197 0.268819 0.329499
C74   C     C_R   0.498391 0.488889 0.731294 0.316229
C75   C     C_R   0.495171 0.489819 0.107662 -0.119670
C76   C     C_R   0.498101 0.487199 0.892771 -0.115600
C77   C     C_R   0.475098 0.590260 0.135330 -0.087942
C78   C     C_R   0.518227 0.387832 0.864540 -0.100037
C79   C     C_R   0.447869 0.679073 0.109860 0.465511
C80   C     C_R   0.541900 0.294240 0.890495 0.426730
C81   C     C_R   0.513991 0.390803 0.134022 -0.046648
C82   C     C_R   0.480466 0.588170 0.866925 -0.046657
N5    N     N_R   0.500000 0.499970 0.374520 -0.159950
N6    N     N_R   0.500000 0.500030 0.625480 -0.189008
C83   C     C_R   0.477813 0.590438 0.974312 -0.002804
C84   C     C_R   0.514120 0.383190 0.026482 0.003473
C85   C     C_R   0.517032 0.387062 0.972488 0.022318
C86   C     C_R   0.474317 0.585791 0.028063 0.025491
C87   C     C_R   0.497016 0.487528 0.946695 -0.003324
C88   C     C_R   0.495166 0.486839 0.053896 -0.003160
C89   C     C_R   0.465307 0.697357 0.947361 0.418187
C90   C     C_R   0.526817 0.276734 0.053842 0.426488
C91   C     C_R   0.465618 0.692699 0.894321 -0.260178
C92   C     C_R   0.528423 0.284881 0.107162 -0.280220
H1    H     H_    0.428206 0.566566 0.631796 0.191359
H2    H     H_    0.572260 0.435962 0.368282 0.138012
H3    H     H_    0.962386 0.194602 0.482273 0.135281
H4    H     H_    0.038662 0.798924 0.456286 0.138906
H5    H     H_    0.029294 0.206337 0.518507 0.141539
H6    H     H_    0.967809 0.813703 0.479151 0.135769
H7    H     H_    0.461298 0.174584 0.261011 0.173049
H8    H     H_    0.523328 0.799691 0.735358 0.190727
O17   O     O_3   0.383705 0.207792 0.320068 -0.601361
C93   C     C_3   0.379439 0.316080 0.292710 0.062610
H9    H     H_    0.411078 0.333946 0.268601 0.142748
H10   H     H_    0.374232 0.394260 0.319897 0.133215
C94   C     C_3   0.335886 0.306766 0.257732 -0.331784
H11   H     H_    0.342103 0.231604 0.229271 0.220680
H12   H     H_    0.303476 0.284593 0.279871 0.228185
C95   C     C_3   0.327201 0.425869 0.230476 -0.938234
H13   H     H_    0.320975 0.502422 0.258202 0.254365
H14   H     H_    0.295010 0.417018 0.205861 0.261972
H15   H     H_    0.358713 0.446875 0.206661 0.267046
O18   O     O_3   0.603644 0.832667 0.682407 -0.605338
C96   C     C_3   0.614445 0.711147 0.695252 0.050849
H16   H     H_    0.610163 0.648515 0.661625 0.155352
H17   H     H_    0.590997 0.681204 0.726425 0.143913
C97   C     C_3   0.666456 0.702973 0.713294 -0.323357
H18   H     H_    0.690722 0.728208 0.682141 0.216017
H19   H     H_    0.671874 0.768356 0.745673 0.230381
C98   C     C_3   0.679005 0.574159 0.729878 -0.940071
H20   H     H_    0.656311 0.549703 0.762452 0.264738
H21   H     H_    0.717340 0.569778 0.741531 0.260464
H22   H     H_    0.673125 0.506779 0.698343 0.259304
H23   H     H_    0.409148 0.173992 0.413487 0.152412
H24   H     H_    0.578948 0.897690 0.591511 0.145036
H25   H     H_    0.554628 0.060490 0.379786 0.160663
H26   H     H_    0.426797 0.861001 0.612849 0.132474
O19   O     O_3   0.549298 0.097113 0.282484 -0.574594
C99   C     C_3   0.539116 0.987173 0.255465 0.109637
H27   H     H_    0.504823 0.995151 0.233928 0.153491
H28   H     H_    0.536591 0.909994 0.281820 0.153833
C100  C     C_3   0.579613 0.959213 0.217808 -0.334519
H29   H     H_    0.582346 0.035537 0.191277 0.232115
H30   H     H_    0.614264 0.951048 0.238489 0.222968
C101  C     C_3   0.570679 0.840619 0.187682 -0.902895
H31   H     H_    0.567821 0.762969 0.213480 0.275092
H32   H     H_    0.601081 0.821632 0.161416 0.246894
H33   H     H_    0.537094 0.848273 0.165194 0.268040
O20   O     O_3   0.432180 0.810578 0.709708 -0.578044
C102  C     C_3   0.407613 0.921393 0.722132 0.073393
H34   H     H_    0.372301 0.897460 0.738398 0.165155
H35   H     H_    0.399276 0.975502 0.688297 0.096980
C103  C     C_3   0.435241 0.997798 0.761992 -0.340887
H36   H     H_    0.440858 0.943167 0.796214 0.234512
H37   H     H_    0.470971 0.022884 0.747074 0.229265
C104  C     C_3   0.407905 0.115042 0.776742 -0.909733
H38   H     H_    0.402601 0.172286 0.743240 0.253930
H39   H     H_    0.428854 0.167873 0.805456 0.265553
H40   H     H_    0.372355 0.093379 0.793017 0.249852
O21   O     O_3   0.486449 0.863106 0.408967 -0.591644
C105  C     C_3   0.440269 0.854410 0.386019 0.097887
H41   H     H_    0.443581 0.785475 0.354685 0.178721
H42   H     H_    0.429935 0.939242 0.367315 0.149705
C106  C     C_3   0.399636 0.815200 0.421137 -0.428445
H43   H     H_    0.410466 0.732012 0.441184 0.234780
H44   H     H_    0.391870 0.889654 0.449381 0.212023
C107  C     C_3   0.353696 0.788756 0.391359 -0.879468
H45   H     H_    0.341469 0.871472 0.371505 0.277131
H46   H     H_    0.324883 0.761527 0.417451 0.259768
H47   H     H_    0.359890 0.712954 0.363262 0.236763
O22   O     O_3   0.485321 0.135704 0.590738 -0.576654
C108  C     C_3   0.437593 0.136500 0.609550 0.043537
H48   H     H_    0.439890 0.136906 0.651378 0.172674
H49   H     H_    0.416595 0.055808 0.597167 0.120137
C109  C     C_3   0.409784 0.249958 0.593952 -0.290377
H50   H     H_    0.430103 0.331390 0.606164 0.266761
H51   H     H_    0.405363 0.248768 0.552257 0.198738
C110  C     C_3   0.360332 0.257479 0.618395 -0.966838
H52   H     H_    0.338635 0.176709 0.607480 0.266148
H53   H     H_    0.341431 0.339761 0.605074 0.274193
H54   H     H_    0.363670 0.264387 0.660159 0.250272
H55   H     H_    0.456657 0.774261 0.874228 0.178717
H56   H     H_    0.538607 0.206659 0.128606 0.183615
O23   O     O_3   0.463166 0.810504 0.972723 -0.628051
C111  C     C_3   0.423293 0.883297 0.957885 0.018077
H57   H     H_    0.402347 0.908613 0.992286 0.157721
H58   H     H_    0.397559 0.836031 0.931779 0.127109
C112  C     C_3   0.441418 0.000499 0.934894 -0.327056
H59   H     H_    0.466083 0.047484 0.961962 0.263968
H60   H     H_    0.461665 0.977110 0.899901 0.195165
C113  C     C_3   0.400171 0.087320 0.922191 -0.919922
H61   H     H_    0.375628 0.043256 0.894199 0.257050
H62   H     H_    0.414883 0.171125 0.905769 0.256404
H63   H     H_    0.379667 0.113805 0.956836 0.257479
O24   O     O_3   0.528349 0.163739 0.027783 -0.647111
C114  C     C_3   0.558729 0.073249 0.048645 0.030961
H64   H     H_    0.556047 0.990841 0.023353 0.188698
H65   H     H_    0.545565 0.042753 0.085633 0.142570
C115  C     C_3   0.611903 0.110340 0.050119 -0.386488
H66   H     H_    0.624080 0.130281 0.011366 0.219676
H67   H     H_    0.616787 0.193621 0.074397 0.220953
C116  C     C_3   0.643508 0.008453 0.070702 -0.890088
H68   H     H_    0.633305 0.990239 0.110213 0.256810
H69   H     H_    0.681735 0.036427 0.070209 0.259152
H70   H     H_    0.639730 0.923508 0.047137 0.256620
H71   H     H_    0.352642 0.411325 0.424494 0.195270
H72   H     H_    0.645967 0.592713 0.427072 0.186014
H73   H     H_    0.427656 0.562368 0.370011 0.132088
H74   H     H_    0.571532 0.431460 0.630304 0.180240
H75   H     H_    0.425983 0.562968 0.277779 0.164170
H76   H     H_    0.572703 0.429740 0.722762 0.173121
O25   O     O_3   0.418927 0.758627 0.139414 -0.575112
C117  C     C_3   0.400351 0.863536 0.115951 0.083928
H77   H     H_    0.375391 0.908319 0.143699 0.178981
H78   H     H_    0.377218 0.841207 0.082907 0.100885
C118  C     C_3   0.439661 0.955755 0.104413 -0.384623
H79   H     H_    0.462804 0.970030 0.138270 0.227103
H80   H     H_    0.462580 0.920632 0.072813 0.237718
C119  C     C_3   0.417463 0.078283 0.090267 -0.883005
H81   H     H_    0.392962 0.066656 0.057409 0.246535
H82   H     H_    0.446158 0.142091 0.080178 0.286838
H83   H     H_    0.397017 0.119215 0.122682 0.248273
O26   O     O_3   0.570468 0.209071 0.864577 -0.571660
C120  C     C_3   0.549300 0.093002 0.867052 0.074243
H84   H     H_    0.512343 0.095322 0.850723 0.151949
H85   H     H_    0.547844 0.062761 0.906788 0.136931
C121  C     C_3   0.579588 0.000560 0.836193 -0.296617
H86   H     H_    0.580032 0.027139 0.796024 0.254469
H87   H     H_    0.617142 0.000544 0.850630 0.223276
C122  C     C_3   0.559540 0.872077 0.839344 -0.933648
H88   H     H_    0.559954 0.842130 0.879032 0.268298
H89   H     H_    0.581819 0.807259 0.816049 0.262153
H90   H     H_    0.522111 0.870350 0.824906 0.266618
O27   O     O_3   0.258211 0.402634 0.408646 -0.573918
C123  C     C_3   0.268217 0.473172 0.366050 0.051342
H91   H     H_    0.258284 0.417371 0.332102 0.181238
H92   H     H_    0.306970 0.494697 0.362149 0.120526
C124  C     C_3   0.237817 0.590810 0.366216 -0.352355
H93   H     H_    0.199339 0.568579 0.371775 0.234858
H94   H     H_    0.249636 0.652439 0.397659 0.244519
C125  C     C_3   0.243186 0.657442 0.316839 -0.902908
H95   H     H_    0.281330 0.681980 0.310839 0.255905
H96   H     H_    0.221090 0.742587 0.318391 0.269449
H97   H     H_    0.230741 0.599023 0.284524 0.257413
O28   O     O_3   0.740977 0.609708 0.412195 -0.583550
C126  C     C_3   0.722414 0.725507 0.399272 0.091405
H98   H     H_    0.713707 0.783916 0.433402 0.162370
H99   H     H_    0.689556 0.713792 0.375727 0.130725
C127  C     C_3   0.760023 0.790977 0.368407 -0.298433
H100  H     H_    0.793534 0.801273 0.390995 0.263141
H101  H     H_    0.768567 0.735426 0.333704 0.218035
C128  C     C_3   0.742056 0.917052 0.353432 -0.894477
H102  H     H_    0.708921 0.908897 0.330150 0.250357
H103  H     H_    0.770095 0.961952 0.330983 0.263759
H104  H     H_    0.734272 0.975066 0.387630 0.270698
O29   O     O_3   0.125825 0.174655 0.525228 -0.571105
C129  C     C_3   0.101819 0.061502 0.522246 0.094139
H105  H     H_    0.129295 0.989896 0.512967 0.184477
H106  H     H_    0.075107 0.054570 0.490976 0.108541
C130  C     C_3   0.080427 0.032953 0.573868 -0.366964
H107  H     H_    0.110033 0.024884 0.601866 0.233245
H108  H     H_    0.056194 0.108259 0.587336 0.214726
C131  C     C_3   0.052369 0.914242 0.571779 -0.916983
H109  H     H_    0.022930 0.919554 0.543549 0.241777
H110  H     H_    0.036321 0.898413 0.609321 0.258309
H111  H     H_    0.076712 0.836191 0.561806 0.277407
O30   O     O_3   0.876481 0.846602 0.489298 -0.570536
C132  C     C_3   0.888776 0.915140 0.533647 0.078449
H112  H     H_    0.878003 0.011504 0.527579 0.170520
H113  H     H_    0.928116 0.916170 0.541263 0.108691
C133  C     C_3   0.861640 0.870843 0.579886 -0.333883
H114  H     H_    0.822321 0.873972 0.572480 0.259850
H115  H     H_    0.872490 0.775147 0.587375 0.202274
C134  C     C_3   0.872467 0.950315 0.626702 -0.919300
H116  H     H_    0.911503 0.946551 0.635589 0.255906
H117  H     H_    0.852191 0.916515 0.659415 0.260005
H118  H     H_    0.861417 0.046533 0.620545 0.265392
H119  H     H_    0.421171 0.727336 0.037064 0.166255
H120  H     H_    0.567517 0.235473 0.960581 0.192729
H121  H     H_    0.424249 0.548839 0.723523 0.180520
H122  H     H_    0.574087 0.440855 0.275836 0.168707
O31   O     O_3   0.652717 0.397748 0.576973 -0.622734
C135  C     C_3   0.661327 0.270156 0.571186 0.082354
H123  H     H_    0.664848 0.232555 0.609510 0.165499
H124  H     H_    0.695488 0.245648 0.551056 0.190222
C136  C     C_3   0.618969 0.207899 0.544338 -0.350788
H125  H     H_    0.586652 0.215600 0.568868 0.253850
H126  H     H_    0.611018 0.253163 0.508302 0.208698
C137  C     C_3   0.630119 0.073456 0.532425 -0.915447
H127  H     H_    0.659811 0.064587 0.504516 0.264769
H128  H     H_    0.597777 0.028758 0.516080 0.253972
H129  H     H_    0.640949 0.026531 0.567293 0.262334
O32   O     O_3   0.348718 0.598109 0.580957 -0.626677
C138  C     C_3   0.334345 0.722322 0.587022 0.069259
H130  H     H_    0.351788 0.758607 0.621988 0.154344
H131  H     H_    0.295231 0.733821 0.593668 0.200096
C139  C     C_3   0.350007 0.799904 0.542749 -0.397611
H132  H     H_    0.389710 0.794864 0.538709 0.207738
H133  H     H_    0.333690 0.764629 0.507089 0.229520
C140  C     C_3   0.333669 0.932416 0.550926 -0.894424
H134  H     H_    0.294089 0.940150 0.545978 0.288243
H135  H     H_    0.351425 0.991026 0.523223 0.254971
H136  H     H_    0.342919 0.965271 0.589662 0.231072
O33   O     O_3   0.752977 0.422200 0.573779 -0.594232
C141  C     C_3   0.752665 0.500156 0.617340 0.095020
H137  H     H_    0.749477 0.441511 0.650616 0.174787
H138  H     H_    0.721866 0.566578 0.619236 0.137163
C142  C     C_3   0.800143 0.568967 0.620949 -0.371487
H139  H     H_    0.830725 0.503647 0.615314 0.234064
H140  H     H_    0.801214 0.636831 0.590816 0.219400
C143  C     C_3   0.805871 0.635717 0.671916 -0.922643
H141  H     H_    0.777265 0.706459 0.677136 0.258993
H142  H     H_    0.841311 0.681204 0.673484 0.260624
H143  H     H_    0.804191 0.570318 0.703074 0.259078
O34   O     O_3   0.245107 0.566158 0.577842 -0.602330
C144  C     C_3   0.252405 0.496564 0.621400 0.013745
H144  H     H_    0.233712 0.545798 0.653098 0.172930
H145  H     H_    0.290709 0.490820 0.632816 0.170257
C145  C     C_3   0.230559 0.369036 0.615222 -0.324101
H146  H     H_    0.192434 0.377764 0.603082 0.244327
H147  H     H_    0.250704 0.314893 0.585939 0.240782
C146  C     C_3   0.232510 0.300863 0.664564 -0.914614
H148  H     H_    0.270223 0.291655 0.677867 0.257791
H149  H     H_    0.217479 0.208145 0.658476 0.267881
H150  H     H_    0.210922 0.350387 0.694064 0.253835
H151  H     H_    0.876866 0.204573 0.481413 0.179644
H152  H     H_    0.123711 0.789487 0.460140 0.176261

loop_
_geom_bond_atom_site_label_1
_geom_bond_atom_site_label_2
_geom_bond_distance
_ccdc_geom_bond_type
C103  H37   1.110889 S    
C45   C47   1.406470 A    
C80   O26   1.384974 S    
C93   H9    1.111096 S    
C49   H25   1.083499 S    
C112  H60   1.107404 S    
C2    C57   1.474438 S    
C23   C25   1.415714 A    
C107  H45   1.110762 S    
C132  C133  1.534412 S    
C33   C42   1.412057 A    
C109  C110  1.521505 S    
C34   C41   1.410644 A    
C61   C77   1.418982 A    
C133  H114  1.110901 S    
C102  H35   1.112017 S    
N4    C64   1.372751 A    
C8    C24   1.413673 A    
C98   H20   1.111414 S    
C130  C131  1.524553 S    
C84   C85   1.434963 A    
C79   O25   1.401495 S    
C43   C45   1.402218 A    
C83   C89   1.429000 A    
C125  H96   1.110285 S    
C143  H141  1.109571 S    
C33   C35   1.415111 A    
C34   C36   1.411830 A    
C134  H117  1.110283 S    
C63   C81   1.411652 A    
C31   C37   1.412842 A    
C43   C53   1.408510 A    
C54   H8    1.078812 S    
C100  C101  1.526995 S    
C55   C57   1.422317 A    
C52   O20   1.383278 S    
C107  H46   1.108830 S    
C14   O31   1.385978 S    
C96   C97   1.524980 S    
C139  H133  1.108517 S    
C110  H52   1.108173 S    
C68   H1    1.077806 S    
C97   H18   1.110707 S    
C146  H149  1.110425 S    
C75   C88   1.423967 A    
C5    H119  1.068168 S    
C93   C94   1.526348 S    
C11   C19   1.404399 A    
C6    H120  1.074766 S    
C11   O34   1.389500 S    
C13   C29   1.415475 A    
C16   C18   1.404479 A    
C99   C100  1.528040 S    
C7    N1    1.366830 A    
C116  H68   1.109690 S    
C118  H79   1.111464 S    
C70   C72   1.401877 A    
O32   C138  1.417987 S    
C71   H75   1.082540 S    
O30   C132  1.418899 S    
C72   C74   1.406333 A    
C105  C106  1.538673 S    
C75   C81   1.402987 A    
C70   N6    1.364069 A    
C135  H123  1.110924 S    
C77   C79   1.412318 A    
C65   C67   1.400302 A    
C101  H31   1.110900 S    
C83   C86   1.430132 A    
C129  H106  1.113315 S    
C48   C59   1.485349 S    
C141  C142  1.530064 S    
C133  C134  1.525589 S    
Cu1   N6    1.995920 S    
C126  H99   1.112076 S    
C1    C58   1.473691 S    
C81   C92   1.397742 A    
C110  H54   1.110671 S    
C28   C39   1.397395 A    
C143  H143  1.110694 S    
C40   H152  1.083310 S    
O2    Cu2   1.980436 S    
C10   O13   1.350314 S    
C146  H148  1.110214 S    
C32   C36   1.422381 A    
C115  H66   1.110592 S    
C118  H80   1.109852 S    
C142  H139  1.111972 S    
C100  H29   1.111869 S    
C111  H58   1.115664 S    
C104  H40   1.110615 S    
C138  H131  1.107307 S    
C89   C91   1.404764 A    
C61   N3    1.372284 A    
C11   C13   1.421650 A    
C69   N5    1.361350 A    
C6    C85   1.413571 A    
C64   C82   1.407963 A    
C9    C27   1.398330 A    
C108  H48   1.109851 S    
C10   C28   1.399686 A    
N2    C20   1.439976 S    
C56   C58   1.415464 A    
C53   H7    1.081746 S    
C7    O11   1.348938 S    
N2    C10   1.366681 A    
C118  C119  1.527079 S    
C85   C87   1.420137 A    
C108  H49   1.106750 S    
C56   O22   1.388977 S    
O22   C108  1.418561 S    
C109  H51   1.111044 S    
C66   H121  1.082279 S    
C6    C80   1.400278 A    
C105  H41   1.108511 S    
C141  H138  1.117147 S    
Cu2   N5    1.995920 S    
C106  H44   1.109659 S    
C56   C59   1.398656 A    
C65   C73   1.404903 A    
C44   C46   1.399792 A    
C25   O29   1.401232 S    
O7    C3    1.292014 A    
C122  H90   1.108515 S    
C24   C26   1.412097 A    
C71   C73   1.405266 A    
Cu1   Cu2   2.657511 S    
C46   H24   1.079632 S    
C72   H76   1.082348 S    
C121  H87   1.111573 S    
C104  H39   1.110635 S    
C45   H23   1.083770 S    
C130  H107  1.111704 S    
C31   C34   1.419655 A    
C137  H128  1.110499 S    
C145  H146  1.111233 S    
C4    C30   1.474362 S    
C116  H70   1.110895 S    
C21   C36   1.418799 A    
C124  C125  1.525688 S    
C22   C35   1.420492 A    
C125  H97   1.110824 S    
C26   O30   1.388968 S    
C115  C116  1.525150 S    
O5    Cu1   1.950174 S    
O6    C4    1.288449 A    
C142  C143  1.525241 S    
C114  H64   1.111187 S    
C128  H103  1.110324 S    
C16   H72   1.082102 S    
O8    C4    1.292621 A    
C95   H14   1.110159 S    
C94   H11   1.111785 S    
C93   H10   1.110628 S    
C83   C87   1.424171 A    
C14   C30   1.408553 A    
C131  H110  1.110264 S    
O34   C144  1.415161 S    
C90   C92   1.413522 A    
C127  H100  1.111737 S    
C132  H113  1.112316 S    
C112  H59   1.111167 S    
C138  C139  1.536036 S    
C12   O33   1.384248 S    
C133  H115  1.110786 S    
O28   C126  1.414957 S    
C121  H86   1.111989 S    
C130  H108  1.109649 S    
C18   C20   1.404409 A    
C13   O32   1.388071 S    
O23   C111  1.419584 S    
C136  C137  1.525095 S    
C86   C88   1.416782 A    
C50   H26   1.076374 S    
C92   H56   1.077042 S    
C131  H109  1.110101 S    
C143  H142  1.110155 S    
C117  H77   1.111146 S    
C120  C121  1.528024 S    
C67   N5    1.364481 A    
C99   H27   1.114328 S    
C98   H22   1.111366 S    
C66   C74   1.405426 A    
C100  H30   1.111639 S    
C145  C146  1.525586 S    
C62   N4    1.374113 A    
C127  C128  1.526321 S    
C124  H93   1.111518 S    
C96   H17   1.113004 S    
O1    C1    1.287510 A    
C97   H19   1.112204 S    
C122  H88   1.110950 S    
C114  C115  1.538674 S    
C18   O28   1.389489 S    
C104  H38   1.110723 S    
C84   C90   1.431761 A    
C57   C59   1.412778 A    
C101  H33   1.110586 S    
C123  H92   1.111807 S    
O24   C114  1.418563 S    
C47   C49   1.402768 A    
O19   C99   1.413927 S    
C97   C98   1.526660 S    
C94   C95   1.526597 S    
C135  H124  1.116250 S    
O29   C129  1.415380 S    
C101  H32   1.109754 S    
C129  C130  1.534935 S    
C16   C30   1.403421 A    
C15   H71   1.083424 S    
C65   H122  1.082344 S    
C138  H130  1.110251 S    
C102  C103  1.538289 S    
C68   N6    1.364130 A    
O4    C2    1.295118 A    
O31   C135  1.418964 S    
O18   C96   1.412508 S    
C31   C35   1.419361 A    
C121  C122  1.525120 S    
C84   C88   1.425299 A    
C21   C27   1.409869 A    
C32   C38   1.412736 A    
O7    Cu2   1.950632 S    
C110  H53   1.104518 S    
C22   C28   1.409338 A    
C125  H95   1.110519 S    
C69   C71   1.397306 A    
C82   C91   1.395660 A    
C134  H116  1.110978 S    
C131  H111  1.109845 S    
C134  H118  1.110924 S    
C42   H6    1.075204 S    
O3    Cu2   1.992711 S    
O9    C64   1.344698 S    
C32   C33   1.422478 A    
N3    C63   1.372473 A    
C66   C68   1.400384 A    
N1    C19   1.435900 S    
O17   C93   1.412367 S    
C3    C29   1.480461 S    
C123  H91   1.108723 S    
O20   C102  1.415923 S    
C99   H28   1.115655 S    
C91   H55   1.080042 S    
C139  H132  1.110100 S    
C47   C60   1.484682 S    
C58   C60   1.415108 A    
O3    C1    1.292816 A    
C146  H150  1.110734 S    
C21   C23   1.416062 A    
C22   C24   1.413583 A    
C144  C145  1.534581 S    
C140  H134  1.110792 S    
C70   H74   1.078534 S    
C119  H81   1.109859 S    
C62   O16   1.348472 S    
C90   O24   1.399338 S    
C17   O27   1.386916 S    
C113  H63   1.110728 S    
C105  H42   1.101067 S    
C140  H135  1.110233 S    
C115  H67   1.109971 S    
C12   C20   1.407747 A    
C106  H43   1.106820 S    
C15   C29   1.403307 A    
C129  H105  1.110724 S    
C46   C48   1.402108 A    
C139  C140  1.524989 S    
C41   H5    1.072698 S    
C48   C50   1.401322 A    
C38   H4    1.076995 S    
C144  H144  1.110784 S    
C102  H34   1.110746 S    
C136  H125  1.110979 S    
C126  C127  1.527924 S    
C5    C86   1.413244 A    
O21   C105  1.423006 S    
O26   C120  1.411275 S    
O5    C3    1.292536 A    
C137  H129  1.110037 S    
C145  H147  1.110510 S    
C116  H69   1.110325 S    
C124  H94   1.108422 S    
C39   H151  1.082812 S    
N4    C74   1.459322 S    
C44   O18   1.383297 S    
O4    Cu1   1.992710 S    
C51   C53   1.402930 A    
C5    C79   1.412272 A    
C17   C19   1.401141 A    
C8    N2    1.369270 A    
C95   H13   1.110265 S    
C142  H140  1.107906 S    
C55   C60   1.405476 A    
C15   C17   1.400055 A    
C111  H57   1.108934 S    
C69   H73   1.078492 S    
C128  H102  1.111015 S    
C107  H47   1.110455 S    
C62   C78   1.420837 A    
O2    C2    1.285050 A    
C119  H82   1.105903 S    
C75   C77   1.413257 A    
C37   C39   1.387231 A    
C38   C40   1.386347 A    
C51   O19   1.382187 S    
C25   C41   1.412908 A    
C26   C42   1.401105 A    
C61   O15   1.349401 S    
C108  C109  1.522978 S    
C127  H101  1.111642 S    
C135  C136  1.531910 S    
C122  H89   1.110434 S    
C132  H112  1.110022 S    
C119  H83   1.110975 S    
C109  H50   1.102032 S    
C49   C51   1.398123 A    
C141  H137  1.110774 S    
C106  C107  1.526617 S    
N3    C73   1.456135 S    
C111  C112  1.529149 S    
C78   C80   1.407669 A    
O25   C117  1.414620 S    
C144  H145  1.108379 S    
C44   C54   1.405435 A    
C113  H61   1.110774 S    
C136  H126  1.109694 S    
C7    C23   1.415979 A    
C113  H62   1.110767 S    
C117  H78   1.108717 S    
C120  H85   1.114150 S    
C103  H36   1.111122 S    
C112  C113  1.524538 S    
O1    Cu1   1.980436 S    
C9    O14   1.350014 S    
C126  H98   1.117103 S    
C98   H21   1.110249 S    
C137  H127  1.110884 S    
O6    Cu2   1.950174 S    
C76   C87   1.429028 A    
C8    O12   1.348205 S    
O8    Cu1   1.950630 S    
C52   C54   1.398230 A    
O27   C123  1.416861 S    
C37   H3    1.079436 S    
C117  C118  1.535231 S    
C96   H16   1.115178 S    
C76   C78   1.412425 A    
C12   C14   1.411239 A    
C140  H136  1.108226 S    
O10   C63   1.348143 S    
C95   H15   1.111310 S    
C76   C82   1.401359 A    
C114  H65   1.109173 S    
N1    C9    1.364595 A    
C55   O21   1.393644 S    
O33   C141  1.414925 S    
C128  H104  1.111020 S    
C123  C124  1.532305 S    
C27   C40   1.396238 A    
C67   H2    1.079706 S    
C103  C104  1.525358 S    
C50   C52   1.398896 A    
C89   O23   1.392730 S    
C43   O17   1.385507 S    
C120  H84   1.114719 S    
C94   H12   1.109768 S    
