data_mof_unit_3568.cif
_audit_creation_date              2012-12-11T15:38:59-0500
_audit_creation_method            fapswitch 2.2
_symmetry_space_group_name_H-M    P1
_symmetry_Int_Tables_number       1
_space_group_crystal_system       triclinic
_cell_length_a                    14.329966
_cell_length_b                    14.795261
_cell_length_c                    33.26186
_cell_angle_alpha                 97.793451
_cell_angle_beta                  90.534298
_cell_angle_gamma                 118.87358
_cell_volume                      6095.55155174

loop_
_atom_site_label
_atom_site_type_symbol
_atom_type_description
_atom_site_fract_x
_atom_site_fract_y
_atom_site_fract_z
_atom_type_partial_charge
C1    C     C_R   0.616859 0.909789 0.437004 0.600144
C2    C     C_R   0.712133 0.437809 0.949147 0.530327
C3    C     C_R   0.698298 0.818377 0.769660 0.260382
C4    C     C_R   0.695272 0.840738 0.730540 -0.068086
C5    C     C_R   0.677162 0.765802 0.696357 -0.012511
C6    C     C_R   0.660650 0.666761 0.701751 -0.122010
C7    C     C_R   0.665042 0.644227 0.741027 -0.113278
C8    C     C_R   0.684168 0.719942 0.775127 0.069349
C9    C     C_R   0.580952 0.726946 0.628019 -0.094567
C10   C     C_R   0.564971 0.761665 0.592920 -0.114053
C11   C     C_R   0.732937 0.922703 0.610901 -0.117978
C12   C     C_R   0.740770 0.716894 0.945465 0.575689
C13   C     C_R   0.820751 0.435928 0.167003 -0.118097
C14   C     C_R   0.827205 0.454675 0.126907 0.223052
C15   C     C_R   0.752330 0.331158 0.243654 -0.092953
C16   C     C_R   0.748428 0.321080 0.284668 -0.098449
C17   C     C_R   0.719890 0.382693 0.312162 0.025745
C18   C     C_R   0.699551 0.457480 0.298332 -0.096845
C19   C     C_R   0.703678 0.467617 0.257283 -0.049259
C20   C     C_R   0.727200 0.402473 0.229653 0.060747
C21   C     C_R   0.726689 0.409865 0.186175 -0.014726
C22   C     C_R   0.603948 0.346262 0.369566 -0.106033
C23   C     C_R   0.594004 0.205672 0.456760 0.542709
C24   C     C_R   0.572588 0.302341 0.404862 -0.119450
C25   C     C_R   0.736398 0.293026 0.410984 -0.117303
C26   C     C_R   0.767676 0.336934 0.375693 -0.113701
C27   C     C_R   0.699566 0.359696 0.353830 0.028420
C28   C     C_R   0.636421 0.271141 0.424827 0.017671
C29   C     C_R   0.243703 0.877538 0.393504 0.020029
C30   C     C_R   0.233325 0.959561 0.380803 -0.109345
C31   C     C_R   0.208750 0.956600 0.339756 -0.080588
C32   C     C_R   0.748493 0.888214 0.646023 -0.122177
C33   C     C_R   0.193578 0.871497 0.311004 0.029380
C34   C     C_R   0.196538 0.786407 0.323659 -0.096367
C35   C     C_R   0.295369 0.892630 0.434405 0.555778
C36   C     C_R   0.221058 0.789116 0.364711 -0.084134
C37   C     C_R   0.196849 0.807506 0.163030 0.204199
C38   C     C_R   0.169181 0.787441 0.121136 -0.070873
C39   C     C_R   0.087857 0.898538 0.130130 -0.098807
C40   C     C_R   0.114763 0.918359 0.172104 0.366786
C41   C     C_R   0.165646 0.869759 0.188829 0.053601
C42   C     C_1   0.175844 0.874908 0.232262 0.120674
C43   C     C_R   0.670911 0.791716 0.655530 0.030839
C44   C     C_1   0.182946 0.874461 0.268312 0.044249
C45   C     C_R   0.110243 0.828836 0.104560 -0.076359
C46   C     C_R   0.635692 0.877604 0.395091 -0.029907
C47   C     C_R   0.614513 0.904987 0.551412 0.544134
C48   C     C_R   0.546971 0.817834 0.365936 0.319038
C49   C     C_R   0.561649 0.808363 0.324611 -0.148596
C50   C     C_R   0.664214 0.856992 0.311600 -0.061418
C51   C     C_R   0.753599 0.909177 0.340050 0.415460
C52   C     C_R   0.740089 0.919219 0.381801 0.201515
C53   C     C_R   0.782839 0.923594 0.174492 -0.079859
C54   C     C_R   0.639143 0.861410 0.584767 0.023416
C55   C     C_R   0.796149 0.909128 0.133022 -0.109410
C56   C     C_R   0.621420 0.753576 0.122162 -0.105010
C57   C     C_R   0.608150 0.768495 0.163540 -0.089058
C58   C     C_R   0.690381 0.851260 0.189891 0.025678
C59   C     C_R   0.589886 0.199538 0.570910 0.539748
C60   C     C_1   0.683295 0.856021 0.232932 0.025942
C61   C     C_1   0.676076 0.856898 0.268901 0.066046
C62   C     C_R   0.717397 0.821343 0.106804 0.013808
C63   C     C_R   0.623890 0.250909 0.613748 0.018633
C64   C     C_R   0.560403 0.284831 0.636002 -0.127989
C65   C     C_R   0.052200 0.781377 0.063823 0.551998
C66   C     C_R   0.577467 0.310177 0.678375 -0.117461
C67   C     C_R   0.658120 0.302116 0.698870 0.036340
C68   C     C_R   0.726439 0.275652 0.676856 -0.106656
C69   C     C_R   0.709824 0.250615 0.634471 -0.124793
C70   C     C_R   0.762010 0.345362 0.844965 -0.081127
C71   C     C_R   0.289173 0.886954 0.548501 0.544907
C72   C     C_R   0.771211 0.370447 0.887331 -0.086452
C73   C     C_R   0.593428 0.351712 0.884570 -0.104940
C74   C     C_R   0.584510 0.326765 0.842217 -0.097030
C75   C     C_R   0.670295 0.327365 0.822345 0.027245
C76   C     C_R   0.744451 0.486964 0.066305 0.561658
C77   C     C_1   0.667493 0.318124 0.778847 -0.009898
C78   C     C_1   0.664561 0.311953 0.742403 -0.014065
C79   C     C_R   0.689000 0.378819 0.907413 0.004598
C80   C     C_R   0.066669 0.752970 0.908055 0.027047
C81   C     C_R   0.097459 0.850460 0.896228 -0.189798
C82   C     C_R   0.116721 0.864201 0.855982 -0.132709
C83   C     C_R   0.737294 0.447393 0.105315 -0.018198
C84   C     C_R   0.106464 0.780931 0.827103 -0.027693
C85   C     C_R   0.083519 0.685962 0.839493 -0.066538
C86   C     C_R   0.064032 0.671815 0.879666 0.392118
C87   C     C_R   0.743343 0.789411 0.066448 0.556886
C88   C     C_R   0.170310 0.750554 0.760086 -0.057909
C89   C     C_R   0.176014 0.757360 0.718846 0.395094
C90   C     C_R   0.125045 0.804263 0.700588 0.027117
C91   C     C_R   0.068816 0.844346 0.724163 -0.171793
C92   C     C_R   0.063432 0.837588 0.765512 -0.129498
C93   C     C_R   0.114373 0.790793 0.783741 -0.029042
C94   C     C_R   0.184074 0.921877 0.648733 -0.118693
C95   C     C_R   0.640723 0.413183 0.123944 -0.120965
C96   C     C_R   0.224954 0.942539 0.611221 -0.121411
C97   C     C_R   0.168610 0.758587 0.590726 -0.112536
C98   C     C_R   0.021032 0.731644 0.947257 0.549928
C99   C     C_R   0.127137 0.737945 0.628095 -0.056698
C100  C     C_R   0.140329 0.820413 0.658092 0.053250
C101  C     C_R   0.222826 0.861850 0.582924 0.023401
C102  C     C_R   0.719011 0.702432 0.900772 -0.012381
C103  C     C_R   0.617319 0.637234 0.878856 0.254886
C104  C     C_R   0.605736 0.636912 0.836589 0.284909
C105  C     C_R   0.695177 0.699553 0.816503 0.021228
C106  C     C_R   0.796035 0.756427 0.837810 -0.131156
C107  C     C_R   0.634953 0.394633 0.164010 0.234379
C108  C     C_R   0.807545 0.758355 0.879303 -0.159373
Cl1   Cl    Cl    0.263080 0.746667 0.182559 -0.572295
Cl2   Cl    Cl    0.951955 0.491848 0.106917 -0.529589
Cl3   Cl    Cl    0.855792 0.985102 0.416251 -0.502185
Cl4   Cl    Cl    0.502702 0.560330 0.903269 -0.479114
Cl5   Cl    Cl    0.717933 0.915183 0.811223 -0.559993
Cl6   Cl    Cl    0.478393 0.563367 0.809300 -0.503571
Cl7   Cl    Cl    0.511409 0.352516 0.185381 -0.560842
Cr1   Cr    Cr6+3 0.424820 0.846020 0.489780 1.077724
Cr2   Cr    Cr6+3 0.657880 0.078580 0.505700 1.056837
Cr3   Cr    Cr6+3 0.417280 0.075360 0.504550 1.029344
Cr4   Cr    Cr6+3 0.903360 0.812540 0.006510 1.038527
Cr5   Cr    Cr6+3 0.914630 0.587050 0.006280 1.129022
Cr6   Cr    Cr6+3 0.673560 0.582680 0.008540 1.089337
F1    F     F_    0.084559 0.979100 0.196628 -0.608284
F2    F     F_    0.853581 0.953240 0.327169 -0.566220
F3    F     F_    0.445135 0.774760 0.376858 -0.618948
F4    F     F_    0.034735 0.576275 0.889696 -0.617156
F5    F     F_    0.235590 0.722564 0.697279 -0.626134
H1    H     H_    0.569964 0.404375 0.107890 0.181574
H2    H     H_    0.206196 0.022641 0.330250 0.156090
H3    H     H_    0.871133 0.962312 0.122140 0.152119
H4    H     H_    0.846770 0.988034 0.194782 0.171052
H5    H     H_    0.536091 0.712457 0.175279 0.158317
H6    H     H_    0.559337 0.685439 0.102690 0.151714
H7    H     H_    0.492312 0.766593 0.302612 0.175407
H8    H     H_    0.845783 0.390747 0.903979 0.193235
H9    H     H_    0.842580 0.348271 0.364350 0.126201
H10   H     H_    0.828611 0.345447 0.829773 0.150820
H11   H     H_    0.789302 0.269554 0.692538 0.123382
H12   H     H_    0.495460 0.287047 0.415016 0.139402
H13   H     H_    0.760033 0.224678 0.618274 0.132365
H14   H     H_    0.493792 0.286092 0.620955 0.132823
H15   H     H_    0.512974 0.312446 0.824880 0.151822
H16   H     H_    0.528645 0.357377 0.899020 0.184973
H17   H     H_    0.524572 0.331195 0.695248 0.125709
H18   H     H_    0.100976 0.914397 0.917595 0.148312
H19   H     H_    0.091376 0.658773 0.634645 0.149801
H20   H     H_    0.762835 0.261720 0.294515 0.126839
H21   H     H_    0.211533 0.715711 0.773738 0.161645
H22   H     H_    0.136613 0.938869 0.847164 0.144034
H23   H     H_    0.890984 0.445831 0.183914 0.167428
H24   H     H_    0.029837 0.881388 0.710599 0.122083
H25   H     H_    0.018974 0.868312 0.783142 0.124625
H26   H     H_    0.194633 0.986437 0.671567 0.117786
H27   H     H_    0.265679 0.022762 0.605779 0.134815
H28   H     H_    0.074954 0.620604 0.817596 0.141327
H29   H     H_    0.164107 0.694765 0.568998 0.132609
H30   H     H_    0.771547 0.281112 0.222615 0.128988
H31   H     H_    0.886300 0.807063 0.895062 0.150726
H32   H     H_    0.819046 0.938874 0.666740 0.110858
H33   H     H_    0.705180 0.916438 0.726804 0.149716
H34   H     H_    0.787951 0.271085 0.426105 0.149273
H35   H     H_    0.645870 0.607736 0.675660 0.119013
H36   H     H_    0.654516 0.568392 0.744875 0.134059
H37   H     H_    0.519940 0.652461 0.634917 0.130988
H38   H     H_    0.492274 0.712335 0.573159 0.134837
H39   H     H_    0.865325 0.804589 0.822638 0.136835
H40   H     H_    0.791956 0.999485 0.605304 0.135630
H41   H     H_    0.678346 0.506343 0.319110 0.120457
H42   H     H_    0.686768 0.524933 0.246886 0.149730
H43   H     H_    0.549762 0.362640 0.353057 0.130393
H44   H     H_    0.187539 0.733823 0.101926 0.202570
H45   H     H_    0.184457 0.719939 0.301565 0.149034
H46   H     H_    0.228251 0.724717 0.373453 0.183394
H47   H     H_    0.250225 0.028826 0.402153 0.144938
H48   H     H_    0.041757 0.930853 0.118232 0.160316
O1    O     O_R   0.318160 0.824460 0.443680 -0.471798
O2    O     O_R   0.668160 0.499860 0.053480 -0.524138
O3    O     O_R   0.689170 0.693840 0.050110 -0.492689
O4    O     O_R   0.525040 0.857250 0.449830 -0.435489
O5    O     O_R   0.803860 0.812940 0.962540 -0.488052
O6    O     O_R   0.982950 0.787950 0.964120 -0.547861
O7    O     O_R   0.007050 0.649970 0.960540 -0.427299
O8    O     O_R   0.807910 0.482370 0.965590 -0.494503
O9    O     O_R   0.643310 0.460980 0.963840 -0.498048
O10   O     O_R   0.666140 0.657800 0.967020 -0.427708
O11   O     O_3   0.830520 0.660760 0.007110 -0.302128
O12   O     O_R   0.645130 0.163230 0.552140 -0.503726
O13   O     O_R   0.684760 0.998800 0.456360 -0.467444
O14   O     O_R   0.647540 0.166310 0.470260 -0.500660
O15   O     O_R   0.500960 0.181750 0.467450 -0.516728
O16   O     O_R   0.331100 0.981120 0.457080 -0.505172
O17   O     O_R   0.315560 0.821140 0.532010 -0.516511
O18   O     O_R   0.522630 0.854180 0.531710 -0.505523
O19   O     O_R   0.682160 0.995480 0.544690 -0.512946
O20   O     O_R   0.498360 0.178430 0.555780 -0.516983
O21   O     O_R   0.328690 0.978040 0.538950 -0.501892
O22   O     O_3   0.499990 0.999990 0.500010 -0.256155
O23   O     O_R   0.828710 0.851830 0.052170 -0.506297
O24   O     O_R   0.005980 0.823990 0.047210 -0.503595
O25   O     O_R   0.031900 0.688850 0.050170 -0.463625
O26   O     O_R   0.830940 0.518420 0.048680 -0.431720

loop_
_geom_bond_atom_site_label_1
_geom_bond_atom_site_label_2
_ccdc_geom_bond_type
C69   H13   S    
Cr1   O4    S    
Cr4   O24   S    
C51   F2    S    
C41   C42   S    
C105  C106  A    
C19   C20   A    
C23   O15   A    
Cr5   O11   S    
C81   C82   A    
C90   C91   A    
C7    C8    A    
C12   O10   A    
C77   C78   T    
C25   C28   A    
C29   C36   A    
C26   C27   A    
C29   C30   A    
Cr4   O5    S    
C60   C61   T    
C5    C43   S    
C14   C83   A    
C72   C79   A    
Cr2   O12   S    
C2    O8    A    
C30   C31   A    
Cr3   O15   S    
C1    C46   S    
C4    H33   S    
C58   C60   S    
C15   C16   A    
C55   C62   A    
C46   C52   A    
Cr5   O25   S    
C56   C57   A    
C59   O12   A    
C16   H20   S    
C18   C19   A    
C73   C74   A    
Cr1   O22   S    
C47   O18   A    
C9    H37   S    
C38   C45   A    
C80   C86   A    
C26   H9    S    
C65   O25   A    
C72   H8    S    
C32   C43   A    
C81   H18   S    
C63   C69   A    
C16   C17   A    
C55   H3    S    
C11   H40   S    
C31   C33   A    
C102  C108  A    
C2    C79   S    
Cr3   O22   S    
C9    C10   A    
C30   H47   S    
C37   Cl1   S    
C39   C45   A    
C53   C55   A    
C66   C67   A    
C99   H19   S    
C96   C101  A    
C8    C105  S    
C86   F4    S    
C70   H10   S    
C68   H11   S    
C67   C78   S    
C42   C44   T    
C31   H2    S    
C25   H34   S    
C39   H48   S    
C10   C54   A    
C76   C83   S    
C90   C100  S    
C104  C105  A    
C97   C99   A    
C47   O19   A    
C38   H44   S    
C32   H32   S    
C89   F5    S    
C1    O13   A    
C59   O20   A    
C15   C20   A    
C7    H36   S    
C46   C48   A    
C84   C93   S    
C9    C43   A    
C36   H46   S    
C74   C75   A    
C67   C68   A    
C17   C27   S    
C106  H39   S    
C76   O2    A    
C84   C85   A    
C3    C8    A    
C3    Cl5   S    
C39   C40   A    
C68   C69   A    
Cr6   O3    S    
C108  H31   S    
C52   Cl3   S    
C24   H12   S    
C25   C26   A    
C85   C86   A    
C73   H16   S    
C51   C52   A    
C103  Cl4   S    
Cr1   O17   S    
C64   C66   A    
Cr4   O11   S    
C12   C102  S    
C37   C38   A    
C71   C101  S    
C87   O3    A    
C1    O4    A    
C71   O21   A    
C96   H27   S    
C6    H35   S    
C94   C100  A    
C18   H41   S    
C83   C95   A    
C20   C21   S    
C92   H25   S    
C17   C18   A    
C73   C79   A    
C13   C21   A    
C50   C51   A    
C21   C107  A    
C23   C28   S    
C65   O24   A    
C94   C96   A    
Cr3   O21   S    
C75   C77   S    
C107  Cl7   S    
C15   H30   S    
C56   H6    S    
C11   C54   A    
C95   C107  A    
C47   C54   S    
C104  Cl6   S    
C23   O14   A    
C48   C49   A    
C74   H15   S    
C11   C32   A    
C35   O16   A    
C82   C84   A    
C22   C27   A    
Cr6   O10   S    
C76   O26   A    
C56   C62   A    
Cr4   O6    S    
C87   O23   A    
C98   O6    A    
C3    C4    A    
C91   C92   A    
Cr5   O7    S    
Cr2   O13   S    
C64   H14   S    
C14   Cl2   S    
C49   H7    S    
C88   C93   A    
C40   C41   A    
C10   H38   S    
Cr1   O1    S    
C80   C98   S    
Cr4   O23   S    
C33   C44   S    
C57   H5    S    
C24   C28   A    
C80   C81   A    
Cr2   O14   S    
C48   F3    S    
C91   H24   S    
C82   H22   S    
C53   C58   A    
C6    C7    A    
C66   H17   S    
C40   F1    S    
C62   C87   S    
C29   C35   S    
C59   C63   S    
C99   C100  A    
Cr6   O9    S    
C35   O1    A    
C98   O7    A    
C13   H23   S    
Cr2   O22   S    
C45   C65   S    
Cr3   O16   S    
C57   C58   A    
C5    C6    A    
C106  C108  A    
C92   C93   A    
Cr5   O26   S    
C88   H21   S    
C33   C34   A    
C22   C24   A    
C85   H28   S    
C97   H29   S    
C37   C41   A    
C102  C103  A    
Cr3   O20   S    
C97   C101  A    
Cr5   O8    S    
C22   H43   S    
Cr2   O19   S    
Cr6   O11   S    
C63   C64   A    
Cr6   O2    S    
C95   H1    S    
C4    C5    A    
C12   O5    A    
C88   C89   A    
C34   C36   A    
C49   C50   A    
C19   H42   S    
C103  C104  A    
C50   C61   S    
Cr1   O18   S    
C70   C75   A    
C70   C72   A    
C53   H4    S    
C71   O17   A    
C89   C90   A    
C13   C14   A    
C94   H26   S    
C2    O9    A    
C34   H45   S    
