data_mof_unit_1171.cif
_audit_creation_date              2013-03-05T15:44:10-0500
_audit_creation_method            fapswitch 2.2
_symmetry_space_group_name_H-M    P1
_symmetry_Int_Tables_number       1
_space_group_crystal_system       triclinic
_cell_length_a                    19.302205
_cell_length_b                    10.910642
_cell_length_c                    9.703136
_cell_angle_alpha                 89.985764
_cell_angle_beta                  90.834206
_cell_angle_gamma                 89.934204
_cell_volume                      2043.25708453

loop_
_atom_site_label
_atom_site_type_symbol
_atom_site_description
_atom_site_fract_x
_atom_site_fract_y
_atom_site_fract_z
_atom_type_partial_charge
O1    O     O_R   0.500010 0.321960 0.617040 -0.574759
O2    O     O_R   0.499990 0.321920 0.382900 -0.578508
C1    C     C_R   0.500713 0.265365 0.500169 0.857424
O3    O     O_R   0.400160 0.500010 0.617110 -0.578713
O4    O     O_R   0.400130 0.499970 0.382960 -0.555259
C2    C     C_R   0.367833 0.499916 0.499317 0.804789
Cu1   Cu    Cu3+1 0.500010 0.500020 0.638630 0.930721
Cu2   Cu    Cu3+1 0.499990 0.499980 0.361370 0.954817
O5    O     O_R   0.500010 0.678080 0.617100 -0.587484
O6    O     O_R   0.499990 0.678040 0.382960 -0.549978
O7    O     O_R   0.599870 0.500030 0.617040 -0.580177
O8    O     O_R   0.599840 0.499990 0.382890 -0.589271
C3    C     C_R   0.505154 0.734393 0.499872 0.857501
C4    C     C_R   0.632613 0.499892 0.500668 0.771527
C5    C     C_R   0.256809 0.396111 0.536770 -0.197944
H1    H     H_    0.285095 0.314439 0.567453 0.129698
C6    C     C_R   0.184775 0.394176 0.534869 -0.184050
H2    H     H_    0.158337 0.310871 0.564453 0.149342
C7    C     C_R   0.147016 0.497705 0.492887 -0.003012
C8    C     C_R   0.182264 0.606066 0.455233 -0.034106
C9    C     C_R   0.255397 0.608346 0.459322 -0.052488
C10   C     C_R   0.292256 0.501870 0.497844 -0.049232
N1    N     N_R   0.033641 0.537403 0.384636 -0.229887
N2    N     N_R   0.964816 0.536060 0.386107 -0.241910
C11   C     C_R   0.930686 0.489269 0.495481 0.401979
N3    N     N_R   0.968148 0.442169 0.602626 -0.246770
N4    N     N_R   0.037094 0.443047 0.600916 -0.240598
C12   C     C_R   0.070981 0.491806 0.492374 0.409577
C13   C     C_R   0.818886 0.469397 0.620836 -0.160463
H3    H     H_    0.846872 0.450016 0.715916 0.150202
C14   C     C_R   0.746621 0.473590 0.622572 -0.187480
H4    H     H_    0.720421 0.456273 0.718582 0.150185
C15   C     C_R   0.708793 0.498429 0.501079 -0.027123
C16   C     C_R   0.744362 0.520092 0.378310 -0.194139
H5    H     H_    0.716550 0.539726 0.283092 0.143150
C17   C     C_R   0.816414 0.517070 0.376842 -0.159949
H6    H     H_    0.842277 0.534173 0.280429 0.149719
C18   C     C_R   0.854410 0.491283 0.497883 0.061510
C19   C     C_2   0.530202 0.935389 0.389720 0.036715
C20   C     C_2   0.515572 0.866437 0.501809 -0.358310
H7    H     H_    0.510446 0.907364 0.602614 0.136534
C21   C     C_2   0.529371 0.070399 0.397246 -0.212305
C22   C     C_2   0.501965 0.133155 0.501899 -0.355061
H8    H     H_    0.550523 0.120271 0.310368 0.169718
H9    H     H_    0.479834 0.089827 0.591228 0.139213
C23   C     C_2   0.460048 0.430697 0.920409 -0.107978
N5    N     N_2   0.499250 0.498660 0.846910 -0.288464
H10   H     H_    0.426526 0.365336 0.867840 0.159036
H11   H     H_    0.526057 0.567647 0.896040 0.196835
C24   C     C_2   0.452421 0.446911 0.073356 0.051555
N6    N     N_2   0.499230 0.498630 0.153040 -0.293913
H12   H     H_    0.545720 0.519965 0.108533 0.194445
C25   C     C_R   0.384821 0.407773 0.125722 0.207636
C26   C     C_R   0.327590 0.486146 0.108422 -0.147139
C27   C     C_R   0.261396 0.447289 0.144957 -0.140692
C28   C     C_R   0.251708 0.329113 0.196321 -0.079690
C29   C     C_R   0.308170 0.249665 0.210917 -0.189401
C30   C     C_R   0.374686 0.288290 0.175116 -0.148528
H13   H     H_    0.334350 0.576760 0.065097 0.114168
H14   H     H_    0.217554 0.508358 0.132383 0.124297
H15   H     H_    0.200381 0.298823 0.224041 0.133953
H16   H     H_    0.299847 0.157661 0.247973 0.133732
H17   H     H_    0.417704 0.224771 0.183367 0.125736
C31   C     C_R   0.143352 0.720059 0.423773 0.126501
C32   C     C_R   0.121717 0.796345 0.531316 -0.130513
C33   C     C_R   0.086726 0.905728 0.501764 -0.128135
C34   C     C_R   0.073168 0.939310 0.364933 -0.106865
C35   C     C_R   0.094490 0.863427 0.257441 -0.125371
C36   C     C_R   0.129515 0.754013 0.286585 -0.110470
H18   H     H_    0.132423 0.771427 0.637584 0.120973
H19   H     H_    0.070285 0.964650 0.584886 0.130302
H20   H     H_    0.046188 0.024122 0.342216 0.128476
H21   H     H_    0.083977 0.889507 0.151546 0.125309
H22   H     H_    0.145959 0.695967 0.202655 0.108068
C37   C     C_R   0.292597 0.725120 0.437320 0.099276
C38   C     C_R   0.300073 0.772926 0.304190 -0.099044
C39   C     C_R   0.331172 0.887139 0.285534 -0.141046
C40   C     C_R   0.354348 0.954386 0.399681 -0.112509
C41   C     C_R   0.347096 0.907217 0.532531 -0.138092
C42   C     C_R   0.316648 0.792506 0.551464 -0.146758
H23   H     H_    0.280635 0.723082 0.215516 0.104877
H24   H     H_    0.336540 0.924152 0.182760 0.112518
H25   H     H_    0.378058 0.042992 0.385258 0.130711
H26   H     H_    0.365133 0.959483 0.620757 0.115894
H27   H     H_    0.310644 0.757097 0.654906 0.124283
C43   C     C_R   0.549461 0.881943 0.254696 0.162257
C44   C     C_R   0.510334 0.910060 0.135556 -0.149995
C45   C     C_R   0.529774 0.863530 0.007511 -0.136141
C46   C     C_R   0.588810 0.790018 0.997247 -0.141018
C47   C     C_R   0.628309 0.762310 0.115070 -0.155565
C48   C     C_R   0.609015 0.808468 0.243369 -0.091495
H28   H     H_    0.464964 0.968129 0.141915 0.112606
H29   H     H_    0.499330 0.885089 0.916076 0.126695
H30   H     H_    0.604054 0.754780 0.897899 0.133168
H31   H     H_    0.674073 0.705550 0.106830 0.121479
H32   H     H_    0.640423 0.787292 0.333728 0.108689

loop_
_geom_bond_atom_site_label_1
_geom_bond_atom_site_label_2
_geom_bond_distance
_ccdc_geom_bond_type
C44   C45   1.398442 A    
C26   C27   1.397232 A    
C7    C8    1.415299 A    
C27   C28   1.395985 A    
C4    C15   1.470462 S    
C47   C48   1.398384 A    
Cu1   Cu2   2.690285 S    
N5    H11   1.027344 S    
C39   C40   1.397112 A    
Cu1   O7    1.941901 S    
C1    C22   1.442759 S    
N3    N4    1.331187 A    
C13   H3    1.082952 S    
C17   H6    1.083018 S    
C34   H20   1.082378 S    
C43   C48   1.406333 A    
C41   H26   1.082249 S    
O7    C4    1.302014 A    
C32   H18   1.083223 S    
C2    C10   1.458792 S    
C28   C29   1.397302 A    
Cu1   O5    1.953896 S    
C16   H5    1.083001 S    
C46   H30   1.082525 S    
O5    C3    1.297811 A    
C3    C20   1.454961 S    
C48   H32   1.083384 S    
C23   N5    1.283660 D    
C40   H25   1.080035 S    
C5    C10   1.396930 A    
C14   H4    1.083138 S    
C35   C36   1.398041 A    
C13   C18   1.405187 A    
N1    N2    1.328843 A    
C14   C15   1.403791 A    
C37   C42   1.403196 A    
C45   C46   1.397480 A    
C33   C34   1.398177 A    
C27   H14   1.081959 S    
C21   H8    1.087992 S    
O3    Cu1   1.935577 S    
C15   C16   1.403678 A    
C19   C21   1.474953 S    
C26   H13   1.082995 S    
C23   H10   1.085844 S    
C24   C25   1.470909 S    
C34   C35   1.398163 A    
C29   H16   1.079178 S    
N2    C11   1.357124 A    
O3    C2    1.294201 A    
C19   C20   1.355605 D    
C40   C41   1.396857 A    
C24   N6    1.309059 D    
C11   N3    1.358246 A    
N1    C12   1.355284 A    
N6    H12   1.028416 S    
O1    C1    1.291606 A    
Cu1   N5    2.021287 S    
C8    C31   1.481612 S    
C37   C38   1.402443 A    
C42   H27   1.083251 S    
C11   C18   1.472956 S    
C33   H19   1.082478 S    
Cu2   O8    1.935581 S    
C6    H2    1.083575 S    
C36   H22   1.082775 S    
C31   C36   1.403475 A    
C38   C39   1.396683 A    
C7    C12   1.469061 S    
C22   H9    1.080886 S    
Cu2   N6    2.021352 S    
C20   H7    1.081132 S    
O8    C4    1.298133 A    
C21   C22   1.339762 D    
C44   H28   1.082803 S    
C43   C44   1.405256 A    
C30   H17   1.083005 S    
C5    C6    1.390448 A    
C23   C24   1.503940 S    
C45   H29   1.082671 S    
O1    Cu1   1.954064 S    
O2    Cu2   1.953898 S    
O6    C3    1.293081 A    
C47   H31   1.082142 S    
C38   H23   1.080808 S    
O4    Cu2   1.941899 S    
C25   C30   1.403727 A    
C25   C26   1.404306 A    
C9    C37   1.480164 S    
C31   C32   1.402998 A    
C17   C18   1.403824 A    
O2    C1    1.294168 A    
C35   H21   1.082391 S    
C13   C14   1.395916 A    
C29   C30   1.400301 A    
O4    C2    1.297628 A    
C39   H24   1.082217 S    
C6    C7    1.400817 A    
C16   C17   1.391407 A    
C41   C42   1.396536 A    
C8    C9    1.411848 A    
Cu2   O6    1.954063 S    
C32   C33   1.398229 A    
N4    C12   1.356716 A    
C28   H15   1.082394 S    
C19   C43   1.486207 S    
C46   C47   1.397729 A    
C9    C10   1.409123 A    
C5    H1    1.083886 S    
