data_mof_unit_4676.cif
_audit_creation_date              2012-12-10T17:33:43-0500
_audit_creation_method            fapswitch 2.2
_symmetry_space_group_name_H-M    P1
_symmetry_Int_Tables_number       1
_space_group_crystal_system       triclinic
_cell_length_a                    11.660461
_cell_length_b                    12.42453
_cell_length_c                    13.147178
_cell_angle_alpha                 117.068598
_cell_angle_beta                  76.308651
_cell_angle_gamma                 100.774398
_cell_volume                      1640.95066346

loop_
_atom_site_label
_atom_site_type_symbol
_atom_type_description
_atom_site_fract_x
_atom_site_fract_y
_atom_site_fract_z
_atom_type_partial_charge
C1    C     C_R   0.510875 0.855056 0.286261 0.773493
C2    C     C_R   0.456533 0.227983 0.836566 -0.143685
C3    C     C_R   0.596660 0.809708 0.081671 -0.200543
C4    C     C_R   0.620594 0.728781 0.965512 -0.179629
C5    C     C_R   0.575627 0.607704 0.929111 -0.134107
C6    C     C_R   0.503711 0.565097 0.008757 0.076840
C7    C     C_R   0.465020 0.651916 0.123053 0.073926
C8    C     C_R   0.463340 0.440289 0.977043 -0.031826
C9    C     C_R   0.368240 0.408460 0.051564 0.104718
C10   C     C_R   0.321269 0.497623 0.158115 -0.217931
C11   C     C_R   0.369587 0.617201 0.194029 -0.199830
C12   C     C_R   0.715453 0.000240 0.500488 0.832341
C13   C     C_R   0.516179 0.345125 0.875784 0.390201
C14   C     C_R   0.360843 0.198639 0.909310 -0.270247
C15   C     C_R   0.520474 0.772310 0.161897 -0.115130
C16   C     C_R   0.644036 0.311701 0.290773 -0.283552
C17   C     C_R   0.351062 0.768695 0.657190 0.080456
C18   C     C_R   0.318895 0.676747 0.693721 -0.254100
C19   C     C_R   0.371646 0.568127 0.631878 -0.159464
C20   C     C_R   0.457210 0.548884 0.531019 -0.067865
C21   C     C_R   0.488583 0.645231 0.494872 0.196634
C22   C     C_R   0.514544 0.438361 0.466300 -0.040474
C23   C     C_R   0.482601 0.144851 0.713725 0.802621
C24   C     C_R   0.585373 0.417247 0.357160 0.109895
C25   C     C_R   0.605375 0.504558 0.316908 -0.367421
C26   C     C_R   0.576476 0.623317 0.390959 0.476020
C27   C     C_R   0.505747 0.346705 0.504160 0.060585
C28   C     C_R   0.634863 0.227737 0.334127 0.085176
C29   C     C_R   0.284426 0.000382 0.500383 0.799069
C30   C     C_1   0.837196 0.000346 0.500806 -0.193259
C31   C     C_1   0.939899 0.000492 0.500760 -0.016744
C32   C     C_1   0.059902 0.000550 0.500501 -0.004274
C33   C     C_1   0.162620 0.000572 0.500366 -0.179434
C34   C     C_R   0.319619 0.287686 0.018056 -0.192307
Cu1   Cu    Cu3+1 0.526510 0.098270 0.475420 0.949886
Cu2   Cu    Cu3+1 0.473490 0.901730 0.524580 0.960102
H1    H     H_    0.315398 0.108121 0.880458 0.163149
H2    H     H_    0.659336 0.481928 0.232390 0.148182
H3    H     H_    0.698745 0.295423 0.206883 0.138752
H4    H     H_    0.450819 0.352599 0.584602 0.117868
H5    H     H_    0.309661 0.852828 0.706282 0.121265
H6    H     H_    0.342107 0.499502 0.663489 0.134081
H7    H     H_    0.252627 0.689764 0.770550 0.143038
H8    H     H_    0.247257 0.474676 0.214622 0.144618
H9    H     H_    0.245835 0.263279 0.073757 0.146048
H10   H     H_    0.638935 0.901493 0.108946 0.148292
H11   H     H_    0.593477 0.550705 0.837190 0.193221
H12   H     H_    0.676394 0.759462 0.903510 0.147428
H13   H     H_    0.327261 0.682783 0.275968 0.166707
H14   H     H_    0.678433 0.145097 0.282966 0.117169
N1    N     N_R   0.566700 0.246290 0.438210 -0.181819
N2    N     N_R   0.434010 0.754320 0.561170 -0.192109
O1    O     O_R   0.533340 0.972510 0.318140 -0.591550
O2    O     O_R   0.488570 0.806530 0.359650 -0.544421
O3    O     O_R   0.685190 0.083000 0.479260 -0.578619
O4    O     O_R   0.640410 0.917020 0.520770 -0.507915
O5    O     O_R   0.511430 0.193470 0.640350 -0.550472
O6    O     O_R   0.466660 0.027490 0.681860 -0.601259
O7    O     O_R   0.359590 0.082980 0.479230 -0.572845
O8    O     O_R   0.314810 0.917000 0.520740 -0.589666
O9    O     O_3   0.646706 0.720130 0.376517 -0.564684
C35   C     C_3   0.729843 0.698388 0.272560 0.079358
H15   H     H_    0.746723 0.784812 0.263390 0.152114
H16   H     H_    0.694419 0.632203 0.193105 0.117513
C36   C     C_3   0.848603 0.669120 0.281138 -0.375449
H17   H     H_    0.873620 0.734082 0.366287 0.240737
H18   H     H_    0.841318 0.576435 0.275659 0.209258
C37   C     C_3   0.947218 0.678625 0.185052 -0.915940
H19   H     H_    0.923346 0.617430 0.098612 0.261210
H20   H     H_    0.030520 0.652275 0.190875 0.260958
H21   H     H_    0.962889 0.773410 0.194363 0.257145
O10   O     O_3   0.626473 0.365501 0.815473 -0.630352
C38   C     C_3   0.713421 0.313762 0.834289 0.079517
H22   H     H_    0.792993 0.308801 0.766784 0.171836
H23   H     H_    0.685152 0.218769 0.823023 0.118299
C39   C     C_3   0.748815 0.392533 0.953957 -0.375557
H24   H     H_    0.778251 0.486387 0.963056 0.226139
H25   H     H_    0.671265 0.396181 0.022936 0.208836
C40   C     C_3   0.848225 0.341127 0.970799 -0.937362
H26   H     H_    0.820508 0.246833 0.960952 0.255479
H27   H     H_    0.869083 0.397474 0.059298 0.258929
H28   H     H_    0.929310 0.341489 0.906406 0.262732

loop_
_geom_bond_atom_site_label_1
_geom_bond_atom_site_label_2
_ccdc_geom_bond_type
C16   C28   A    
C23   O6    A    
C21   C26   A    
C8    C13   A    
Cu1   O1    S    
C38   H22   S    
Cu1   Cu2   S    
C39   C40   S    
C7    C11   A    
C5    H11   S    
C11   H13   S    
C26   O9    S    
C39   H25   S    
Cu2   O6    S    
C5    C6    A    
C28   N1    A    
C29   C33   S    
Cu1   O7    S    
C18   C19   A    
C2    C13   A    
C1    O1    A    
C35   H16   S    
C37   H19   S    
C28   H14   S    
C29   O7    A    
C8    C9    A    
C36   H18   S    
C1    C15   S    
C9    C10   A    
Cu2   N2    S    
C19   H6    S    
C7    C15   A    
C16   C24   A    
C38   H23   S    
C17   N2    A    
C27   N1    A    
C10   H8    S    
C39   H24   S    
C40   H27   S    
O10   C38   S    
C6    C8    A    
C25   C26   A    
Cu1   O3    S    
C1    O2    A    
C35   H15   S    
Cu2   O4    S    
C25   H2    S    
C31   C32   S    
C29   O8    A    
C27   H4    S    
C36   C37   S    
C17   C18   A    
C34   H9    S    
C24   C25   A    
C12   O4    A    
C20   C22   A    
C22   C27   A    
Cu1   N1    S    
C9    C34   A    
C38   C39   S    
C22   C24   A    
C3    C4    A    
C3    C15   A    
C4    H12   S    
C23   O5    A    
C35   C36   S    
C12   C30   S    
C4    C5    A    
Cu2   O8    S    
C14   C34   A    
C40   H28   S    
C6    C7    A    
C13   O10   S    
C3    H10   S    
Cu1   O5    S    
C32   C33   T    
C19   C20   A    
C18   H7    S    
C14   H1    S    
C30   C31   T    
C37   H21   S    
O9    C35   S    
C2    C14   A    
C17   H5    S    
C12   O3    A    
Cu2   O2    S    
C10   C11   A    
C16   H3    S    
C40   H26   S    
C20   C21   A    
C37   H20   S    
C36   H17   S    
C2    C23   S    
C21   N2    A    
