data_mof_unit_4052.cif
_audit_creation_date              2012-12-11T14:08:03-0500
_audit_creation_method            fapswitch 2.2
_symmetry_space_group_name_H-M    P1
_symmetry_Int_Tables_number       1
_space_group_crystal_system       triclinic
_cell_length_a                    11.110504
_cell_length_b                    11.032152
_cell_length_c                    18.79186
_cell_angle_alpha                 89.866353
_cell_angle_beta                  89.546996
_cell_angle_gamma                 59.113202
_cell_volume                      1976.64795302

loop_
_atom_site_label
_atom_site_type_symbol
_atom_type_description
_atom_site_fract_x
_atom_site_fract_y
_atom_site_fract_z
_atom_type_partial_charge
C1    C     C_R   0.235414 0.645574 0.608495 0.599566
C2    C     C_3   0.763584 0.555655 0.793488 -0.208727
C3    C     C_3   0.727179 0.709531 0.805121 -0.056325
C4    C     C_3   0.682839 0.664569 0.671864 0.028139
C5    C     C_3   0.799277 0.704331 0.674384 -0.254394
C6    C     C_3   0.740471 0.527010 0.718127 0.129434
C7    C     C_2   0.681399 0.140485 0.666149 -0.123274
C8    C     C_2   0.696987 0.148558 0.822790 -0.086732
C9    C     C_2   0.809602 0.107953 0.779028 0.109354
C10   C     C_2   0.795988 0.120362 0.700051 -0.064274
C11   C     C_2   0.178137 0.659442 0.680951 0.380180
C12   C     C_R   0.656858 0.627009 0.599172 0.582727
C13   C     C_2   0.218213 0.641554 0.850407 0.160756
C14   C     C_2   0.201553 0.561853 0.801771 -0.091240
C15   C     C_2   0.246466 0.551468 0.727300 -0.084035
C16   C     C_2   0.654072 0.643079 0.317270 -0.057532
C17   C     C_2   0.636635 0.663345 0.158460 0.346727
C18   C     C_2   0.721445 0.546150 0.194748 -0.110234
C19   C     C_2   0.726281 0.532137 0.271779 0.064278
C20   C     C_2   0.634454 0.195134 0.319425 -0.071469
C21   C     C_2   0.636122 0.197812 0.164787 -0.103246
C22   C     C_2   0.525388 0.221484 0.203203 -0.153395
C23   C     C_R   0.631464 0.221102 0.599290 0.578457
C24   C     C_2   0.518983 0.251613 0.278297 -0.152312
C25   C     C_2   0.232035 0.640409 0.322900 0.077422
C26   C     C_2   0.202440 0.638011 0.165559 -0.080365
C27   C     C_2   0.248671 0.707891 0.204527 0.147288
C28   C     C_2   0.311397 0.647700 0.271587 -0.147341
C29   C     C_R   0.705972 0.096699 0.895936 0.550221
C30   C     C_R   0.757845 0.715968 0.882861 0.540252
C31   C     C_R   0.116889 0.706269 0.907463 0.563105
C32   C     C_R   0.672941 0.112307 0.101607 0.563044
C33   C     C_R   0.691940 0.687620 0.093659 0.599896
C34   C     C_R   0.285152 0.621244 0.392988 0.549859
C35   C     C_R   0.100139 0.705501 0.110027 0.576831
C36   C     C_R   0.641187 0.619119 0.392056 0.539516
C37   C     C_R   0.613982 0.234630 0.393590 0.549389
C38   C     C_3   0.569219 0.810523 0.784608 0.005550
C39   C     C_3   0.545774 0.797605 0.704688 0.160964
C40   C     C_3   0.815262 0.742581 0.752592 -0.250474
Cr1   Cr    Cr6+3 0.393010 0.398050 0.501480 1.083426
Cr2   Cr    Cr6+3 0.398820 0.707980 0.501630 1.113589
Cr3   Cr    Cr6+3 0.708140 0.393940 0.496850 1.108251
Cr4   Cr    Cr6+3 0.937950 0.938450 0.008940 1.104716
Cr5   Cr    Cr6+3 0.626180 0.937030 0.994750 1.112781
Cr6   Cr    Cr6+3 0.937790 0.625760 0.001410 1.052422
H1    H     H_    0.926103 0.683389 0.767267 0.156704
H2    H     H_    0.901463 0.616839 0.654680 0.171207
H3    H     H_    0.875429 0.128041 0.670121 0.217648
H4    H     H_    0.592563 0.199433 0.800677 0.128946
H5    H     H_    0.606557 0.124163 0.694827 0.140698
H6    H     H_    0.121982 0.534487 0.810406 0.122372
H7    H     H_    0.331258 0.449656 0.709003 0.141197
H8    H     H_    0.516253 0.767225 0.816617 0.191866
H9    H     H_    0.807901 0.457873 0.166781 0.141540
H10   H     H_    0.588039 0.750177 0.298972 0.185203
H11   H     H_    0.444164 0.205411 0.181663 0.186999
H12   H     H_    0.414285 0.315881 0.300808 0.169779
H13   H     H_    0.713030 0.220849 0.185971 0.132313
H14   H     H_    0.739845 0.129834 0.298128 0.145420
H15   H     H_    0.413837 0.632689 0.283075 0.129896
H16   H     H_    0.232779 0.530235 0.179650 0.096873
H17   H     H_    0.780402 0.856551 0.756025 0.168105
H18   H     H_    0.776404 0.793347 0.638499 0.161310
H19   H     H_    0.875330 0.483494 0.807358 0.185868
H20   H     H_    0.703635 0.529043 0.831526 0.187839
O1    O     O_R   0.507110 0.256280 0.580300 -0.478529
O2    O     O_R   0.524640 0.695370 0.425100 -0.516824
O3    O     O_R   0.735890 0.504390 0.415980 -0.464263
O4    O     O_R   0.690560 0.277820 0.422350 -0.481568
O5    O     O_3   0.499990 0.499990 0.499980 -0.310902
O6    O     O_R   0.089190 0.825870 0.932320 -0.457572
O7    O     O_R   0.819070 0.053960 0.931440 -0.477866
O8    O     O_R   0.607070 0.076440 0.916460 -0.493679
O9    O     O_R   0.647110 0.806550 0.917690 -0.469010
O10   O     O_R   0.837080 0.593860 0.915300 -0.516066
O11   O     O_R   0.064770 0.636080 0.932550 -0.540375
O12   O     O_R   0.280830 0.527190 0.577940 -0.526092
O13   O     O_R   0.068250 0.829200 0.092940 -0.468270
O14   O     O_R   0.799650 0.057040 0.080330 -0.489383
O15   O     O_R   0.586130 0.079760 0.077080 -0.494647
O16   O     O_R   0.627700 0.809630 0.066580 -0.435891
O17   O     O_R   0.816140 0.597180 0.075920 -0.545144
O18   O     O_R   0.045360 0.639170 0.081440 -0.495217
O19   O     O_3   0.833980 0.833750 0.001700 -0.306996
O20   O     O_R   0.261360 0.738990 0.584270 -0.441061
O21   O     O_R   0.532590 0.694780 0.574370 -0.463902
O22   O     O_R   0.744470 0.503750 0.577000 -0.469914
O23   O     O_R   0.698520 0.277230 0.571620 -0.467778
O24   O     O_R   0.498530 0.256920 0.419280 -0.509501
O25   O     O_R   0.272880 0.527780 0.428680 -0.479350
O26   O     O_R   0.252780 0.739630 0.423250 -0.473972
I1    I     I_    0.438676 0.029370 0.818654 -0.243822
I2    I     I_    0.946834 0.346014 0.684269 -0.285057
I3    I     I_    0.009069 0.057715 0.817242 -0.128452
I4    I     I_    0.414949 0.604366 0.882284 -0.326671
F1    F     F_    0.069736 0.786426 0.703134 -0.643737
I5    I     I_    0.882683 0.318260 0.298893 -0.284436
F2    F     F_    0.517186 0.771729 0.186482 -0.642002
I6    I     I_    0.195428 0.923845 0.195659 -0.136248
I7    I     I_    0.341899 0.826579 0.708335 -0.125729
I8    I     I_    0.019113 0.690962 0.312662 -0.304072
I9    I     I_    0.486401 0.978998 0.635484 -0.275404
I10   I     I_    0.593524 0.458322 0.719370 -0.375146

loop_
_geom_bond_atom_site_label_1
_geom_bond_atom_site_label_2
_ccdc_geom_bond_type
C7    C10   D    
C30   O9    A    
C40   H1    S    
Cr5   O16   S    
C1    C11   S    
C2    H19   S    
C22   H11   S    
Cr6   O10   S    
Cr1   O1    S    
C25   C28   D    
C32   O15   A    
C26   C27   D    
Cr3   O23   S    
C40   H17   S    
C37   O24   A    
C8    C29   S    
C15   H7    S    
C21   H13   S    
C38   C39   S    
C25   I8    S    
C29   O7    A    
C18   C19   S    
C23   O1    A    
C34   O25   A    
C13   C14   D    
C11   C15   D    
C14   H6    S    
C20   C24   D    
C3    C38   S    
C8    C9    D    
C6    I2    S    
C23   O23   A    
C31   O11   A    
Cr2   O20   S    
C6    I10   S    
C20   H14   S    
C33   O16   A    
C9    I3    S    
C25   C34   S    
Cr1   O5    S    
Cr6   O19   S    
C28   H15   S    
Cr1   O24   S    
Cr3   O3    S    
C21   C22   D    
Cr2   O2    S    
C1    O12   A    
C2    C6    S    
C17   C33   S    
C5    H2    S    
C19   I5    S    
C39   I7    S    
C21   C32   S    
C27   I6    S    
C12   O22   A    
C13   I4    S    
Cr4   O14   S    
C4    C6    S    
Cr1   O12   S    
C29   O8    A    
C17   F2    S    
C5    H18   S    
Cr5   O8    S    
C3    C30   S    
Cr5   O19   S    
C16   H10   S    
C32   O14   A    
C30   O10   A    
C38   H8    S    
C4    C39   S    
C17   C18   D    
C33   O17   A    
C18   H9    S    
Cr6   O18   S    
C31   O6    A    
Cr1   O25   S    
C3    C40   S    
Cr3   O4    S    
C22   C24   S    
C4    C12   S    
Cr3   O22   S    
Cr4   O19   S    
C8    H4    S    
C36   O3    A    
C9    C10   S    
C1    O20   A    
Cr3   O5    S    
C12   O21   A    
C13   C31   S    
Cr4   O13   S    
Cr5   O15   S    
C4    C5    S    
C2    H20   S    
Cr6   O11   S    
C35   O18   A    
C36   O2    A    
C39   I9    S    
Cr5   O9    S    
C11   F1    S    
C2    C3    S    
C26   H16   S    
C7    H5    S    
C16   C36   S    
C20   C37   S    
C16   C19   D    
C7    C23   S    
C38   I1    S    
C35   O13   A    
Cr2   O5    S    
Cr4   O6    S    
Cr2   O26   S    
Cr4   O7    S    
C34   O26   A    
Cr6   O17   S    
C26   C35   S    
C24   H12   S    
C5    C40   S    
C27   C28   S    
C14   C15   S    
Cr2   O21   S    
C37   O4    A    
C10   H3    S    
