data_mof_unit_3240.cif
_audit_creation_date              2012-12-11T14:45:56-0500
_audit_creation_method            fapswitch 2.2
_symmetry_space_group_name_H-M    P1
_symmetry_Int_Tables_number       1
_space_group_crystal_system       triclinic
_cell_length_a                    10.975114
_cell_length_b                    11.076203
_cell_length_c                    18.726792
_cell_angle_alpha                 90.348359
_cell_angle_beta                  89.599097
_cell_angle_gamma                 120.119842
_cell_volume                      1969.04523606

loop_
_atom_site_label
_atom_site_type_symbol
_atom_type_description
_atom_site_fract_x
_atom_site_fract_y
_atom_site_fract_z
_atom_type_partial_charge
C1    C     C_R   0.864632 0.639872 0.603233 0.546424
C2    C     C_R   0.386893 0.598480 0.778729 -0.190411
C3    C     C_R   0.380616 0.595777 0.705869 -0.191495
C4    C     C_R   0.343550 0.682050 0.670967 -0.042823
C5    C     C_R   0.879555 0.218598 0.841250 -0.022552
C6    C     C_R   0.105732 0.242503 0.843638 -0.109820
C7    C     C_R   0.227299 0.266173 0.811084 -0.184376
C8    C     C_R   0.235868 0.271185 0.737776 -0.094403
C9    C     C_R   0.124044 0.252684 0.695281 0.288382
C10   C     C_R   0.001339 0.250393 0.727274 -0.002271
C11   C     C_R   0.993844 0.233141 0.803431 -0.030325
C12   C     C_R   0.274085 0.634547 0.602312 0.537306
C13   C     C_R   0.784023 0.272405 0.738574 -0.006714
C14   C     C_R   0.804750 0.277301 0.813258 -0.031102
C15   C     C_R   0.652960 0.264619 0.719048 0.293022
C16   C     C_R   0.548173 0.228451 0.771586 0.247012
C17   C     C_R   0.588505 0.268935 0.841827 -0.109170
C18   C     C_R   0.725454 0.311339 0.860240 -0.112098
C19   C     C_R   0.887050 0.262724 0.692004 -0.043748
C20   C     C_R   0.694742 0.580228 0.705168 -0.127136
C21   C     C_R   0.679992 0.594667 0.778113 -0.136761
C22   C     C_R   0.779781 0.714683 0.814083 0.025772
C23   C     C_R   0.885996 0.285996 0.612124 0.582069
C24   C     C_R   0.891558 0.820760 0.776035 -0.152608
C25   C     C_R   0.916005 0.796549 0.706726 -0.143687
C26   C     C_R   0.819879 0.673669 0.670828 0.027280
C27   C     C_R   0.250236 0.531586 0.272676 0.264421
C28   C     C_R   0.257595 0.550388 0.199332 -0.169772
C29   C     C_R   0.320029 0.684381 0.170619 -0.038238
C30   C     C_R   0.348454 0.799387 0.215213 0.210287
C31   C     C_R   0.337207 0.780677 0.288663 -0.134595
C32   C     C_R   0.291246 0.648697 0.317767 0.006416
C33   C     C_R   0.813053 0.273121 0.274157 -0.095191
C34   C     C_R   0.868012 0.637682 0.396784 0.521064
C35   C     C_R   0.809268 0.251708 0.201374 -0.116566
C36   C     C_R   0.847911 0.158336 0.174149 0.033122
C37   C     C_R   0.896338 0.090983 0.219851 -0.124661
C38   C     C_R   0.898988 0.111754 0.293021 -0.109170
C39   C     C_R   0.854562 0.200590 0.320079 0.072295
C40   C     C_R   0.957940 0.695138 0.276283 -0.163168
C41   C     C_R   0.941962 0.698476 0.203636 -0.166548
C42   C     C_R   0.808862 0.654670 0.176097 -0.025509
C43   C     C_R   0.690367 0.601411 0.221402 -0.074955
C44   C     C_R   0.705353 0.599522 0.294969 0.210140
C45   C     C_R   0.261163 0.627062 0.393689 0.564476
C46   C     C_R   0.841497 0.648690 0.322453 0.023793
C47   C     C_R   0.815299 0.116042 0.900695 0.532390
C48   C     C_R   0.402392 0.703631 0.894440 0.539713
C49   C     C_R   0.772729 0.732383 0.890765 0.572904
C50   C     C_R   0.808251 0.106218 0.102309 0.543128
C51   C     C_R   0.391023 0.703838 0.102072 0.546497
C52   C     C_R   0.796839 0.693993 0.104287 0.551104
C53   C     C_R   0.863337 0.232720 0.394985 0.538409
C54   C     C_R   0.345720 0.794914 0.707783 0.279817
C55   C     C_R   0.346068 0.794091 0.783080 0.287022
C56   C     C_R   0.367261 0.693824 0.818665 -0.023819
Cr1   Cr    Cr6+3 0.791660 0.390250 0.499930 1.023796
Cr2   Cr    Cr6+3 0.098520 0.708290 0.500540 0.980563
Cr3   Cr    Cr6+3 0.109770 0.401430 0.499480 1.054145
Cr4   Cr    Cr6+3 0.874790 0.925890 0.000070 0.976279
Cr5   Cr    Cr6+3 0.574120 0.948670 0.999300 1.023829
Cr6   Cr    Cr6+3 0.551420 0.625320 0.000920 0.989949
H1    H     H_    0.513369 0.258714 0.882495 0.088759
H2    H     H_    0.611957 0.494613 0.676743 0.132088
H3    H     H_    0.593870 0.510736 0.806562 0.118167
H4    H     H_    0.967661 0.917387 0.801655 0.142745
H5    H     H_    0.015749 0.870136 0.683576 0.149705
H6    H     H_    0.225654 0.460645 0.164786 0.130594
H7    H     H_    0.361528 0.869025 0.323019 0.150495
H8    H     H_    0.782908 0.346120 0.294722 0.140863
H9    H     H_    0.770911 0.303303 0.166730 0.125324
H10   H     H_    0.923666 0.015758 0.199574 0.141197
H11   H     H_    0.931667 0.056363 0.328333 0.101047
H12   H     H_    0.062285 0.729049 0.296608 0.151079
H13   H     H_    0.034075 0.740438 0.169275 0.134945
H14   H     H_    0.587447 0.571625 0.200209 0.149064
H15   H     H_    0.409062 0.525687 0.804174 0.157674
H16   H     H_    0.395213 0.519353 0.676888 0.157589
H17   H     H_    0.316820 0.285623 0.843196 0.104115
H18   H     H_    0.333267 0.294786 0.711819 0.158799
H19   H     H_    0.104406 0.243596 0.901487 0.136915
H20   H     H_    0.754937 0.335244 0.915895 0.133418
O1    O     O_R   0.766500 0.250040 0.579790 -0.471537
O2    O     O_R   0.218690 0.701900 0.425960 -0.540003
O3    O     O_R   0.249490 0.516440 0.419420 -0.452545
O4    O     O_R   0.982880 0.281910 0.424890 -0.485109
O5    O     O_3   0.999980 0.499990 0.499980 -0.277200
O6    O     O_R   0.895110 0.806860 0.920430 -0.542205
O7    O     O_R   0.872260 0.046970 0.925000 -0.528098
O8    O     O_R   0.691430 0.085060 0.918550 -0.501552
O9    O     O_R   0.451490 0.822460 0.925250 -0.469055
O10   O     O_R   0.413330 0.603360 0.920440 -0.545215
O11   O     O_R   0.676110 0.626250 0.926750 -0.511108
O12   O     O_R   0.798570 0.516780 0.574780 -0.467516
O13   O     O_R   0.895350 0.809870 0.080950 -0.523266
O14   O     O_R   0.872490 0.049760 0.073800 -0.517625
O15   O     O_R   0.691680 0.088070 0.079070 -0.497859
O16   O     O_R   0.451720 0.825250 0.074050 -0.485562
O17   O     O_R   0.413580 0.606370 0.080960 -0.531930
O18   O     O_R   0.676340 0.629040 0.075550 -0.502640
O19   O     O_3   0.666780 0.833290 0.000090 -0.265175
O20   O     O_R   0.984000 0.732950 0.581090 -0.531427
O21   O     O_R   0.218600 0.700890 0.574760 -0.477594
O22   O     O_R   0.249390 0.515350 0.579940 -0.487811
O23   O     O_R   0.982790 0.280900 0.573700 -0.451634
O24   O     O_R   0.766600 0.251130 0.419260 -0.532301
O25   O     O_R   0.798660 0.517790 0.425980 -0.502396
O26   O     O_R   0.984100 0.734040 0.420570 -0.539351
O27   O     O_3   0.336181 0.898802 0.671519 -0.499308
C57   C     C_3   0.447606 0.963070 0.620658 0.065530
H21   H     H_    0.476447 0.891703 0.593188 0.083800
H22   H     H_    0.544433 0.039732 0.647904 0.192602
C58   C     C_3   0.407936 0.031818 0.562135 -0.323775
H23   H     H_    0.320078 0.951704 0.529701 0.153034
H24   H     H_    0.374094 0.101953 0.585475 0.147525
H25   H     H_    0.499550 0.092943 0.526326 0.131668
O28   O     O_3   0.409504 0.148098 0.752338 -0.700256
H26   H     H_    0.351336 0.117817 0.796077 0.352386
O29   O     O_3   0.623062 0.289958 0.651746 -0.684273
H27   H     H_    0.527963 0.279062 0.649763 0.326403
O30   O     O_3   0.192874 0.398043 0.300908 -0.524072
C59   C     C_3   0.263659 0.328999 0.275052 0.019304
H28   H     H_    0.371536 0.401198 0.254284 0.162218
H29   H     H_    0.201186 0.256551 0.231292 0.122038
C60   C     C_3   0.277709 0.245016 0.335237 -0.327680
H30   H     H_    0.172594 0.168090 0.356582 0.133245
H31   H     H_    0.330618 0.188394 0.315046 0.112984
H32   H     H_    0.341408 0.315790 0.379238 0.189864
O31   O     O_3   0.390566 0.930981 0.189599 -0.682266
H33   H     H_    0.340798 0.919904 0.143962 0.326771
O32   O     O_3   0.339868 0.898644 0.820592 -0.518616
C61   C     C_3   0.212041 0.842180 0.859643 0.013696
H34   H     H_    0.179260 0.738502 0.883724 0.108265
H35   H     H_    0.126662 0.829266 0.823692 0.158163
C62   C     C_3   0.228330 0.941511 0.920440 -0.349978
H36   H     H_    0.219262 0.030490 0.900099 0.107663
H37   H     H_    0.145236 0.885873 0.961348 0.138771
H38   H     H_    0.332197 0.982235 0.946649 0.165372
O33   O     O_3   0.587015 0.555828 0.337233 -0.729781
H39   H     H_    0.615042 0.579717 0.387727 0.330100
O34   O     O_3   0.148457 0.244629 0.623796 -0.522418
C63   C     C_3   0.103179 0.104911 0.605439 -0.010013
H40   H     H_    0.989366 0.036301 0.618391 0.130375
H41   H     H_    0.167906 0.069085 0.633697 0.152061
C64   C     C_3   0.122495 0.094605 0.525467 -0.356045
H42   H     H_    0.232212 0.170850 0.509286 0.123356
H43   H     H_    0.100108 0.987878 0.511635 0.122774
H44   H     H_    0.048946 0.116168 0.495374 0.172508

loop_
_geom_bond_atom_site_label_1
_geom_bond_atom_site_label_2
_ccdc_geom_bond_type
C8    C9    A    
C62   H38   S    
C55   C56   A    
C41   C42   A    
C14   C18   A    
C19   C23   S    
Cr5   O16   S    
C25   H5    S    
Cr2   O5    S    
C64   H42   S    
C27   O30   S    
C7    C8    A    
C39   C53   S    
Cr4   O7    S    
C40   C46   A    
C5    C47   S    
C33   C39   A    
C23   O1    A    
C34   O25   A    
C36   C37   A    
C28   H6    S    
C37   C38   A    
C5    C11   A    
C38   C39   A    
C15   C16   A    
C23   O23   A    
C52   O13   A    
C48   C56   S    
C32   C45   S    
C57   H21   S    
C33   C35   A    
C53   O24   A    
C35   C36   A    
C15   O29   S    
C61   H34   S    
C48   O9    A    
Cr6   O10   S    
C60   H32   S    
Cr1   O1    S    
C53   O4    A    
C34   C46   S    
C4    C12   S    
C9    C10   A    
Cr2   O26   S    
C24   H4    S    
Cr6   O19   S    
C21   H3    S    
C51   O16   A    
Cr1   O24   S    
C35   H9    S    
C6    H19   S    
C13   C14   A    
C51   O17   A    
C47   O7    A    
C63   C64   S    
C64   H43   S    
C44   C46   A    
Cr3   O5    S    
Cr4   O6    S    
C1    C26   S    
C13   C19   A    
C62   H36   S    
C24   C25   A    
C12   O21   A    
C16   O28   S    
C6    C11   A    
C9    O34   S    
C16   C17   A    
C25   C26   A    
C52   O18   A    
Cr1   O5    S    
C54   O27   S    
C20   H2    S    
Cr5   O19   S    
C43   C44   A    
Cr3   O3    S    
C29   C30   A    
Cr2   O2    S    
C41   H13   S    
C31   C32   A    
C10   C19   A    
O29   H27   S    
C8    H18   S    
C17   C18   A    
C5    C14   A    
Cr3   O23   S    
C57   C58   S    
O30   C59   S    
C33   H8    S    
C22   C49   S    
Cr6   O18   S    
Cr4   O14   S    
C40   C41   A    
Cr1   O25   S    
C44   O33   S    
C55   O32   S    
Cr1   O12   S    
C13   C15   A    
C60   H30   S    
C47   O8    A    
C22   C24   A    
C37   H10   S    
C45   O2    A    
C42   C43   A    
Cr3   O22   S    
C59   H29   S    
Cr4   O19   S    
C64   H44   S    
C36   C50   S    
Cr5   O8    S    
C7    H17   S    
C58   H23   S    
C29   C51   S    
C43   H14   S    
C62   H37   S    
C54   C55   A    
C28   C29   A    
C50   O15   A    
C4    C54   A    
C27   C32   A    
Cr5   O15   S    
C1    O12   A    
O33   H39   S    
C12   O22   A    
C6    C7    A    
C30   O31   S    
C49   O6    A    
O28   H26   S    
C45   O3    A    
C34   O26   A    
C58   H25   S    
C59   C60   S    
C2    C3    A    
O31   H33   S    
Cr3   O4    S    
C2    H15   S    
C2    C56   A    
O34   C63   S    
C17   H1    S    
C50   O14   A    
C30   C31   A    
C20   C26   A    
C61   C62   S    
Cr2   O20   S    
C18   H20   S    
C40   H12   S    
C63   H41   S    
O32   C61   S    
C57   H22   S    
C10   C11   A    
Cr6   O17   S    
Cr4   O13   S    
Cr5   O9    S    
C31   H7    S    
C20   C21   A    
C61   H35   S    
C48   O10   A    
Cr6   O11   S    
O27   C57   S    
C27   C28   A    
C60   H31   S    
C63   H40   S    
Cr2   O21   S    
C49   O11   A    
C59   H28   S    
C21   C22   A    
C3    H16   S    
C1    O20   A    
C3    C4    A    
C42   C52   S    
C58   H24   S    
C38   H11   S    
