data_mof_unit_4017.cif
_audit_creation_date              2013-03-05T16:34:52-0500
_audit_creation_method            fapswitch 2.2
_symmetry_space_group_name_H-M    P1
_symmetry_Int_Tables_number       1
_space_group_crystal_system       triclinic
_cell_length_a                    15.07056
_cell_length_b                    9.256334
_cell_length_c                    7.786867
_cell_angle_alpha                 90.000119
_cell_angle_beta                  89.999981
_cell_angle_gamma                 87.708849
_cell_volume                      1085.38506771

loop_
_atom_site_label
_atom_site_type_symbol
_atom_site_description
_atom_site_fract_x
_atom_site_fract_y
_atom_site_fract_z
_atom_type_partial_charge
O1    O     O_R   0.500000 0.288390 0.642760 -0.572614
O2    O     O_R   0.500000 0.711610 0.357240 -0.574812
O3    O     O_R   0.500000 0.711610 0.642760 -0.572612
O4    O     O_R   0.500000 0.288390 0.357240 -0.574810
C1    C     C_R   0.500365 0.219748 0.500002 0.900477
C2    C     C_R   0.499635 0.780252 0.500002 0.900476
O5    O     O_R   0.370260 0.500000 0.642800 -0.566681
O6    O     O_R   0.629740 0.500000 0.357200 -0.572081
O7    O     O_R   0.629740 0.500000 0.642800 -0.566682
O8    O     O_R   0.370260 0.500000 0.357200 -0.572082
C3    C     C_R   0.328717 0.506001 0.499985 0.933076
C4    C     C_R   0.671283 0.493999 0.499985 0.933077
Cu1   Cu    Cu3+1 0.500000 0.500000 0.669080 1.103563
Cu2   Cu    Cu3+1 0.500000 0.500000 0.330920 1.097561
N1    N     N_1   0.500000 0.500000 0.076820 -0.031138
N2    N     N_1   0.500000 0.500000 0.923180 -0.030507
C5    C     C_R   0.808278 0.627330 0.501607 0.341494
C6    C     C_R   0.191722 0.372669 0.501602 0.341494
C7    C     C_R   0.817208 0.363607 0.498942 0.280438
C8    C     C_R   0.182792 0.636393 0.498949 0.280422
C9    C     C_R   0.767429 0.494654 0.499773 -0.228737
C10   C     C_R   0.232571 0.505346 0.499773 -0.228728
C11   C     C_R   0.910808 0.365231 0.489645 -0.097365
C12   C     C_R   0.089192 0.634769 0.489648 -0.097370
C13   C     C_R   0.901657 0.629764 0.508444 -0.058794
C14   C     C_R   0.098343 0.370235 0.508440 -0.058792
C15   C     C_R   0.952975 0.498763 0.498043 -0.121895
C16   C     C_R   0.047025 0.501236 0.498043 -0.121889
C17   C     C_R   0.964360 0.237059 0.482014 0.324585
C18   C     C_R   0.035640 0.762940 0.482015 0.324593
C19   C     C_R   0.945482 0.759496 0.523887 0.450521
C20   C     C_R   0.054518 0.240503 0.523883 0.450512
C21   C     C_1   0.500137 0.065032 0.500007 -0.041031
C22   C     C_1   0.499863 0.934968 0.500007 -0.041031
O9    O     O_3   0.934461 0.111310 0.413602 -0.607265
H1    H     H_    0.892594 0.137580 0.319369 0.374866
O10   O     O_3   0.065537 0.888688 0.413598 -0.607274
H2    H     H_    0.107416 0.862417 0.319383 0.374871
O11   O     O_3   0.900351 0.880601 0.585136 -0.571634
H3    H     H_    0.942160 0.934625 0.655925 0.346206
O12   O     O_3   0.099650 0.119398 0.585130 -0.571637
H4    H     H_    0.057841 0.065374 0.655920 0.346209
Cl1   Cl    Cl    0.739710 0.787502 0.480728 -0.486933
Cl2   Cl    Cl    0.260290 0.212498 0.480715 -0.486939
Cl3   Cl    Cl    0.760256 0.201373 0.531302 -0.521548
Cl4   Cl    Cl    0.239743 0.798625 0.531326 -0.521560

loop_
_geom_bond_atom_site_label_1
_geom_bond_atom_site_label_2
_geom_bond_distance
_ccdc_geom_bond_type
C13   C19   1.398609 A    
C7    C11   1.413138 A    
C20   O12   1.373217 S    
C5    Cl1   1.780419 S    
C14   C20   1.398607 A    
O10   H2    0.991676 S    
C6    Cl2   1.780420 S    
C13   C15   1.414241 A    
O12   H4    0.987983 S    
C17   O9    1.372434 S    
C3    C10   1.449235 S    
C14   C16   1.414241 A    
O9    H1    0.991666 S    
O3    Cu1   1.969427 S    
O6    C4    1.276121 A    
O3    C2    1.280308 A    
C5    C13   1.409363 A    
C7    Cl3   1.777160 S    
C21   C22   1.204094 T    
Cu1   Cu2   2.633208 S    
O5    C3    1.276323 A    
O2    C2    1.280335 A    
O1    C1    1.280308 A    
C11   C17   1.409208 A    
C7    C9    1.400528 A    
C8    C10   1.400527 A    
C17   C20   1.398901 A    
C11   C15   1.413743 A    
C1    C21   1.432239 S    
O4    Cu2   1.969427 S    
C18   C19   1.398901 A    
O2    Cu2   1.969426 S    
O7    C4    1.276323 A    
C12   C18   1.409207 A    
O1    Cu1   1.969427 S    
O8    C3    1.276121 A    
N1    N2    1.196375 T    
C12   C16   1.413743 A    
O5    Cu1   1.965936 S    
O8    Cu2   1.965936 S    
Cu1   N2    1.978642 S    
O11   H3    0.987983 S    
O7    Cu1   1.965934 S    
Cu2   N1    1.978642 S    
O6    Cu2   1.965934 S    
C6    C10   1.395654 A    
C4    C9    1.449235 S    
C8    C12   1.413136 A    
C5    C9    1.395653 A    
C2    C22   1.432239 S    
C18   O10   1.372437 S    
C19   O11   1.373218 S    
O4    C1    1.280336 A    
C15   C16   1.418490 A    
C8    Cl4   1.777161 S    
C6    C14   1.409364 A    
