data_mof_unit_3969.cif
_audit_creation_date              2012-12-10T18:01:16-0500
_audit_creation_method            fapswitch 2.2
_symmetry_space_group_name_H-M    P1
_symmetry_Int_Tables_number       1
_space_group_crystal_system       triclinic
_cell_length_a                    9.52406
_cell_length_b                    10.845453
_cell_length_c                    17.300704
_cell_angle_alpha                 91.19023
_cell_angle_beta                  85.457451
_cell_angle_gamma                 90.502177
_cell_volume                      1780.99395361

loop_
_atom_site_label
_atom_site_type_symbol
_atom_type_description
_atom_site_fract_x
_atom_site_fract_y
_atom_site_fract_z
_atom_type_partial_charge
C1    C     C_R   0.500606 0.737799 0.501258 0.857608
C2    C     C_R   0.499382 0.262128 0.500104 0.835098
C3    C     C_R   0.614255 0.938654 0.531303 0.521894
C4    C     C_R   0.385504 0.060598 0.473674 0.519026
C5    C     C_R   0.610249 0.067502 0.531090 -0.375511
C6    C     C_R   0.389536 0.932508 0.473038 -0.347527
C7    C     C_R   0.498473 0.128188 0.500831 -0.184736
C8    C     C_R   0.501953 0.871612 0.502260 -0.183718
C9    C     C_R   0.918306 0.572860 0.551172 -0.266646
C10   C     C_R   0.081103 0.427768 0.448435 -0.250649
C11   C     C_R   0.068730 0.572655 0.552476 0.602070
C12   C     C_R   0.931215 0.425347 0.449266 0.610365
C13   C     C_R   0.481041 0.493997 0.650103 0.865597
C14   C     C_R   0.518686 0.501761 0.349629 0.876855
C15   C     C_R   0.471273 0.475171 0.734485 -0.266091
C16   C     C_R   0.525430 0.509752 0.264467 -0.257819
C17   C     C_R   0.596777 0.468417 0.771632 -0.385088
C18   C     C_R   0.399299 0.492705 0.228550 -0.350755
C19   C     C_R   0.594472 0.454892 0.852030 0.468221
C20   C     C_R   0.394630 0.506327 0.149303 0.447603
C21   C     C_R   0.463605 0.446023 0.895203 -0.152734
C22   C     C_R   0.519104 0.534141 0.103627 -0.130684
C23   C     C_R   0.336784 0.445384 0.858458 0.378634
C24   C     C_R   0.644815 0.558631 0.138762 0.374083
C25   C     C_R   0.340612 0.457720 0.777836 0.406637
C26   C     C_R   0.650615 0.539626 0.219017 0.367146
C27   C     C_2   0.459163 0.444902 0.979830 -0.023974
C28   C     C_2   0.519946 0.535871 0.018875 -0.062133
Cu1   Cu    Cu3+1 0.359340 0.499980 0.500000 1.001559
Cu2   Cu    Cu3+1 0.640660 0.500020 0.500000 1.006981
H1    H     H_    0.697178 0.472784 0.737872 0.191338
H2    H     H_    0.302038 0.469083 0.261929 0.201421
H3    H     H_    0.577966 0.608604 0.987685 0.165803
H4    H     H_    0.404895 0.369586 0.010119 0.167592
N1    N     N_R   0.147930 0.499970 0.499980 -0.216311
N2    N     N_R   0.852070 0.500030 0.500020 -0.208872
O1    O     O_R   0.381260 0.680340 0.500000 -0.558201
O2    O     O_R   0.618740 0.319660 0.500000 -0.574176
O3    O     O_R   0.618830 0.680370 0.500010 -0.543879
O4    O     O_R   0.381170 0.319630 0.499990 -0.554568
O5    O     O_R   0.367440 0.500000 0.613600 -0.505323
O6    O     O_R   0.632560 0.500000 0.386400 -0.490956
O7    O     O_R   0.605010 0.500030 0.613600 -0.608064
O8    O     O_R   0.394990 0.499970 0.386400 -0.608975
O9    O     O_3   0.775198 0.559453 0.253727 -0.565686
C29   C     C_3   0.868460 0.461687 0.232745 -0.167056
H5    H     H_    0.818770 0.370244 0.245493 0.164966
H6    H     H_    0.961707 0.471573 0.266990 0.187013
H7    H     H_    0.908196 0.464612 0.170800 0.184485
O10   O     O_3   0.215115 0.460782 0.742937 -0.546825
C30   C     C_3   0.180310 0.339898 0.718908 -0.272039
H8    H     H_    0.265616 0.297703 0.679516 0.147204
H9    H     H_    0.084881 0.344086 0.686220 0.167422
H10   H     H_    0.155302 0.279757 0.769340 0.147566
O11   O     O_3   0.207684 0.448676 0.901399 -0.549275
C31   C     C_3   0.168423 0.329501 0.927304 -0.301280
H11   H     H_    0.159279 0.330422 0.991641 0.206880
H12   H     H_    0.241631 0.254030 0.906132 0.113043
H13   H     H_    0.062702 0.306768 0.908035 0.193477
O12   O     O_3   0.764702 0.591896 0.093326 -0.570368
C32   C     C_3   0.781957 0.720874 0.099133 -0.341579
H14   H     H_    0.688788 0.770020 0.080200 0.146705
H15   H     H_    0.874596 0.748047 0.060106 0.179488
H16   H     H_    0.802924 0.750753 0.159058 0.195970
O13   O     O_3   0.268179 0.487771 0.116487 -0.586107
C33   C     C_3   0.196656 0.601081 0.117532 -0.296419
H17   H     H_    0.260223 0.672781 0.085186 0.158641
H18   H     H_    0.167039 0.633539 0.178046 0.158837
H19   H     H_    0.098059 0.587407 0.088233 0.217786
O14   O     O_3   0.716858 0.440220 0.889918 -0.564594
C34   C     C_3   0.822349 0.526409 0.865483 -0.265152
H20   H     H_    0.778891 0.619362 0.855644 0.134392
H21   H     H_    0.884657 0.491176 0.812803 0.173024
H22   H     H_    0.895816 0.537331 0.911862 0.232311
O15   O     O_3   0.719273 0.876925 0.565840 -0.568705
C35   C     C_3   0.853302 0.914521 0.533934 -0.344420
H23   H     H_    0.887089 0.000266 0.563529 0.149621
H24   H     H_    0.856719 0.926387 0.469936 0.155378
H25   H     H_    0.930768 0.842368 0.544219 0.195783
O16   O     O_3   0.273384 0.120330 0.445383 -0.566272
C36   C     C_3   0.149398 0.096958 0.493342 -0.372981
H26   H     H_    0.165070 0.051261 0.549286 0.152228
H27   H     H_    0.078189 0.039151 0.460022 0.168344
H28   H     H_    0.097611 0.185989 0.509005 0.181397
H29   H     H_    0.692313 0.120551 0.556500 0.172714
H30   H     H_    0.303946 0.880997 0.449646 0.189825
H31   H     H_    0.853604 0.632011 0.589993 0.187579
H32   H     H_    0.144027 0.373052 0.406012 0.185664
O17   O     O_3   0.140609 0.650344 0.601212 -0.538231
C37   C     C_3   0.062734 0.678473 0.672159 -0.297712
H33   H     H_    0.005747 0.596624 0.697077 0.168106
H34   H     H_    0.988840 0.755234 0.665083 0.142388
H35   H     H_    0.137203 0.710459 0.714613 0.212284
O18   O     O_3   0.863290 0.358583 0.394137 -0.553574
C38   C     C_3   0.892973 0.232034 0.397890 -0.390534
H36   H     H_    0.818295 0.180209 0.363119 0.195047
H37   H     H_    0.876626 0.198276 0.458207 0.156818
H38   H     H_    0.000724 0.211588 0.371840 0.178279

loop_
_geom_bond_atom_site_label_1
_geom_bond_atom_site_label_2
_ccdc_geom_bond_type
C33   H18   S    
O11   C31   S    
C1    C8    S    
C2    C7    S    
C35   H25   S    
C13   O5    A    
C36   H26   S    
C38   H38   S    
O9    C29   S    
C29   H7    S    
C10   H32   S    
C19   C21   A    
C24   C26   A    
C4    O16   S    
C15   C25   A    
C33   H19   S    
C31   H11   S    
Cu2   O2    S    
C32   H15   S    
C11   O17   S    
C25   O10   S    
C26   O9    S    
C38   H36   S    
C9    N2    A    
C10   N1    A    
C12   N2    A    
C3    O15   S    
C18   C20   A    
C1    O1    A    
C14   O6    A    
C5    H29   S    
C33   H17   S    
C21   C27   S    
C22   C28   S    
C12   O18   S    
O18   C38   S    
C4    C7    A    
C36   H27   S    
C27   H4    S    
C16   C26   A    
C29   H6    S    
C30   H8    S    
C20   O13   S    
C35   H23   S    
C4    C6    A    
C3    C8    A    
C5    C7    A    
C6    C8    A    
O12   C32   S    
C30   H9    S    
C32   H16   S    
O15   C35   S    
Cu1   Cu2   S    
C2    O2    A    
C37   H34   S    
C24   O12   S    
O10   C30   S    
C9    C11   A    
O14   C34   S    
C10   C12   A    
C20   C22   A    
C28   H3    S    
C13   C15   S    
Cu1   O8    S    
C17   H1    S    
C14   C16   S    
Cu2   O7    S    
C18   H2    S    
Cu1   O1    S    
C13   O7    A    
C36   H28   S    
C37   H35   S    
C14   O8    A    
C15   C17   A    
C29   H5    S    
Cu1   O5    S    
C35   H24   S    
O16   C36   S    
C3    C5    A    
C34   H22   S    
C38   H37   S    
C23   O11   S    
Cu1   N1    S    
C6    H30   S    
C31   H13   S    
Cu2   N2    S    
C30   H10   S    
C21   C23   A    
C34   H20   S    
C9    H31   S    
C37   H33   S    
Cu1   O4    S    
C11   N1    A    
C17   C19   A    
C31   H12   S    
Cu2   O3    S    
C22   C24   A    
C23   C25   A    
C32   H14   S    
C1    O3    A    
C2    O4    A    
C16   C18   A    
O13   C33   S    
C34   H21   S    
C27   C28   D    
Cu2   O6    S    
C19   O14   S    
O17   C37   S    
