data_mof_unit_172.cif
_audit_creation_date              2012-10-26T19:22:35-0400
_audit_creation_method            fapswitch 2.2
_symmetry_space_group_name_H-M    P1
_symmetry_Int_Tables_number       1
_space_group_crystal_system       triclinic
_cell_length_a                    11.834266
_cell_length_b                    12.977484
_cell_length_c                    13.841822
_cell_angle_alpha                 85.789846
_cell_angle_beta                  92.686706
_cell_angle_gamma                 100.693685
_cell_volume                      2082.05817422

loop_
_atom_site_label
_atom_site_type_symbol
_atom_type_description
_atom_site_fract_x
_atom_site_fract_y
_atom_site_fract_z
_atom_type_partial_charge
C1    C     C_R   0.476485 0.299208 0.496036 0.549990
C2    C     C_R   0.852352 0.469577 0.551333 0.108229
C3    C     C_R   0.027275 0.526384 0.459222 -0.028874
C4    C     C_R   0.972725 0.473615 0.540778 -0.028874
C5    C     C_R   0.519629 0.501151 0.681612 0.555947
C6    C     C_R   0.480371 0.498848 0.318388 0.555946
C7    C     C_1   0.467160 0.497687 0.215819 -0.021637
C8    C     C_1   0.532840 0.502313 0.784181 -0.021636
C9    C     C_2   0.451439 0.496932 0.025208 -0.010422
C10   C     C_2   0.548561 0.503068 0.974792 -0.010422
C11   C     C_1   0.541545 0.502932 0.870779 -0.064453
C12   C     C_R   0.523515 0.700792 0.503963 0.549989
C13   C     C_1   0.458455 0.497067 0.129221 -0.064453
C14   C     C_R   0.540605 0.815487 0.510649 -0.005606
C15   C     C_R   0.459395 0.184513 0.489351 -0.005606
C16   C     C_R   0.346046 0.007988 0.507388 -0.144360
C17   C     C_R   0.653954 0.992012 0.492612 -0.144360
C18   C     C_R   0.349957 0.116644 0.496005 -0.010035
C19   C     C_R   0.650043 0.883356 0.503995 -0.010034
C20   C     C_R   0.557879 0.140962 0.480690 -0.150305
C21   C     C_R   0.442121 0.859038 0.519310 -0.150305
C22   C     C_R   0.664662 0.506194 0.022265 0.041118
C23   C     C_R   0.553083 0.033326 0.492391 0.028583
C24   C     C_R   0.756554 0.586338 0.993970 -0.105692
C25   C     C_R   0.867268 0.586683 0.034289 -0.127465
C26   C     C_R   0.887330 0.507084 0.102937 -0.125479
C27   C     C_R   0.796705 0.426961 0.131403 -0.129345
C28   C     C_R   0.685971 0.425974 0.090934 -0.091744
C29   C     C_R   0.335338 0.493806 0.977736 0.041118
C30   C     C_R   0.243446 0.413662 0.006030 -0.105691
C31   C     C_R   0.132732 0.413316 0.965711 -0.127465
C32   C     C_R   0.112670 0.492916 0.897063 -0.125478
C33   C     C_R   0.203295 0.573038 0.868597 -0.129344
C34   C     C_R   0.446916 0.966674 0.507609 0.028583
C35   C     C_R   0.314029 0.574026 0.909066 -0.091744
C36   C     C_R   0.762099 0.846709 0.515378 0.077075
C37   C     C_R   0.847408 0.879661 0.446484 -0.050233
C38   C     C_R   0.955097 0.849926 0.459850 -0.109444
C39   C     C_R   0.979243 0.788401 0.542594 -0.108480
C40   C     C_R   0.896039 0.757048 0.612400 -0.103871
C41   C     C_R   0.788210 0.786565 0.599397 -0.058919
C42   C     C_R   0.237901 0.153291 0.484622 0.077075
C43   C     C_R   0.211789 0.213435 0.400603 -0.058919
C44   C     C_R   0.103960 0.242951 0.387600 -0.103872
C45   C     C_R   0.039492 0.424847 0.609675 -0.199871
C46   C     C_R   0.020757 0.211599 0.457407 -0.108480
C47   C     C_R   0.044904 0.150074 0.540151 -0.109445
C48   C     C_R   0.152592 0.120339 0.553516 -0.050234
C49   C     C_R   0.797665 0.406130 0.635490 0.091651
C50   C     C_R   0.803479 0.449170 0.726293 -0.090732
C51   C     C_R   0.767946 0.384921 0.808936 -0.128256
C52   C     C_R   0.727675 0.277441 0.801939 -0.106856
C53   C     C_R   0.726931 0.233317 0.712821 -0.116760
C54   C     C_R   0.764845 0.297095 0.630655 -0.075435
C55   C     C_R   0.202335 0.593870 0.364510 0.091651
C56   C     C_R   0.960508 0.575153 0.390325 -0.199871
C57   C     C_R   0.235155 0.702905 0.369345 -0.075435
C58   C     C_R   0.273069 0.766683 0.287179 -0.116760
C59   C     C_R   0.272324 0.722558 0.198060 -0.106856
C60   C     C_R   0.232054 0.615078 0.191063 -0.128256
C61   C     C_R   0.196521 0.550829 0.273707 -0.090732
C62   C     C_2   0.786340 0.629554 0.324085 0.275440
C63   C     C_2   0.213659 0.370446 0.675915 0.275439
C64   C     C_R   0.156333 0.426777 0.597065 0.159556
C65   C     C_R   0.843667 0.573223 0.402935 0.159557
C66   C     C_R   0.147648 0.530423 0.448667 0.108229
Cu1   Cu    Cu3+1 0.615220 0.507680 0.492970 0.999649
Cu2   Cu    Cu3+1 0.384780 0.492320 0.507030 0.999649
H1    H     H_    0.360580 0.809021 0.534615 0.114227
H2    H     H_    0.812440 0.365156 0.184356 0.102801
H3    H     H_    0.617333 0.361903 0.112060 0.105754
H4    H     H_    0.257457 0.351903 0.059759 0.101476
H5    H     H_    0.062342 0.351558 0.988008 0.110128
H6    H     H_    0.026952 0.492553 0.865990 0.110420
H7    H     H_    0.187559 0.634843 0.815643 0.102801
H8    H     H_    0.382667 0.638096 0.887940 0.105754
H9    H     H_    0.830183 0.927741 0.382130 0.112185
H10   H     H_    0.019934 0.874747 0.406141 0.101376
H11   H     H_    0.062572 0.765389 0.552831 0.097532
H12   H     H_    0.639419 0.190978 0.465385 0.114227
H13   H     H_    0.915570 0.710655 0.677034 0.087687
H14   H     H_    0.725213 0.762927 0.654861 0.089250
H15   H     H_    0.274786 0.237073 0.345139 0.089250
H16   H     H_    0.084430 0.289345 0.322966 0.087687
H17   H     H_    0.937428 0.234611 0.447170 0.097532
H18   H     H_    0.980066 0.125254 0.593860 0.101376
H19   H     H_    0.169818 0.072259 0.617871 0.112185
H20   H     H_    0.836664 0.531875 0.733140 0.089811
H21   H     H_    0.772995 0.418111 0.878594 0.131627
H22   H     H_    0.700088 0.227985 0.866029 0.112476
H23   H     H_    0.263662 0.955192 0.513480 0.089428
H24   H     H_    0.700358 0.149377 0.707935 0.111442
H25   H     H_    0.774231 0.261465 0.564265 0.083816
H26   H     H_    0.225769 0.738535 0.435734 0.083816
H27   H     H_    0.299641 0.850622 0.292065 0.111442
H28   H     H_    0.299912 0.772015 0.133971 0.112476
H29   H     H_    0.227005 0.581889 0.121406 0.131627
H30   H     H_    0.163336 0.468125 0.266860 0.089810
H31   H     H_    0.803797 0.619813 0.249398 0.088017
H32   H     H_    0.196200 0.380184 0.750602 0.088016
H33   H     H_    0.736338 0.044808 0.486520 0.089428
H34   H     H_    0.001296 0.382755 0.674092 0.092912
H35   H     H_    0.998704 0.617245 0.325907 0.092913
H36   H     H_    0.742544 0.648096 0.940241 0.101476
H37   H     H_    0.937658 0.648442 0.011993 0.110128
H38   H     H_    0.973047 0.507446 0.134010 0.110420
N1    N     N_R   0.788370 0.519230 0.482390 -0.230945
N2    N     N_R   0.211630 0.480770 0.517610 -0.230944
O1    O     O_R   0.581500 0.354430 0.495010 -0.520438
O2    O     O_2   0.273093 0.306986 0.659813 -0.482935
O3    O     O_R   0.418500 0.645570 0.504990 -0.520438
O4    O     O_R   0.386890 0.341450 0.506880 -0.437848
O5    O     O_R   0.613110 0.658550 0.493120 -0.437848
O6    O     O_R   0.611060 0.507430 0.631070 -0.504626
O7    O     O_R   0.388940 0.492570 0.368930 -0.504625
O8    O     O_R   0.416450 0.494450 0.642940 -0.478534
O9    O     O_R   0.583550 0.505550 0.357060 -0.478536
O10   O     O_2   0.726908 0.693015 0.340187 -0.482937

loop_
_geom_bond_atom_site_label_1
_geom_bond_atom_site_label_2
_ccdc_geom_bond_type
C15   C18   A    
C5    O6    A    
C43   H15   S    
C52   H22   S    
C61   H30   S    
C43   C44   A    
C26   H38   S    
C25   H37   S    
C53   C54   A    
C10   C22   S    
C26   C27   A    
C29   C30   A    
C14   C21   A    
C36   C37   A    
Cu1   O6    S    
C19   C36   S    
C18   C42   S    
C1    O4    A    
C32   H6    S    
C30   C31   A    
C31   H5    S    
C49   C54   A    
C2    N1    A    
Cu2   O4    S    
C9    C13   S    
C54   H25   S    
C17   H33   S    
C16   C34   A    
Cu1   O1    S    
C31   C32   A    
C1    C15   S    
C9    C10   D    
C6    O9    A    
C9    C29   S    
C46   H17   S    
C1    O1    A    
C59   C60   A    
C22   C28   A    
C36   C41   A    
C40   H13   S    
C44   C46   A    
C64   N2    A    
C4    C45   A    
C15   C20   A    
C35   H8    S    
C20   H12   S    
Cu1   Cu2   S    
C47   H18   S    
C24   C25   A    
C60   H29   S    
C10   C11   S    
C39   C40   A    
C17   C19   A    
C42   C48   A    
C21   C34   A    
C38   H10   S    
C63   H32   S    
C58   C59   A    
C37   H9    S    
C51   C52   A    
C21   H1    S    
C60   C61   A    
C24   H36   S    
Cu2   O3    S    
C39   H11   S    
C2    C4    A    
C58   H27   S    
C37   C38   A    
C2    C49   S    
C3    C56   A    
C47   C48   A    
C20   C23   A    
C23   C34   A    
C53   H24   S    
C50   C51   A    
C48   H19   S    
C17   C23   A    
Cu1   O9    S    
C27   H2    S    
Cu2   O8    S    
C40   C41   A    
C12   C14   S    
C57   H26   S    
C55   C57   A    
C5    O8    A    
C22   C24   A    
C28   H3    S    
C33   H7    S    
C42   C43   A    
C3    C4    A    
C55   C66   S    
C52   C53   A    
C12   O5    A    
C46   C47   A    
C62   C65   S    
C14   C19   A    
C56   H35   S    
C66   N2    A    
C44   H16   S    
C5    C8    S    
C30   H4    S    
C6    C7    S    
C50   H20   S    
C29   C35   A    
C45   C64   A    
C32   C33   A    
C63   O2    D    
C25   C26   A    
C51   H21   S    
C62   H31   S    
Cu1   N1    S    
C57   C58   A    
C38   C39   A    
C8    C11   T    
C41   H14   S    
C55   C61   A    
C33   C35   A    
Cu1   O5    S    
C6    O7    A    
C62   O10   D    
C45   H34   S    
Cu2   O7    S    
C63   C64   S    
C3    C66   A    
C7    C13   T    
C16   H23   S    
C16   C18   A    
C49   C50   A    
C59   H28   S    
C27   C28   A    
Cu2   N2    S    
C65   N1    A    
C12   O3    A    
C56   C65   A    
