data_mof_unit_3502.cif
_audit_creation_date              2012-12-11T17:07:29-0500
_audit_creation_method            fapswitch 2.2
_symmetry_space_group_name_H-M    P1
_symmetry_Int_Tables_number       1
_space_group_crystal_system       triclinic
_cell_length_a                    7.002034
_cell_length_b                    14.563279
_cell_length_c                    16.069135
_cell_angle_alpha                 90.095357
_cell_angle_beta                  89.786456
_cell_angle_gamma                 90.235819
_cell_volume                      1638.5835818

loop_
_atom_site_label
_atom_site_type_symbol
_atom_type_description
_atom_site_fract_x
_atom_site_fract_y
_atom_site_fract_z
_atom_type_partial_charge
O1    O     O_R   0.505720 0.583900 0.413310 -0.513726
O2    O     O_R   0.175940 0.594920 0.586080 -0.551498
O3    O     O_R   0.005640 0.416100 0.586690 -0.540979
C1    C     C_R   0.344416 0.615677 0.615578 0.683397
O4    O     O_R   0.176000 0.594930 0.413930 -0.545350
O5    O     O_R   0.005700 0.416110 0.413310 -0.525233
C2    C     C_R   0.345442 0.616402 0.385033 0.772124
O6    O     O_R   0.505660 0.583890 0.586690 -0.541949
O7    O     O_3   0.339200 0.441330 0.500000 -0.368097
V1    V     V_3+5 0.064350 0.510880 0.500000 1.441142
O8    O     O_R   0.675980 0.405080 0.413920 -0.533146
C3    C     C_R   0.844967 0.382807 0.385549 0.738165
O9    O     O_R   0.675920 0.405070 0.586070 -0.543639
C4    C     C_R   0.844290 0.383200 0.614178 0.676696
V2    V     V_3+5 0.564340 0.489120 0.500000 1.468133
O10   O     O_3   0.839360 0.558670 0.500000 -0.376632
H1    H     H_    0.696436 0.078257 0.510049 0.135635
C5    C     C_R   0.946478 0.441307 0.777475 -0.159535
C6    C     C_R   0.979197 0.476294 0.856140 -0.189925
C7    C     C_R   0.967413 0.419156 0.924314 -0.030783
C8    C     C_R   0.930558 0.325368 0.915050 0.182420
C9    C     C_R   0.905874 0.285141 0.833638 0.012668
C10   C     C_R   0.903941 0.347219 0.764618 0.049349
C11   C     C_R   0.882803 0.188016 0.817908 -0.160602
C12   C     C_R   0.848405 0.156562 0.734202 0.026871
C13   C     C_R   0.818281 0.222357 0.669713 0.041555
C14   C     C_R   0.853831 0.316426 0.684123 -0.147130
C15   C     C_R   0.845801 0.061344 0.710247 0.189400
C16   C     C_R   0.786289 0.034983 0.630848 -0.075110
C17   C     C_R   0.740135 0.099818 0.571650 -0.183573
C18   C     C_R   0.761004 0.192291 0.589712 -0.150761
H2    H     H_    0.954106 0.489631 0.726750 0.114943
H3    H     H_    0.009794 0.548697 0.864406 0.143927
H4    H     H_    0.987386 0.448183 0.985834 0.164933
H5    H     H_    0.782298 0.962923 0.613969 0.130045
H6    H     H_    0.733138 0.239735 0.539560 0.107984
C19   C     C_R   0.730085 0.247479 0.189217 0.082545
C20   C     C_R   0.882063 0.185531 0.182877 -0.090385
C21   C     C_R   0.031527 0.195187 0.240755 -0.129611
H7    H     H_    0.153071 0.149757 0.237903 0.128979
C22   C     C_R   0.019263 0.259298 0.306493 -0.122643
H8    H     H_    0.132417 0.261737 0.352091 0.132724
C23   C     C_R   0.857712 0.315975 0.315997 -0.148983
C24   C     C_R   0.718542 0.311279 0.253716 0.140715
C25   C     C_3   0.507415 0.300030 0.260610 0.109383
C26   C     C_3   0.520212 0.230367 0.190021 -0.435635
H9    H     H_    0.462942 0.269799 0.321119 0.092318
H10   H     H_    0.451353 0.252724 0.131270 0.212128
H11   H     H_    0.484894 0.159147 0.209696 0.147770
C27   C     C_R   0.507420 0.680737 0.742301 0.122221
C28   C     C_R   0.351273 0.678614 0.688165 -0.114100
C29   C     C_R   0.196068 0.735564 0.708070 -0.183602
H12   H     H_    0.070737 0.735507 0.669246 0.145784
C30   C     C_R   0.206610 0.798122 0.774759 -0.180445
H13   H     H_    0.086529 0.841679 0.786741 0.168393
C31   C     C_R   0.374473 0.808349 0.821943 -0.113153
C32   C     C_R   0.519425 0.744323 0.807168 0.147020
C33   C     C_3   0.726941 0.759017 0.792594 -0.428060
C34   C     C_3   0.713932 0.689491 0.722483 -0.421608
H14   H     H_    0.815040 0.735520 0.845824 0.198873
H15   H     H_    0.757147 0.829031 0.769501 0.186464
H16   H     H_    0.792803 0.625438 0.735540 0.171323
H17   H     H_    0.738878 0.719584 0.659799 0.173154
C35   C     C_R   0.521374 0.737155 0.302498 -0.000830
C36   C     C_R   0.356712 0.684582 0.316629 -0.090822
C37   C     C_R   0.209835 0.691982 0.258176 -0.129309
H18   H     H_    0.090190 0.646682 0.263069 0.146471
C38   C     C_R   0.223957 0.752679 0.190233 -0.083497
H19   H     H_    0.115499 0.752684 0.143452 0.197748
C39   C     C_R   0.380255 0.811815 0.181005 -0.082779
C40   C     C_R   0.531315 0.799660 0.236167 0.055296
C41   C     C_3   0.729333 0.773451 0.213901 0.370077
C42   C     C_3   0.717380 0.701831 0.283477 -0.044813
H20   H     H_    0.818654 0.712962 0.335641 0.157318
O11   O     O_R   0.229140 0.916090 0.913340 -0.544940
O12   O     O_R   0.558860 0.905090 0.086080 -0.502646
O13   O     O_R   0.729100 0.083920 0.086690 -0.537726
C43   C     C_R   0.389700 0.881325 0.113277 0.770779
O14   O     O_R   0.558860 0.905090 0.913930 -0.539132
O15   O     O_R   0.729100 0.083920 0.913310 -0.545220
C44   C     C_R   0.389526 0.881486 0.886482 0.697102
O16   O     O_R   0.229140 0.916080 0.086720 -0.521981
O17   O     O_3   0.395570 0.058660 0.000020 -0.384437
V3    V     V_3+5 0.670450 0.989140 0.000000 1.500060
O18   O     O_R   0.058810 0.094980 0.913910 -0.549634
C45   C     C_R   0.890342 0.119648 0.887297 0.673817
O19   O     O_R   0.058810 0.094980 0.086060 -0.546618
C46   C     C_R   0.890227 0.115106 0.116169 0.744352
V4    V     V_3+5 0.170450 0.010950 0.999970 1.454503
O20   O     O_3   0.895460 0.941370 0.999990 -0.339027
Br1   Br    Br    0.375019 0.411696 0.229605 -0.557924
Br2   Br    Br    0.884981 0.881008 0.238727 -0.603351
Br3   Br    Br    0.755410 0.724879 0.099777 -0.590741
N1    N     N_3   0.709602 0.605391 0.255317 -0.606809
H21   H     H_    0.596436 0.595227 0.213929 0.298040
H22   H     H_    0.832630 0.588283 0.222331 0.258127
N2    N     N_3   0.913720 0.275998 0.991101 -0.680261
H23   H     H_    0.031822 0.233446 0.997096 0.244092
H24   H     H_    0.783141 0.241207 0.993010 0.226241
N3    N     N_3   0.925646 0.989828 0.759430 -0.723662
H25   H     H_    0.836071 0.973794 0.809186 0.239013
H26   H     H_    0.062920 0.008589 0.778370 0.239835

loop_
_geom_bond_atom_site_label_1
_geom_bond_atom_site_label_2
_ccdc_geom_bond_type
C37   C38   A    
O19   C46   A    
C39   C43   S    
C22   H8    S    
C6    C7    A    
O15   V3    S    
O12   V3    S    
N2    H23   S    
C31   C44   S    
C21   C22   A    
O18   C45   A    
C29   H12   S    
C12   C15   A    
C26   H11   S    
C13   C14   A    
C16   C17   A    
O16   V4    S    
C27   C34   S    
C15   C16   A    
O12   C43   A    
C3    C23   S    
O5    C3    A    
O14   V3    S    
C41   Br2   S    
C33   H14   S    
V2    O10   S    
C31   C32   A    
C5    C6    A    
C42   H20   S    
C35   C40   A    
O15   C45   A    
O8    V2    S    
O13   C46   A    
C38   H19   S    
C35   C42   S    
C39   C40   A    
O1    V2    S    
C10   C14   A    
C4    C14   S    
O7    V1    S    
C1    O6    A    
C7    H4    S    
C15   N3    S    
C33   H15   S    
C37   H18   S    
C13   C18   A    
O9    C4    A    
H1    C17   S    
C22   C23   A    
V3    O20   S    
C42   N1    S    
N2    H24   S    
C29   C30   A    
C26   H10   S    
C25   H9    S    
O17   V4    S    
C30   C31   A    
C1    C28   S    
C28   C29   A    
C11   C12   A    
C6    H3    S    
V4    O20   S    
C21   H7    S    
O4    C2    A    
O18   V4    S    
O11   C44   A    
O13   V3    S    
C12   C13   A    
C25   C26   S    
C5    C10   A    
C20   C46   S    
O2    C1    A    
C23   C24   A    
C19   C20   A    
C2    C36   S    
C8    N2    S    
C43   O16   A    
O17   V3    S    
C17   C18   A    
N3    H26   S    
C27   C28   A    
N1    H22   S    
O3    C4    A    
C41   Br3   S    
O6    V2    S    
O19   V4    S    
C9    C11   A    
C5    H2    S    
O2    V1    S    
C24   C25   S    
O14   C44   A    
C30   H13   S    
C34   H16   S    
O1    C2    A    
C27   C32   A    
C9    C10   A    
C41   C42   S    
O5    V1    S    
O8    C3    A    
C16   H5    S    
C34   H17   S    
C35   C36   A    
C19   C24   A    
O9    V2    S    
C33   C34   S    
O4    V1    S    
O3    V1    S    
V1    O10   S    
C32   C33   S    
C20   C21   A    
N3    H25   S    
O7    V2    S    
N1    H21   S    
C25   Br1   S    
O11   V4    S    
C40   C41   S    
C7    C8    A    
C38   C39   A    
C36   C37   A    
C18   H6    S    
C19   C26   S    
C8    C9    A    
C11   C45   S    
