data_mof_unit_200.cif
_audit_creation_date              2012-12-11T15:55:45-0500
_audit_creation_method            fapswitch 2.2
_symmetry_space_group_name_H-M    P1
_symmetry_Int_Tables_number       1
_space_group_crystal_system       triclinic
_cell_length_a                    6.981292
_cell_length_b                    14.519128
_cell_length_c                    16.127915
_cell_angle_alpha                 89.88537
_cell_angle_beta                  90.124743
_cell_angle_gamma                 89.969026
_cell_volume                      1634.75472058

loop_
_atom_site_label
_atom_site_type_symbol
_atom_type_description
_atom_site_fract_x
_atom_site_fract_y
_atom_site_fract_z
_atom_type_partial_charge
O1    O     O_R   0.505680 0.583900 0.413320 -0.541765
O2    O     O_R   0.176010 0.594950 0.586080 -0.542970
O3    O     O_R   0.005680 0.416100 0.586680 -0.534953
C1    C     C_R   0.345655 0.619202 0.612881 0.715033
O4    O     O_R   0.175960 0.594930 0.413930 -0.548944
O5    O     O_R   0.005640 0.416080 0.413300 -0.541802
C2    C     C_R   0.344886 0.617288 0.385279 0.668009
O6    O     O_R   0.505720 0.583920 0.586700 -0.510797
O7    O     O_3   0.339190 0.441320 0.500000 -0.377307
V1    V     V_3+5 0.064350 0.510890 0.500000 1.403333
O8    O     O_R   0.675920 0.405050 0.413920 -0.545709
C3    C     C_R   0.844733 0.382880 0.385213 0.701336
O9    O     O_R   0.675960 0.405070 0.586070 -0.544716
C4    C     C_R   0.845257 0.382456 0.614177 0.713683
V2    V     V_3+5 0.564340 0.489110 0.500000 1.416915
O10   O     O_3   0.839370 0.558680 0.500000 -0.363992
C5    C     C_R   0.014956 0.310590 0.735771 0.059779
C6    C     C_R   0.855493 0.315293 0.683443 -0.105782
C7    C     C_R   0.707471 0.252498 0.697979 -0.207084
H1    H     H_    0.589575 0.251538 0.655650 0.152452
C8    C     C_R   0.718217 0.187403 0.762822 -0.180218
H2    H     H_    0.604708 0.137217 0.769214 0.134478
C9    C     C_R   0.876145 0.185822 0.817411 -0.121097
C10   C     C_R   0.020702 0.250946 0.804221 0.068402
C11   C     C_3   0.228779 0.232379 0.793843 -0.024860
C12   C     C_3   0.217139 0.286708 0.712929 -0.017010
H3    H     H_    0.263572 0.158034 0.786670 0.149024
H4    H     H_    0.313250 0.347718 0.709964 0.151345
C13   C     C_R   0.041003 0.241665 0.205477 0.421049
C14   C     C_R   0.028151 0.302970 0.272570 -0.233442
H5    H     H_    0.154028 0.342478 0.289275 0.138153
C15   C     C_R   0.855902 0.315063 0.316125 -0.110482
C16   C     C_R   0.696066 0.262543 0.292399 -0.156097
H6    H     H_    0.560912 0.269888 0.324560 0.143699
C17   C     C_R   0.709101 0.198799 0.227485 -0.205387
H7    H     H_    0.583422 0.158545 0.212185 0.184177
C18   C     C_R   0.881009 0.186908 0.183035 -0.156829
C19   C     C_R   0.194941 0.727697 0.715044 -0.245972
H8    H     H_    0.055396 0.708505 0.692385 0.212684
C20   C     C_R   0.209885 0.794442 0.777128 -0.212374
H9    H     H_    0.085309 0.831566 0.795580 0.150321
C21   C     C_R   0.384552 0.813284 0.816040 -0.110304
C22   C     C_R   0.550052 0.768963 0.784384 0.071503
C23   C     C_R   0.538967 0.720851 0.708663 0.425049
C24   C     C_R   0.359452 0.689739 0.679566 -0.189753
C25   C     C_R   0.189205 0.724648 0.282212 -0.161900
H10   H     H_    0.049262 0.705918 0.305631 0.116076
C26   C     C_R   0.200543 0.788116 0.216887 -0.151213
H11   H     H_    0.068651 0.816421 0.192212 0.119178
C27   C     C_R   0.379121 0.814642 0.184007 -0.046671
C28   C     C_R   0.546050 0.776032 0.218515 -0.160517
H12   H     H_    0.685998 0.794825 0.195151 0.116716
C29   C     C_R   0.534717 0.712569 0.283849 -0.154810
H13   H     H_    0.666610 0.684332 0.308594 0.119082
C30   C     C_R   0.356108 0.685862 0.316564 -0.043388
O11   O     O_R   0.229200 0.915950 0.913350 -0.543713
O12   O     O_R   0.559090 0.905000 0.086080 -0.543860
O13   O     O_R   0.729280 0.083880 0.086680 -0.543321
C31   C     C_R   0.390234 0.882857 0.114965 0.690118
O14   O     O_R   0.558920 0.904980 0.913920 -0.541575
O15   O     O_R   0.729110 0.083860 0.913300 -0.540254
C32   C     C_R   0.390863 0.881755 0.885679 0.705645
O16   O     O_R   0.229360 0.915970 0.086730 -0.539232
O17   O     O_3   0.395680 0.058580 0.000030 -0.365686
V3    V     V_3+5 0.670570 0.989070 0.999990 1.386473
O18   O     O_R   0.058820 0.094950 0.913870 -0.544908
C33   C     C_R   0.889579 0.116508 0.884906 0.685680
O19   O     O_R   0.058990 0.094970 0.086020 -0.510486
C34   C     C_R   0.890452 0.117726 0.114483 0.711687
V4    V     V_3+5 0.170560 0.010930 0.999930 1.422776
O20   O     O_3   0.895590 0.941310 0.999960 -0.374699
C35   C     C_3   0.736843 0.770267 0.829972 -0.716986
H14   H     H_    0.714836 0.749298 0.895524 0.198450
H15   H     H_    0.839658 0.720240 0.803652 0.215636
H16   H     H_    0.795574 0.840820 0.826998 0.208757
O21   O     O_3   0.701385 0.714119 0.659747 -0.557316
C36   C     C_3   0.688222 0.782557 0.596903 0.118087
H17   H     H_    0.646105 0.851005 0.622584 0.099184
H18   H     H_    0.581240 0.761906 0.549206 0.111202
C37   C     C_3   0.880176 0.795096 0.553814 -0.729388
H19   H     H_    0.861711 0.840190 0.498671 0.169275
H20   H     H_    0.983945 0.828549 0.596322 0.204446
H21   H     H_    0.937582 0.727863 0.533101 0.250078
C38   C     C_3   0.342672 0.280347 0.862847 -0.808924
H22   H     H_    0.275919 0.346890 0.880971 0.203074
H23   H     H_    0.348271 0.234626 0.917921 0.235292
H24   H     H_    0.490528 0.295595 0.842888 0.229024
C39   C     C_3   0.224309 0.223857 0.635435 -0.795389
H25   H     H_    0.252504 0.266035 0.579330 0.226142
H26   H     H_    0.336548 0.170262 0.641325 0.189021
H27   H     H_    0.088487 0.185391 0.625998 0.217747
O22   O     O_3   0.214294 0.233568 0.164846 -0.552786
C40   C     C_3   0.227881 0.304219 0.104705 0.101729
H28   H     H_    0.177411 0.372291 0.128192 0.099327
H29   H     H_    0.142005 0.285320 0.049081 0.118761
C41   C     C_3   0.436289 0.315572 0.079315 -0.724364
H30   H     H_    0.495538 0.248812 0.057776 0.236105
H31   H     H_    0.447325 0.366907 0.028451 0.174053
H32   H     H_    0.521879 0.340458 0.132836 0.221786

loop_
_geom_bond_atom_site_label_1
_geom_bond_atom_site_label_2
_ccdc_geom_bond_type
C14   C15   A    
C40   H28   S    
C18   C34   S    
C4    C6    S    
C29   C30   A    
C17   H7    S    
C38   H24   S    
C2    C30   S    
C1    O6    A    
O18   V4    S    
C36   H17   S    
C22   C35   S    
C27   C31   S    
C40   C41   S    
C7    C8    A    
C38   H23   S    
C37   H21   S    
O5    C3    A    
C14   H5    S    
O12   C31   A    
V2    O10   S    
C41   H32   S    
O14   C32   A    
C6    C7    A    
C9    C33   S    
C23   O21   S    
C19   C24   A    
O8    V2    S    
C38   H22   S    
C7    H1    S    
O19   C34   A    
C41   H31   S    
C25   C30   A    
C11   C38   S    
C9    C10   A    
O16   V4    S    
V4    O20   S    
O1    V2    S    
O17   V4    S    
O7    V1    S    
C21   C32   S    
C20   C21   A    
O18   C33   A    
C40   H29   S    
O9    C4    A    
C3    C15   S    
C35   H16   S    
C5    C6    A    
C1    C24   S    
C36   H18   S    
C25   C26   A    
C5    C10   A    
C28   H12   S    
C10   C11   S    
C35   H15   S    
O4    C2    A    
C37   H19   S    
C27   C28   A    
C11   C12   S    
C29   H13   S    
C28   C29   A    
O2    C1    A    
C22   C23   A    
C13   C14   A    
O15   C33   A    
O13   V3    S    
C39   H27   S    
C41   H30   S    
C16   H6    S    
O21   C36   S    
O3    C4    A    
C37   H20   S    
C26   H11   S    
C39   H26   S    
O14   V3    S    
O6    V2    S    
O11   V4    S    
C8    C9    A    
O11   C32   A    
C21   C22   A    
C5    C12   S    
O2    V1    S    
C23   C24   A    
C36   C37   S    
C25   H10   S    
C20   H9    S    
C17   C18   A    
O1    C2    A    
C31   O16   A    
O12   V3    S    
C35   H14   S    
O5    V1    S    
O8    C3    A    
O13   C34   A    
C11   H3    S    
C12   H4    S    
C15   C16   A    
O9    V2    S    
O7    V2    S    
O4    V1    S    
O3    V1    S    
V3    O20   S    
O17   V3    S    
C19   C20   A    
C19   H8    S    
C26   C27   A    
O22   C40   S    
C16   C17   A    
C12   C39   S    
O15   V3    S    
C39   H25   S    
O19   V4    S    
C13   C18   A    
V1    O10   S    
C8    H2    S    
C13   O22   S    
