data_mof_unit_3058.cif
_audit_creation_date              2012-12-11T15:23:47-0500
_audit_creation_method            fapswitch 2.2
_symmetry_space_group_name_H-M    P1
_symmetry_Int_Tables_number       1
_space_group_crystal_system       triclinic
_cell_length_a                    18.169041
_cell_length_b                    24.21617
_cell_length_c                    15.220437
_cell_angle_alpha                 89.901035
_cell_angle_beta                  125.346061
_cell_angle_gamma                 90.581312
_cell_volume                      5462.0113511

loop_
_atom_site_label
_atom_site_type_symbol
_atom_type_description
_atom_site_fract_x
_atom_site_fract_y
_atom_site_fract_z
_atom_type_partial_charge
C1    C     C_R   0.322867 0.366147 0.913938 0.610304
C2    C     C_R   0.677527 0.367648 0.086819 0.614484
C3    C     C_R   0.823013 0.866143 0.914855 0.607986
C4    C     C_R   0.173557 0.863851 0.086063 0.610077
C5    C     C_R   0.367626 0.679872 0.992061 -0.092040
C6    C     C_R   0.630552 0.681461 0.008545 -0.087194
C7    C     C_R   0.865691 0.178948 0.992557 -0.084730
C8    C     C_R   0.127837 0.182419 0.008246 -0.096015
C9    C     C_R   0.510697 0.498715 0.329069 0.042430
C10   C     C_R   0.516516 0.500521 0.695542 0.051825
C11   C     C_R   0.034276 0.000398 0.346926 0.040775
C12   C     C_R   0.022885 0.001018 0.701118 0.051841
C13   C     C_R   0.192981 0.506799 0.649855 -0.282144
C14   C     C_R   0.802813 0.507891 0.355392 -0.291788
C15   C     C_R   0.689874 0.005861 0.655318 -0.263983
C16   C     C_R   0.304795 0.008620 0.352327 -0.277121
C17   C     C_2   0.946737 0.475690 0.493743 -0.219192
C18   C     C_2   0.042726 0.471989 0.545164 -0.214090
C19   C     C_2   0.443256 0.976535 0.503987 -0.224537
C20   C     C_2   0.539571 0.971093 0.559474 -0.213806
C21   C     C_2   0.899763 0.517010 0.426700 0.682218
C22   C     C_2   0.096031 0.516285 0.592301 0.679828
C23   C     C_2   0.400310 0.018438 0.435544 0.667527
C24   C     C_2   0.594268 0.014411 0.608448 0.689975
C25   C     C_R   0.254560 0.755108 0.882169 0.642903
C26   C     C_R   0.728197 0.765143 0.116903 0.631804
C27   C     C_R   0.764625 0.260566 0.885779 0.639975
C28   C     C_R   0.225621 0.266337 0.115439 0.630773
C29   C     C_R   0.715256 0.303938 0.888343 -0.356525
C30   C     C_R   0.279880 0.307574 0.113671 -0.357799
C31   C     C_R   0.202195 0.795269 0.885055 -0.337790
C32   C     C_R   0.781579 0.807066 0.115395 -0.360312
C33   C     C_R   0.737114 0.323466 0.987397 0.146028
C34   C     C_R   0.260440 0.325574 0.014689 0.148749
C35   C     C_R   0.228572 0.818541 0.983188 0.135363
C36   C     C_R   0.760957 0.826183 0.016488 0.147812
C37   C     C_R   0.815192 0.306149 0.081925 -0.202048
C38   C     C_R   0.179587 0.310626 0.920637 -0.207458
C39   C     C_R   0.313369 0.808851 0.074928 -0.207177
C40   C     C_R   0.680040 0.811303 0.922553 -0.205347
C41   C     C_R   0.356289 0.762559 0.078003 -0.283208
C42   C     C_R   0.642161 0.762421 0.921109 -0.289861
C43   C     C_R   0.848956 0.256522 0.081903 -0.290842
C44   C     C_R   0.140637 0.262350 0.919737 -0.289353
C45   C     C_R   0.435636 0.651479 0.084946 0.593897
C46   C     C_R   0.560929 0.653026 0.916014 0.590021
C47   C     C_R   0.935680 0.151252 0.085208 0.590142
C48   C     C_R   0.059568 0.153388 0.915885 0.581588
C49   C     C_R   0.327903 0.733743 0.983057 0.010319
C50   C     C_R   0.665266 0.737653 0.016766 0.028456
C51   C     C_R   0.827052 0.232970 0.985539 0.016714
C52   C     C_R   0.162668 0.238491 0.015676 0.027732
C53   C     C_R   0.482014 0.545839 0.535213 -0.186062
C54   C     C_R   0.479385 0.544669 0.444210 -0.179221
C55   C     C_R   0.037527 0.053320 0.574786 -0.177343
C56   C     C_R   0.042792 0.053484 0.489193 -0.182665
C57   C     C_R   0.517934 0.500304 0.426798 0.154426
C58   C     C_R   0.524049 0.502606 0.608714 0.161005
C59   C     C_R   0.055214 0.003177 0.453604 0.152472
C60   C     C_R   0.048168 0.003370 0.627931 0.159407
C61   C     C_R   0.562939 0.457937 0.502357 -0.190542
C62   C     C_R   0.564880 0.458887 0.593538 -0.186838
C63   C     C_R   0.077383 0.954598 0.514827 -0.179954
C64   C     C_R   0.073287 0.954660 0.602333 -0.181322
C65   C     C_R   0.522899 0.452926 0.286097 -0.117631
C66   C     C_R   0.492419 0.453938 0.725560 -0.117255
C67   C     C_R   0.036234 0.953921 0.295681 -0.118564
C68   C     C_R   0.996544 0.954250 0.728964 -0.107852
C69   C     C_R   0.251724 0.548330 0.705380 0.640925
C70   C     C_R   0.746249 0.548692 0.296431 0.619104
C71   C     C_R   0.749759 0.047621 0.706085 0.613561
C72   C     C_R   0.248354 0.049468 0.293475 0.627936
C73   C     C_R   0.507968 0.544908 0.274636 -0.189274
C74   C     C_R   0.507463 0.546221 0.741220 -0.203140
C75   C     C_R   0.020636 0.045578 0.284263 -0.182604
C76   C     C_R   0.009514 0.046514 0.743933 -0.204918
C77   C     C_R   0.239789 0.457703 0.703049 -0.195229
C78   C     C_R   0.757472 0.458329 0.300304 -0.172686
C79   C     C_R   0.738168 0.957044 0.706840 -0.205026
C80   C     C_R   0.258872 0.958650 0.299132 -0.183686
C81   C     C_R   0.345028 0.647191 0.905814 -0.209290
C82   C     C_R   0.660071 0.646556 0.093704 -0.253083
C83   C     C_R   0.841636 0.146001 0.905934 -0.234829
C84   C     C_R   0.157442 0.147760 0.093635 -0.243182
C85   C     C_R   0.412234 0.368463 0.094818 -0.233934
C86   C     C_R   0.587481 0.368043 0.905967 -0.237797
C87   C     C_R   0.911781 0.870196 0.095861 -0.233233
C88   C     C_R   0.082240 0.864283 0.905014 -0.236385
C89   C     C_R   0.328192 0.352158 0.007145 -0.083164
C90   C     C_R   0.671847 0.352883 0.994101 -0.079912
C91   C     C_R   0.828181 0.853159 0.008489 -0.082251
C92   C     C_R   0.164535 0.846845 0.992352 -0.082399
H1    H     H_    0.657311 0.320194 0.814046 0.125728
H2    H     H_    0.338972 0.323340 0.187853 0.127176
H3    H     H_    0.137651 0.804244 0.811447 0.132576
H4    H     H_    0.841070 0.822363 0.189635 0.127098
H5    H     H_    0.842249 0.325593 0.158449 0.197333
H6    H     H_    0.155490 0.329489 0.844636 0.194586
H7    H     H_    0.339966 0.831035 0.149188 0.191157
H8    H     H_    0.655597 0.830638 0.846797 0.193458
H9    H     H_    0.595480 0.424096 0.491314 0.108153
H10   H     H_    0.596149 0.425111 0.650615 0.110373
H11   H     H_    0.091817 0.915682 0.492360 0.103111
H12   H     H_    0.084098 0.915992 0.645002 0.105541
H13   H     H_    0.538804 0.411434 0.317658 0.077383
H14   H     H_    0.478509 0.413121 0.690091 0.083319
H15   H     H_    0.055779 0.912556 0.327101 0.079487
H16   H     H_    0.987181 0.913050 0.696997 0.079171
N1    N     N_R   0.395440 0.396300 0.944370 -0.095265
N2    N     N_R   0.604560 0.396300 0.055630 -0.096865
N3    N     N_R   0.895440 0.896300 0.944370 -0.095011
N4    N     N_R   0.104560 0.896300 0.055630 -0.094944
N5    N     N_R   0.449890 0.602500 0.055780 -0.100251
N6    N     N_R   0.550110 0.602500 0.944220 -0.096956
N7    N     N_R   0.949890 0.102500 0.055780 -0.099068
N8    N     N_R   0.050110 0.102500 0.944220 -0.097127
N9    N     N_R   0.525090 0.470990 0.205640 -0.033833
N10   N     N_R   0.474910 0.470990 0.794360 -0.033173
N11   N     N_R   0.025090 0.970990 0.205640 -0.033332
N12   N     N_R   0.974910 0.970990 0.794360 -0.034241
N13   N     N_R   0.320240 0.527820 0.794510 -0.094787
N14   N     N_R   0.679760 0.527820 0.205490 -0.091407
N15   N     N_R   0.820240 0.027820 0.794510 -0.096345
N16   N     N_R   0.179760 0.027820 0.205490 -0.092508
N17   N     N_R   0.524580 0.527810 0.205160 -0.048359
N18   N     N_R   0.475420 0.527810 0.794840 -0.052734
N19   N     N_R   0.024580 0.027810 0.205160 -0.048291
N20   N     N_R   0.975420 0.027810 0.794840 -0.054704
N21   N     N_R   0.320750 0.470990 0.794990 -0.057559
N22   N     N_R   0.679250 0.470990 0.205010 -0.057796
N23   N     N_R   0.820750 0.970990 0.794990 -0.057352
N24   N     N_R   0.179250 0.970990 0.205010 -0.057360
N25   N     N_R   0.393580 0.602500 0.942610 -0.088577
N26   N     N_R   0.606420 0.602500 0.057390 -0.081659
N27   N     N_R   0.893580 0.102500 0.942610 -0.086954
N28   N     N_R   0.106420 0.102500 0.057390 -0.081183
N29   N     N_R   0.451750 0.396300 0.057540 -0.072475
N30   N     N_R   0.548250 0.396300 0.942460 -0.070857
N31   N     N_R   0.951750 0.896300 0.057540 -0.073522
N32   N     N_R   0.048250 0.896300 0.942460 -0.070322
Ni1   Ni    Ni4+2 0.435420 0.434250 0.870220 0.215587
Ni2   Ni    Ni4+2 0.564580 0.434250 0.129780 0.209146
Ni3   Ni    Ni4+2 0.935420 0.934250 0.870220 0.216413
Ni4   Ni    Ni4+2 0.064580 0.934250 0.129780 0.213251
Ni5   Ni    Ni4+2 0.563400 0.564580 0.128670 0.215707
Ni6   Ni    Ni4+2 0.436600 0.564580 0.871330 0.216203
Ni7   Ni    Ni4+2 0.063400 0.064580 0.128670 0.215277
Ni8   Ni    Ni4+2 0.936600 0.064580 0.871330 0.213430
O1    O     O_3   0.259104 0.350220 0.808579 -0.660008
C93   C     C_3   0.273294 0.294957 0.792363 -0.314693
H17   H     H_    0.229805 0.266280 0.801068 0.167395
H18   H     H_    0.344907 0.281681 0.845844 0.135169
H19   H     H_    0.251839 0.290450 0.708026 0.172895
O2    O     O_3   0.742459 0.353971 0.192650 -0.657614
C94   C     C_3   0.724892 0.300526 0.215586 -0.319855
H20   H     H_    0.777851 0.271739 0.229196 0.172434
H21   H     H_    0.657036 0.282932 0.152262 0.133726
H22   H     H_    0.730884 0.302737 0.292540 0.167785
O3    O     O_3   0.760214 0.848570 0.810351 -0.662314
C95   C     C_3   0.775875 0.793048 0.797675 -0.308686
H23   H     H_    0.733808 0.764639 0.809199 0.167952
H24   H     H_    0.847989 0.780809 0.851251 0.135026
H25   H     H_    0.753693 0.786972 0.713372 0.173866
O4    O     O_3   0.237504 0.849384 0.191842 -0.655792
C96   C     C_3   0.224800 0.793792 0.209157 -0.307971
H26   H     H_    0.269993 0.766371 0.202464 0.172095
H27   H     H_    0.153690 0.778639 0.154924 0.132239
H28   H     H_    0.245065 0.789948 0.293106 0.171310
O5    O     O_3   0.943642 0.554918 0.399831 -0.633745
C97   C     C_3   0.912337 0.609867 0.384300 -0.082724
H29   H     H_    0.897556 0.622411 0.443506 0.174081
H30   H     H_    0.855962 0.616924 0.299266 0.160677
H31   H     H_    0.963499 0.639619 0.394959 0.094095
O6    O     O_3   0.061726 0.561764 0.615445 -0.634186
C98   C     C_3   0.088066 0.614366 0.600600 -0.046975
H32   H     H_    0.099776 0.614629 0.536047 0.164248
H33   H     H_    0.145222 0.631476 0.678315 0.198888
H34   H     H_    0.035704 0.645286 0.578441 0.097737
O7    O     O_3   0.449675 0.057573 0.419859 -0.636005
C99   C     C_3   0.420101 0.112820 0.409673 -0.066051
H35   H     H_    0.399422 0.122349 0.464522 0.166016
H36   H     H_    0.369940 0.123398 0.324194 0.174062
H37   H     H_    0.473570 0.143115 0.430049 0.081371
O8    O     O_3   0.562812 0.058585 0.638412 -0.632872
C100  C     C_3   0.590892 0.111748 0.629409 -0.068057
H38   H     H_    0.598728 0.114652 0.562117 0.183111
H39   H     H_    0.652084 0.125505 0.706861 0.166595
H40   H     H_    0.540589 0.142906 0.613998 0.104959
O9    O     O_3   0.224047 0.729214 0.784908 -0.651639
C101  C     C_3   0.191972 0.766834 0.698964 -0.363136
H41   H     H_    0.228820 0.807221 0.724702 0.147666
H42   H     H_    0.118294 0.773172 0.657044 0.158349
H43   H     H_    0.201300 0.748264 0.639421 0.181405
O10   O     O_3   0.739759 0.746873 0.211536 -0.652437
C102  C     C_3   0.790816 0.783194 0.300658 -0.292203
H44   H     H_    0.767100 0.826546 0.279445 0.148569
H45   H     H_    0.863972 0.780421 0.335729 0.140502
H46   H     H_    0.782899 0.770285 0.364817 0.172661
O11   O     O_3   0.747188 0.239983 0.789262 -0.655667
C103  C     C_3   0.700668 0.276828 0.700891 -0.332631
H47   H     H_    0.729394 0.319653 0.722943 0.148308
H48   H     H_    0.626765 0.276254 0.665011 0.149461
H49   H     H_    0.708149 0.261947 0.637469 0.177636
O12   O     O_3   0.236465 0.248983 0.210153 -0.653997
C104  C     C_3   0.287054 0.285867 0.298414 -0.293187
H50   H     H_    0.263495 0.329198 0.275767 0.148900
H51   H     H_    0.360384 0.282811 0.334428 0.142809
H52   H     H_    0.278392 0.273768 0.362402 0.169587
H53   H     H_    0.405337 0.748116 0.157648 0.215544
H54   H     H_    0.601623 0.742533 0.843985 0.207538
H55   H     H_    0.889289 0.236538 0.158886 0.213351
H56   H     H_    0.099862 0.242167 0.842838 0.206492
H57   H     H_    0.447130 0.578837 0.544610 0.116292
H58   H     H_    0.444057 0.577529 0.386274 0.123646
H59   H     H_    0.016555 0.091679 0.590669 0.116649
H60   H     H_    0.027480 0.092516 0.446702 0.118126
O13   O     O_3   0.487832 0.671463 0.189476 -0.678787
C105  C     C_3   0.553536 0.709462 0.202488 -0.313188
H61   H     H_    0.523653 0.748054 0.153772 0.158824
H62   H     H_    0.595222 0.690181 0.179615 0.198812
H63   H     H_    0.599091 0.721356 0.290314 0.184634
O14   O     O_3   0.501030 0.674433 0.813845 -0.678513
C106  C     C_3   0.445608 0.715610 0.813112 -0.303156
H64   H     H_    0.466461 0.757314 0.804918 0.165884
H65   H     H_    0.444515 0.716038 0.885048 0.146409
H66   H     H_    0.375491 0.709501 0.740505 0.189329
O15   O     O_3   0.990615 0.171704 0.189468 -0.681469
C107  C     C_3   0.048547 0.214001 0.197193 -0.304675
H67   H     H_    0.013639 0.253988 0.162775 0.164180
H68   H     H_    0.081452 0.202309 0.157492 0.188548
H69   H     H_    0.102507 0.221917 0.284373 0.182874
O16   O     O_3   0.998912 0.174585 0.813671 -0.686001
C108  C     C_3   0.943752 0.215744 0.813585 -0.272150
H70   H     H_    0.967464 0.257788 0.811737 0.160443
H71   H     H_    0.938938 0.213711 0.882761 0.156894
H72   H     H_    0.874546 0.211580 0.738101 0.195910
O17   O     O_3   0.254228 0.598328 0.663075 -0.688622
C109  C     C_3   0.319910 0.599201 0.642606 -0.309471
H73   H     H_    0.320838 0.560398 0.604039 0.154866
H74   H     H_    0.384614 0.609112 0.718054 0.223689
H75   H     H_    0.306382 0.633892 0.587823 0.175324
O18   O     O_3   0.746829 0.601555 0.331000 -0.684216
C110  C     C_3   0.688468 0.604504 0.363802 -0.284471
H76   H     H_    0.691263 0.566741 0.408159 0.147364
H77   H     H_    0.619902 0.613017 0.290222 0.210735
H78   H     H_    0.707421 0.641241 0.418773 0.169828
O19   O     O_3   0.748998 0.097002 0.659491 -0.685712
C111  C     C_3   0.819187 0.100030 0.646622 -0.262897
H79   H     H_    0.822296 0.062319 0.607204 0.152553
H80   H     H_    0.882338 0.108797 0.724900 0.213138
H81   H     H_    0.808306 0.135871 0.595203 0.173108
O20   O     O_3   0.250105 0.102719 0.327067 -0.690562
C112  C     C_3   0.188200 0.109398 0.351943 -0.318599
H82   H     H_    0.191253 0.075238 0.402971 0.153711
H83   H     H_    0.121885 0.114842 0.275847 0.220311
H84   H     H_    0.203821 0.148396 0.397831 0.179290
H85   H     H_    0.505778 0.587356 0.294335 0.156941
H86   H     H_    0.515114 0.589103 0.727615 0.154539
H87   H     H_    0.021197 0.088487 0.302575 0.152750
H88   H     H_    0.020453 0.089525 0.736218 0.153681
H89   H     H_    0.217085 0.416419 0.672104 0.191692
H90   H     H_    0.778783 0.417368 0.332612 0.185241
H91   H     H_    0.714699 0.915720 0.677266 0.195473
H92   H     H_    0.280729 0.917708 0.331328 0.186688
H93   H     H_    0.310268 0.657609 0.822951 0.238243
H94   H     H_    0.708830 0.654845 0.177414 0.237659
H95   H     H_    0.800317 0.154852 0.822052 0.236274
H96   H     H_    0.204138 0.157164 0.177113 0.247417
H97   H     H_    0.442486 0.360260 0.178467 0.131447
H98   H     H_    0.555845 0.357508 0.822876 0.129054
H99   H     H_    0.941393 0.864586 0.180254 0.133407
H100  H     H_    0.048339 0.853614 0.821700 0.127071
H101  H     H_    0.913334 0.440908 0.502799 0.094101
H102  H     H_    0.068792 0.432265 0.544023 0.099726
H103  H     H_    0.406493 0.941682 0.506199 0.096546
H104  H     H_    0.563906 0.931708 0.552997 0.098503

loop_
_geom_bond_atom_site_label_1
_geom_bond_atom_site_label_2
_ccdc_geom_bond_type
C25   C31   A    
C7    C83   A    
C55   C56   A    
C26   C32   A    
C101  H41   S    
C6    C82   A    
C87   C91   A    
C24   O8    S    
C79   H91   S    
O5    C97   S    
N4    N32   A    
C61   H9    S    
C106  H64   S    
C16   C72   A    
N32   Ni3   S    
C71   O19   S    
C75   N19   A    
C38   H6    S    
N10   Ni1   S    
C67   H15   S    
C54   C57   A    
C37   H5    S    
N18   Ni6   S    
C106  H66   S    
N3    N31   A    
C39   C41   A    
C104  H50   S    
C111  H79   S    
C47   N7    A    
N15   Ni8   S    
C76   H88   S    
C109  H75   S    
C84   H96   S    
C96   H26   S    
C77   H89   S    
C80   N24   A    
C15   C71   A    
C32   C36   A    
C14   C21   S    
C71   N15   A    
O4    C96   S    
C10   C58   S    
C26   C50   A    
O3    C95   S    
C55   H59   S    
C112  H82   S    
C73   H85   S    
C100  H39   S    
C94   H21   S    
C97   H29   S    
N1    N29   A    
N5    Ni5   S    
C110  H76   S    
C29   C33   A    
O17   C109  S    
C45   O13   S    
O8    C100  S    
N16   N24   A    
C3    C91   A    
N14   Ni5   S    
C85   H97   S    
N2    Ni2   S    
C13   C69   A    
O6    C98   S    
C88   N32   A    
C36   C40   A    
C69   O17   S    
C101  H43   S    
C87   H99   S    
C105  H62   S    
C88   H100  S    
C19   H103  S    
C88   C92   A    
C11   C67   A    
C103  H47   S    
C110  H77   S    
C93   H19   S    
C80   H92   S    
C53   H57   S    
C4    O4    S    
C1    O1    S    
C18   H102  S    
C17   C21   D    
C43   H55   S    
C108  H70   S    
C8    C52   S    
C83   N27   A    
C61   C62   A    
C42   H54   S    
C99   H37   S    
N3    Ni3   S    
C6    C46   A    
C48   N8    A    
C102  H46   S    
C41   H53   S    
C35   C92   S    
C44   C52   A    
N12   N20   A    
C40   C42   A    
O10   C102  S    
C4    N4    A    
N24   Ni4   S    
C2    O2    S    
N5    N25   A    
C55   C60   A    
C72   N16   A    
C94   H22   S    
C3    O3    S    
N11   Ni4   S    
C78   H90   S    
C5    C49   S    
C96   H27   S    
C14   C70   A    
N12   Ni3   S    
C9    C73   A    
C66   H14   S    
C11   C59   S    
C41   C49   A    
C107  H67   S    
C22   O6    S    
C111  H80   S    
O18   C110  S    
C98   H34   S    
C13   C77   A    
C10   C66   A    
N16   Ni7   S    
C109  H74   S    
N29   Ni2   S    
C56   H60   S    
C30   C34   A    
C97   H30   S    
C28   O12   S    
C95   H25   S    
C20   C24   D    
C102  H44   S    
N2    N30   A    
C27   O11   S    
C86   H98   S    
C63   H11   S    
C86   C90   A    
C3    N3    A    
C12   C60   S    
N8    Ni8   S    
C85   C89   A    
N20   Ni8   S    
C100  H40   S    
C1    N1    A    
N28   Ni7   S    
C8    C84   A    
O13   C105  S    
C53   C54   A    
C5    C45   A    
C33   C37   A    
O7    C99   S    
C16   C80   A    
C95   H24   S    
N1    Ni1   S    
C82   N26   A    
C19   C23   D    
C102  H45   S    
C8    C48   A    
C38   C44   A    
C45   N5    A    
C5    C81   A    
N31   Ni4   S    
C70   N14   A    
C39   H7    S    
O15   C107  S    
C73   N17   A    
C69   N13   A    
C53   C58   A    
C110  H78   S    
C79   N23   A    
C106  H65   S    
C17   C18   S    
N6    N26   A    
C47   O15   S    
C20   H104  S    
C82   H94   S    
C77   N21   A    
C72   O20   S    
C57   C61   A    
C108  H71   S    
N6    Ni6   S    
O2    C94   S    
C58   C62   A    
C42   C50   A    
C36   C91   S    
C103  H48   S    
C15   C24   S    
C32   H4    S    
C75   H87   S    
N11   N19   A    
C96   H28   S    
C34   C38   A    
C12   C76   A    
C4    C92   A    
C28   C52   A    
C107  H68   S    
C76   N20   A    
C93   H18   S    
C37   C43   A    
C25   O9    S    
C26   O10   S    
C85   N29   A    
N23   Ni3   S    
C99   H35   S    
C105  H63   S    
C112  H83   S    
C104  H51   S    
C104  H52   S    
C54   H58   S    
N26   Ni5   S    
C109  H73   S    
C84   N28   A    
C1    C89   A    
C6    C50   S    
N15   N23   A    
C18   C22   D    
N22   Ni2   S    
C23   O7    S    
C101  H42   S    
C12   C68   A    
C105  H61   S    
C64   H12   S    
C46   N6    A    
C87   N31   A    
N30   Ni1   S    
C40   H8    S    
C112  H84   S    
C17   H101  S    
O19   C111  S    
C65   H13   S    
C81   N25   A    
N8    N28   A    
C15   C79   A    
C16   C23   S    
C27   C29   A    
C59   C63   A    
C46   O14   S    
C56   C59   A    
C60   C64   A    
N7    Ni7   S    
C95   H23   S    
N4    Ni4   S    
C19   C20   S    
C28   C30   A    
N9    Ni2   S    
C78   N22   A    
N13   N21   A    
C7    C51   S    
C31   H3    S    
C98   H32   S    
C11   C75   A    
O1    C93   S    
C68   N12   A    
C99   H36   S    
C29   H1    S    
C10   C74   A    
C43   C51   A    
C100  H38   S    
C74   N18   A    
C74   H86   S    
N7    N27   A    
C103  H49   S    
C21   O5    S    
C35   C39   A    
C31   C35   A    
C83   H95   S    
C81   H93   S    
C27   C51   A    
C13   C22   S    
N19   Ni7   S    
C9    C57   S    
C14   C78   A    
O9    C101  S    
N10   N18   A    
C108  H72   S    
C9    C65   A    
C34   C89   S    
C111  H81   S    
C86   N30   A    
C25   C49   A    
C63   C64   A    
C48   O16   S    
O16   C108  S    
O11   C103  S    
N21   Ni1   S    
O12   C104  S    
C98   H33   S    
C2    C90   A    
N27   Ni8   S    
C66   N10   A    
C30   H2    S    
C94   H20   S    
C65   N9    A    
N13   Ni6   S    
O20   C112  S    
N17   Ni5   S    
N25   Ni6   S    
C68   H16   S    
C44   H56   S    
C33   C90   S    
N9    N17   A    
C67   N11   A    
O14   C106  S    
N14   N22   A    
C107  H69   S    
C70   O18   S    
C7    C47   A    
C93   H17   S    
C62   H10   S    
C97   H31   S    
C2    N2    A    
