data_mof_unit_2571.cif
_audit_creation_date              2013-03-05T15:40:45-0500
_audit_creation_method            fapswitch 2.2
_symmetry_space_group_name_H-M    P1
_symmetry_Int_Tables_number       1
_space_group_crystal_system       triclinic
_cell_length_a                    6.91612
_cell_length_b                    17.357548
_cell_length_c                    24.075834
_cell_angle_alpha                 104.4619
_cell_angle_beta                  90.52311
_cell_angle_gamma                 89.983968
_cell_volume                      2798.52624018

loop_
_atom_site_label
_atom_site_type_symbol
_atom_site_description
_atom_site_fract_x
_atom_site_fract_y
_atom_site_fract_z
_atom_type_partial_charge
O1    O     O_R   0.494290 0.391990 0.999150 -0.584202
O2    O     O_R   0.827170 0.534410 0.082350 -0.543854
O3    O     O_R   0.994360 0.608010 0.000850 -0.590495
C1    C     C_R   0.658763 0.549353 0.105983 0.918589
O4    O     O_R   0.824210 0.388010 0.004470 -0.499082
O5    O     O_R   0.991370 0.460560 0.922410 -0.531073
C2    C     C_R   0.654927 0.355055 0.001410 0.894499
O6    O     O_R   0.497270 0.539440 0.077590 -0.558510
O7    O     O_3   0.659770 0.523970 0.973170 -0.272536
V1    V     V_3+5 0.935840 0.495550 0.004980 1.274593
O8    O     O_R   0.320910 0.465590 0.917650 -0.556289
C3    C     C_R   0.151372 0.449211 0.894012 0.904959
O9    O     O_R   0.323870 0.611990 0.995530 -0.531014
C4    C     C_R   0.154715 0.644838 0.998188 0.796935
V2    V     V_3+5 0.435470 0.504450 0.995020 1.245483
O10   O     O_3   0.161670 0.476030 0.026830 -0.259889
C5    C     C_2   0.146887 0.728808 0.995437 0.163109
C6    C     C_2   0.976634 0.769449 0.000660 -0.271035
C7    C     C_R   0.243951 0.288466 0.621232 0.684631
N1    N     N_R   0.117095 0.346616 0.647050 -0.441742
C8    C     C_R   0.978849 0.374349 0.616045 0.679134
C9    C     C_R   0.964602 0.344373 0.555773 -0.055359
C10   C     C_R   0.091474 0.282214 0.528566 -0.072900
C11   C     C_R   0.236262 0.255184 0.561102 -0.120302
C12   C     C_R   0.823634 0.372106 0.522013 0.342371
C13   C     C_R   0.804682 0.335392 0.463609 -0.079206
C14   C     C_R   0.926774 0.273289 0.436606 -0.026364
C15   C     C_R   0.071829 0.246586 0.468791 -0.048638
C16   C     C_R   0.195796 0.184209 0.441148 -0.128086
C17   C     C_R   0.342762 0.158535 0.473855 0.287655
C18   C     C_R   0.364512 0.194307 0.532877 0.289555
C19   C     C_R   0.908519 0.238543 0.377418 0.626376
N2    N     N_R   0.029007 0.178309 0.350825 -0.449424
C20   C     C_R   0.170007 0.150589 0.381300 0.630033
O11   O     O_2   0.373382 0.261861 0.654280 -0.452053
O12   O     O_2   0.853500 0.429596 0.644030 -0.412775
O13   O     O_2   0.772986 0.265864 0.346467 -0.513666
O14   O     O_2   0.283957 0.090473 0.353549 -0.475859
C21   C     C_R   0.837143 0.110890 0.264609 0.031018
C22   C     C_R   0.820533 0.080350 0.205059 -0.108952
C23   C     C_R   0.979038 0.082677 0.169249 -0.093094
C24   C     C_R   0.153524 0.116911 0.194404 -0.081949
C25   C     C_R   0.168998 0.148337 0.253653 0.011302
C26   C     C_R   0.011559 0.145367 0.289444 0.252624
C27   C     C_R   0.271836 0.427297 0.737147 0.381889
C28   C     C_R   0.279233 0.448254 0.797493 -0.148892
C29   C     C_R   0.140126 0.421001 0.830361 -0.217174
C30   C     C_R   0.990239 0.370298 0.801672 0.315319
C31   C     C_R   0.982917 0.349201 0.741438 -0.039435
C32   C     C_R   0.122667 0.376113 0.708836 0.127728
C33   C     C_R   0.656262 0.851509 0.619702 0.641754
N3    N     N_R   0.497410 0.832144 0.647286 -0.431683
C34   C     C_R   0.357951 0.781622 0.617495 0.643571
C35   C     C_R   0.374787 0.749050 0.557802 -0.035370
C36   C     C_R   0.537364 0.768523 0.529116 -0.025583
C37   C     C_R   0.679545 0.820141 0.560227 -0.033719
C38   C     C_R   0.234064 0.697245 0.526216 -0.053541
C39   C     C_R   0.254983 0.665031 0.467184 -0.039420
C40   C     C_R   0.416857 0.683967 0.438127 -0.033770
C41   C     C_R   0.558079 0.736218 0.469209 -0.025457
C42   C     C_R   0.720014 0.756270 0.440524 -0.041813
C43   C     C_R   0.861351 0.807638 0.472134 -0.051850
C44   C     C_R   0.841610 0.839017 0.531236 -0.024657
C45   C     C_R   0.440914 0.652372 0.378623 0.676091
N4    N     N_R   0.597610 0.673568 0.351035 -0.420175
C46   C     C_R   0.736112 0.724492 0.380819 0.677092
O15   O     O_2   0.791245 0.901307 0.649697 -0.453119
O16   O     O_2   0.204080 0.762641 0.645490 -0.508337
O17   O     O_2   0.307764 0.601663 0.348469 -0.466863
O18   O     O_2   0.889192 0.744095 0.352790 -0.480448
C47   C     C_R   0.537902 0.684762 0.251090 0.351285
C48   C     C_R   0.553055 0.651913 0.191653 -0.203522
C49   C     C_R   0.648149 0.579751 0.169297 -0.247464
C50   C     C_R   0.729240 0.538090 0.207288 0.248703
C51   C     C_R   0.709838 0.568703 0.267433 0.298885
C52   C     C_R   0.615949 0.642541 0.289554 0.085591
C53   C     C_R   0.609221 0.832877 0.744442 -0.061071
C54   C     C_R   0.604568 0.860623 0.804316 0.330321
C55   C     C_R   0.466159 0.917941 0.830380 -0.215862
C56   C     C_R   0.336555 0.946696 0.794976 -0.163886
C57   C     C_R   0.345615 0.921513 0.734478 0.387278
C58   C     C_R   0.482611 0.862564 0.708950 0.144543
C59   C     C_2   0.648035 0.269817 0.000624 0.191289
C60   C     C_2   0.476801 0.229949 0.997527 -0.274478
O19   O     O_R   0.618210 0.960470 0.922400 -0.525579
O20   O     O_R   0.291310 0.111960 0.995450 -0.529633
O21   O     O_R   0.124210 0.039530 0.077580 -0.574310
C61   C     C_R   0.461748 0.144930 0.998020 0.871768
O22   O     O_R   0.288310 0.965490 0.917650 -0.537521
O23   O     O_R   0.121180 0.892010 0.999220 -0.526546
C62   C     C_R   0.456646 0.948895 0.893963 0.920263
O24   O     O_R   0.621230 0.107990 0.000760 -0.534222
O25   O     O_3   0.455770 0.976060 0.026840 -0.273187
V3    V     V_3+5 0.179680 0.004440 0.995020 1.296953
O26   O     O_R   0.791670 0.888040 0.004570 -0.520320
C63   C     C_R   0.961659 0.854666 0.000767 0.931644
O27   O     O_R   0.794680 0.034510 0.082370 -0.575422
C64   C     C_R   0.964499 0.050495 0.106027 0.845065
V4    V     V_3+5 0.680070 0.995560 0.005010 1.288776
O28   O     O_3   0.953840 0.023940 0.973160 -0.229168
N5    N     N_R   0.326047 0.765384 0.986289 0.102819
O29   O     O_R   0.462874 0.774850 0.024837 -0.366849
O30   O     O_R   0.363911 0.776159 0.935921 -0.314380
H1    H     H_    0.303970 0.175425 0.271774 0.111728
N6    N     N_R   0.414066 0.459498 0.705733 0.128507
O31   O     O_R   0.377823 0.465749 0.653936 -0.266469
O32   O     O_R   0.572896 0.490729 0.731012 -0.281555
H2    H     H_    0.391882 0.488224 0.819207 0.160768
N7    N     N_R   0.850669 0.336320 0.832529 0.099975
O33   O     O_R   0.907084 0.304015 0.873203 -0.328280
O34   O     O_R   0.673001 0.325656 0.813908 -0.328830
H3    H     H_    0.871155 0.308965 0.719421 0.173419
H4    H     H_    0.107108 0.681412 0.546986 0.148736
H5    H     H_    0.143408 0.625469 0.444388 0.166368
H6    H     H_    0.988116 0.823617 0.451353 0.156260
H7    H     H_    0.953926 0.878128 0.554109 0.169744
N8    N     N_R   0.443516 0.760793 0.271130 0.128252
O35   O     O_R   0.370170 0.782560 0.322208 -0.296584
O36   O     O_R   0.421836 0.807702 0.236958 -0.314712
H8    H     H_    0.843272 0.739344 0.006176 0.132437
H9    H     H_    0.491197 0.683331 0.162106 0.149116
N9    N     N_R   0.830874 0.464768 0.185148 0.124478
O37   O     O_R   0.753075 0.408342 0.145232 -0.343135
O38   O     O_R   0.000987 0.453796 0.205374 -0.260655
N10   N     N_R   0.776240 0.522631 0.305889 0.135544
O39   O     O_R   0.875454 0.555736 0.351790 -0.323497
O40   O     O_R   0.733025 0.447421 0.295887 -0.242591
H10   H     H_    0.714230 0.788056 0.725113 0.152948
N11   N     N_R   0.738353 0.828158 0.837999 0.098572
O41   O     O_R   0.899662 0.865462 0.855082 -0.337784
O42   O     O_R   0.719450 0.754576 0.840541 -0.297704
H11   H     H_    0.232380 0.991530 0.814810 0.163016
N12   N     N_R   0.219912 0.958143 0.700343 0.135526
O43   O     O_R   0.075531 0.001964 0.724075 -0.268205
O44   O     O_R   0.259420 0.955385 0.647148 -0.303726
N13   N     N_R   0.830013 0.230326 0.001645 0.099360
O45   O     O_R   0.938474 0.248817 0.047490 -0.330560
O46   O     O_R   0.902866 0.188846 0.953864 -0.302618
H12   H     H_    0.341842 0.261321 0.995724 0.135321
N14   N     N_R   0.702355 0.439296 0.545135 0.137440
O47   O     O_R   0.780588 0.509146 0.564523 -0.271199
O48   O     O_R   0.517687 0.434605 0.533913 -0.318808
H13   H     H_    0.695497 0.357480 0.438963 0.167970
N15   N     N_R   0.474070 0.096374 0.447808 0.147902
O49   O     O_R   0.421977 0.022383 0.439970 -0.237715
O50   O     O_R   0.653831 0.113307 0.440577 -0.331678
N16   N     N_R   0.519279 0.167646 0.563437 0.152040
O51   O     O_R   0.672391 0.211809 0.578085 -0.330900
O52   O     O_R   0.518549 0.095405 0.569834 -0.230289
H14   H     H_    0.714111 0.107716 0.291465 0.137501
H15   H     H_    0.684263 0.054387 0.187156 0.105342
H16   H     H_    0.278160 0.120370 0.168212 0.100811

loop_
_geom_bond_atom_site_label_1
_geom_bond_atom_site_label_2
_geom_bond_distance
_ccdc_geom_bond_type
C2    C59   1.475695 S    
C36   C37   1.408042 A    
N5    O29   1.300649 A    
C56   H11   1.083091 S    
C48   H9    1.083755 S    
C6    C63   1.482118 S    
C49   C50   1.412391 A    
O26   C63   1.304318 A    
C1    O6    1.292978 A    
C57   C58   1.420707 A    
O19   C62   1.294275 A    
C8    O12   1.346328 S    
C46   O18   1.349070 S    
C34   C35   1.412730 A    
N6    O32   1.301643 A    
C21   H14   1.083055 S    
C40   C45   1.411631 A    
O25   V3    2.153347 S    
N4    C52   1.449941 S    
C27   C32   1.415438 A    
C39   H5    1.082850 S    
C15   C16   1.414310 A    
N16   O52   1.300993 A    
C54   N11   1.430234 S    
N14   O48   1.301375 A    
N7    O34   1.301437 A    
O5    C3    1.295079 A    
C17   C18   1.408139 A    
C56   C57   1.414264 A    
O26   V4    2.017010 S    
V2    O10   2.152076 S    
O21   V3    1.969316 S    
O27   C64   1.299935 A    
C17   N15   1.433194 S    
C33   C37   1.409778 A    
C23   C24   1.408350 A    
O22   V3    1.971701 S    
C34   O16   1.348909 S    
C5    N5    1.436019 S    
C25   H1    1.083117 S    
N1    C32   1.447395 S    
O20   V3    2.017469 S    
N16   O51   1.300745 A    
C8    C9    1.416472 A    
C35   C36   1.409425 A    
O8    V2    1.974420 S    
C42   C46   1.410590 A    
C59   C60   1.363817 D    
C60   H12   1.086468 S    
C9    C12   1.422524 A    
C28   H2    1.083206 S    
C10   C11   1.416136 A    
O1    V2    2.020288 S    
O22   C62   1.301354 A    
C24   H16   1.083122 S    
O7    V1    2.153348 S    
O25   V4    1.703324 S    
C55   C62   1.492441 S    
O21   C64   1.293819 A    
C18   N16   1.434093 S    
C30   N7    1.436581 S    
C40   C41   1.408786 A    
N5    O30   1.301244 A    
O1    C2    1.290029 A    
O9    C4    1.296385 A    
C4    C5    1.476405 S    
C3    C29   1.489048 S    
O4    V1    2.017350 S    
O27   V4    1.974518 S    
C27   N6    1.441203 S    
O23   V3    2.020411 S    
C50   C51   1.419991 A    
C47   N8    1.444921 S    
C33   N3    1.373341 A    
C61   O24   1.285098 A    
C12   N14   1.434326 S    
N14   O47   1.301430 A    
N15   O50   1.300800 A    
C21   C22   1.402559 A    
O4    C2    1.296578 A    
C54   C55   1.413702 A    
N13   O45   1.300793 A    
C38   H4    1.083203 S    
C12   C13   1.396279 A    
C53   C54   1.401776 A    
C16   C20   1.422651 A    
C23   C64   1.487140 S    
C22   H15   1.083008 S    
C41   C42   1.409538 A    
C51   N10   1.438554 S    
O2    C1    1.298389 A    
C51   C52   1.418743 A    
C16   C17   1.418518 A    
O19   V4    1.972132 S    
C29   C30   1.417769 A    
V3    O28   1.704367 S    
O23   C63   1.285282 A    
C43   C44   1.398718 A    
C5    C6    1.363028 D    
C1    C49   1.485841 S    
C37   C44   1.406979 A    
C33   O15   1.347800 S    
C19   O13   1.349917 S    
N3    C58   1.450710 S    
C53   H10   1.083654 S    
C59   N13   1.435918 S    
O3    C4    1.290292 A    
C31   H3    1.083564 S    
C44   H7    1.083183 S    
N13   O46   1.300896 A    
C30   C31   1.404676 A    
C50   N9    1.437165 S    
N4    C46   1.372746 A    
O6    V2    1.971055 S    
O9    V2    2.016955 S    
C25   C26   1.403627 A    
C13   C14   1.398986 A    
N12   O43   1.301940 A    
C10   C15   1.422655 A    
C24   C25   1.397296 A    
N9    O38   1.301282 A    
C13   H13   1.083784 S    
O2    V1    1.971642 S    
C6    H8    1.085627 S    
C47   C52   1.419727 A    
N3    C34   1.373839 A    
N12   O44   1.301131 A    
N11   O41   1.300796 A    
C28   C29   1.405959 A    
C22   C23   1.407618 A    
C14   C19   1.406350 A    
C20   O14   1.348049 S    
N2    C26   1.449191 S    
C60   C61   1.482426 S    
C48   C49   1.400141 A    
O5    V1    1.969528 S    
O8    C3    1.298748 A    
C57   N12   1.443296 S    
C21   C26   1.406856 A    
C45   O17   1.348660 S    
N6    O31   1.300640 A    
V4    O28   2.152077 S    
N15   O49   1.301075 A    
C19   N2    1.368336 A    
C7    N1    1.367844 A    
N8    O36   1.301757 A    
C7    C11   1.418878 A    
C39   C40   1.407184 A    
C11   C18   1.420185 A    
C43   H6    1.083219 S    
O3    V1    2.020457 S    
C7    O11   1.348302 S    
N8    O35   1.300590 A    
C45   N4    1.373463 A    
C38   C39   1.400103 A    
N10   O39   1.300578 A    
C53   C58   1.403028 A    
N2    C20   1.372514 A    
O20   C61   1.304685 A    
O7    V2    1.703597 S    
C42   C43   1.406290 A    
C55   C56   1.406207 A    
C27   C28   1.407277 A    
C47   C48   1.406781 A    
N1    C8    1.367237 A    
C31   C32   1.402054 A    
N7    O33   1.301063 A    
C14   C15   1.409488 A    
N10   O40   1.301329 A    
C9    C10   1.421292 A    
V1    O10   1.704314 S    
N9    O37   1.301180 A    
C36   C41   1.419515 A    
O24   V4    2.020642 S    
N11   O42   1.300532 A    
C35   C38   1.406956 A    
