data_mof_unit_2901.cif
_audit_creation_date              2013-03-05T15:49:18-0500
_audit_creation_method            fapswitch 2.2
_symmetry_space_group_name_H-M    P1
_symmetry_Int_Tables_number       1
_space_group_crystal_system       triclinic
_cell_length_a                    20.677298
_cell_length_b                    22.808914
_cell_length_c                    6.93386
_cell_angle_alpha                 89.761813
_cell_angle_beta                  86.109432
_cell_angle_gamma                 90.037536
_cell_volume                      3262.62767472

loop_
_atom_site_label
_atom_site_type_symbol
_atom_site_description
_atom_site_fract_x
_atom_site_fract_y
_atom_site_fract_z
_atom_type_partial_charge
O1    O     O_R   0.387100 0.552640 0.378490 -0.582148
O2    O     O_R   0.612900 0.052640 0.621510 -0.581647
O3    O     O_R   0.249610 0.559600 0.072250 -0.581003
O4    O     O_R   0.750390 0.059600 0.927750 -0.569766
O5    O     O_R   0.249120 0.447360 0.902040 -0.607483
O6    O     O_R   0.750880 0.947360 0.097960 -0.609770
C1    C     C_R   0.224994 0.571339 0.245579 1.028143
C2    C     C_R   0.775187 0.071123 0.754187 1.035589
O7    O     O_R   0.386610 0.559560 0.048860 -0.581829
O8    O     O_R   0.613390 0.059560 0.951140 -0.580471
O9    O     O_R   0.387100 0.447320 0.878470 -0.592948
O10   O     O_R   0.612900 0.947320 0.121530 -0.607595
C3    C     C_R   0.406217 0.576503 0.213815 1.004021
C4    C     C_R   0.593890 0.076526 0.785368 1.005802
O11   O     O_R   0.249120 0.552680 0.402050 -0.585912
O12   O     O_R   0.750880 0.052680 0.597950 -0.596232
O13   O     O_3   0.318110 0.463180 0.223790 -0.290069
O14   O     O_3   0.681890 0.963180 0.776210 -0.297819
V1    V     V_3+5 0.318110 0.506830 0.948930 1.245089
V2    V     V_3+5 0.681890 0.006830 0.051070 1.233874
O15   O     O_R   0.386610 0.440400 0.548840 -0.601738
O16   O     O_R   0.613390 0.940400 0.451160 -0.588952
C5    C     C_R   0.406939 0.424742 0.714558 0.986449
C6    C     C_R   0.592731 0.924915 0.287068 0.988822
O17   O     O_R   0.249610 0.440440 0.572240 -0.623108
O18   O     O_R   0.750390 0.940440 0.427760 -0.618837
C7    C     C_R   0.226997 0.427063 0.745634 1.100048
C8    C     C_R   0.773246 0.927315 0.254707 1.098084
V3    V     V_3+5 0.318110 0.493170 0.448930 1.220214
V4    V     V_3+5 0.681890 0.993170 0.551070 1.214607
O19   O     O_3   0.318110 0.536820 0.723940 -0.248736
O20   O     O_3   0.681890 0.036820 0.276060 -0.252604
C9    C     C_R   0.170788 0.387420 0.765743 -0.450964
C10   C     C_R   0.829743 0.888063 0.234771 -0.463889
C11   C     C_R   0.177707 0.327537 0.721263 0.533179
C12   C     C_R   0.825516 0.830204 0.305120 0.521342
C13   C     C_R   0.123139 0.290465 0.740264 -0.191431
C14   C     C_R   0.879829 0.793187 0.281542 -0.204221
C15   C     C_R   0.060755 0.313640 0.783020 0.016515
C16   C     C_R   0.940986 0.815655 0.216531 0.009134
C17   C     C_R   0.054664 0.373571 0.824750 -0.178349
C18   C     C_R   0.944606 0.873954 0.150736 -0.184317
C19   C     C_R   0.109370 0.409950 0.825238 0.511709
C20   C     C_R   0.888904 0.909002 0.148446 0.512430
C21   C     C_R   0.919823 0.164398 0.868392 -0.080441
C22   C     C_R   0.083423 0.668775 0.132456 -0.078138
C23   C     C_R   0.866510 0.126613 0.891019 -0.088985
C24   C     C_R   0.136026 0.630342 0.108583 -0.115160
C25   C     C_R   0.849923 0.136595 0.550089 -0.096931
C26   C     C_R   0.150699 0.635942 0.451404 -0.079919
C27   C     C_R   0.902200 0.175417 0.528627 -0.005614
C28   C     C_R   0.099727 0.675909 0.473851 -0.001911
C29   C     C_R   0.937370 0.190195 0.687627 0.104300
C30   C     C_R   0.065658 0.693093 0.314797 0.101351
C31   C     C_2   0.001166 0.276097 0.791090 0.196564
C32   C     C_2   0.001525 0.779096 0.211541 0.202798
C33   C     C_2   0.992919 0.232066 0.661438 0.129125
C34   C     C_2   0.010636 0.735406 0.343067 0.134303
C35   C     C_R   0.830927 0.112228 0.731994 -0.127122
C36   C     C_R   0.170074 0.613186 0.268120 -0.122944
H1    H     H_    0.853891 0.107843 0.032320 0.144112
H2    H     H_    0.149055 0.613031 0.966018 0.143913
H3    H     H_    0.823912 0.126264 0.424138 0.162207
H4    H     H_    0.175368 0.623440 0.578101 0.163748
H5    H     H_    0.007165 0.392492 0.857373 0.186184
H6    H     H_    0.990816 0.892783 0.100448 0.188896
H7    H     H_    0.947277 0.173616 0.992352 0.141276
H8    H     H_    0.056660 0.679521 0.008161 0.145808
H9    H     H_    0.129532 0.243790 0.718856 0.168897
H10   H     H_    0.874152 0.747349 0.319586 0.177967
H11   H     H_    0.914830 0.194399 0.387583 0.160267
H12   H     H_    0.087098 0.693648 0.616117 0.159549
C37   C     C_R   0.575035 0.370746 0.773971 0.666056
C38   C     C_R   0.427113 0.863892 0.413881 0.660584
H13   H     H_    0.529060 0.454395 0.749217 0.141762
H14   H     H_    0.474726 0.947008 0.436509 0.137773
C39   C     C_R   0.461795 0.383994 0.718763 -0.185386
C40   C     C_R   0.538007 0.883555 0.297098 -0.186258
C41   C     C_R   0.478233 0.098689 0.797940 -0.232418
C42   C     C_R   0.520632 0.601263 0.150995 -0.224233
C43   C     C_R   0.425052 0.135378 0.824600 -0.164276
C44   C     C_R   0.574564 0.636779 0.162794 -0.147629
C45   C     C_R   0.432496 0.196216 0.834201 0.348952
C46   C     C_R   0.568592 0.694584 0.227831 0.345627
C47   C     C_R   0.494921 0.222008 0.792114 -0.041916
C48   C     C_R   0.505825 0.720362 0.260000 -0.043807
C49   C     C_R   0.550468 0.183906 0.782976 -0.109433
C50   C     C_R   0.450394 0.682161 0.264356 -0.109636
C51   C     C_R   0.504062 0.284244 0.764560 0.047754
C52   C     C_R   0.496445 0.782376 0.291227 0.050176
C53   C     C_R   0.567272 0.308720 0.770685 -0.241209
C54   C     C_R   0.434995 0.803353 0.367611 -0.221378
C55   C     C_R   0.621072 0.271006 0.772479 0.256006
C56   C     C_R   0.382378 0.764004 0.388332 0.265650
C57   C     C_R   0.612856 0.210005 0.772617 0.202983
C58   C     C_R   0.389128 0.705915 0.325048 0.205672
C59   C     C_R   0.452694 0.323004 0.723845 -0.093647
C60   C     C_R   0.545641 0.824706 0.242452 -0.101428
C61   C     C_R   0.522431 0.407239 0.746764 -0.334628
C62   C     C_R   0.479741 0.902048 0.387580 -0.332432
C63   C     C_R   0.541123 0.121178 0.786474 -0.135409
C64   C     C_R   0.458817 0.621456 0.210347 -0.135823
H15   H     H_    0.405339 0.306828 0.694127 0.149981
H16   H     H_    0.590451 0.812955 0.163318 0.146194
H17   H     H_    0.470254 0.051692 0.798398 0.130976
H18   H     H_    0.527781 0.556077 0.106453 0.123237
H19   H     H_    0.377586 0.115708 0.851314 0.170065
H20   H     H_    0.622090 0.617599 0.133259 0.171605
O21   O     O_3   0.238803 0.304819 0.675194 -0.614797
C65   C     C_3   0.243434 0.288407 0.478858 -0.019659
H21   H     H_    0.231333 0.325589 0.382971 0.118666
H22   H     H_    0.212141 0.249903 0.453519 0.154744
H23   H     H_    0.294269 0.275494 0.438502 0.180724
O22   O     O_3   0.767000 0.809113 0.385849 -0.595324
C66   C     C_3   0.772439 0.799902 0.585569 0.046460
H24   H     H_    0.791135 0.839546 0.657224 0.078285
H25   H     H_    0.803582 0.761344 0.611727 0.148502
H26   H     H_    0.723566 0.790589 0.654683 0.183356
N1    N     N_R   0.685891 0.293855 0.755451 0.292513
O23   O     O_R   0.711158 0.311214 0.587930 -0.285400
O24   O     O_R   0.721125 0.293503 0.903917 -0.273295
N2    N     N_R   0.319648 0.782995 0.464387 0.286446
O25   O     O_R   0.306247 0.783547 0.650429 -0.279663
O26   O     O_R   0.273569 0.791746 0.348772 -0.291350
O27   O     O_3   0.634172 0.396636 0.801424 -0.592130
C67   C     C_3   0.634928 0.413525 0.996817 -0.046116
H27   H     H_    0.625669 0.375501 0.096287 0.135970
H28   H     H_    0.599318 0.449089 0.032145 0.081072
H29   H     H_    0.683779 0.430866 0.021729 0.198043
O28   O     O_3   0.369549 0.885349 0.499625 -0.597403
C68   C     C_3   0.340416 0.922886 0.368295 -0.065424
H30   H     H_    0.336438 0.901719 0.225003 0.145591
H31   H     H_    0.367104 0.965096 0.350987 0.095211
H32   H     H_    0.290509 0.933071 0.427363 0.196585
N3    N     N_R   0.378275 0.229339 0.915764 0.218382
O29   O     O_R   0.386328 0.265822 0.056034 -0.420540
O30   O     O_R   0.319603 0.215518 0.875822 -0.374420
N4    N     N_R   0.626046 0.722497 0.288420 0.223189
O31   O     O_R   0.681241 0.715525 0.189397 -0.375985
O32   O     O_R   0.625431 0.746344 0.458715 -0.400095
N5    N     N_R   0.670060 0.175421 0.760859 0.209794
O33   O     O_R   0.699515 0.167283 0.591423 -0.390315
O34   O     O_R   0.702480 0.170697 0.914415 -0.366781
N6    N     N_R   0.331430 0.672370 0.318625 0.213661
O35   O     O_R   0.299642 0.658604 0.480751 -0.374172
O36   O     O_R   0.301269 0.673872 0.160130 -0.376117
N7    N     N_R   0.035998 0.226026 0.490050 0.229254
O37   O     O_R   0.048866 0.174221 0.419612 -0.394498
O38   O     O_R   0.055202 0.271994 0.390010 -0.373884
N8    N     N_R   0.969294 0.730232 0.518504 0.226899
O39   O     O_R   0.955309 0.678720 0.591245 -0.394781
O40   O     O_R   0.951928 0.776641 0.617509 -0.381619
O41   O     O_3   0.102170 0.468797 0.868819 -0.629696
C69   C     C_3   0.088791 0.474260 0.070240 -0.160566
H33   H     H_    0.080689 0.521111 0.104694 0.153155
H34   H     H_    0.130510 0.458867 0.150311 0.124041
H35   H     H_    0.043802 0.450561 0.121849 0.166408
O42   O     O_3   0.893483 0.965784 0.077947 -0.629215
C70   C     C_3   0.901847 0.963592 0.874350 -0.157708
H36   H     H_    0.905501 0.008960 0.817351 0.140871
H37   H     H_    0.859548 0.942376 0.811735 0.124589
H38   H     H_    0.947496 0.940845 0.824448 0.166474
N9    N     N_R   0.950068 0.289798 0.936107 0.225333
O43   O     O_R   0.964256 0.305932 0.107936 -0.342902
O44   O     O_R   0.890315 0.293980 0.889392 -0.308850
N10   N     N_R   0.052942 0.793323 0.067638 0.223760
O45   O     O_R   0.039680 0.806202 0.891793 -0.344069
O46   O     O_R   0.112181 0.799480 0.117073 -0.318621

loop_
_geom_bond_atom_site_label_1
_geom_bond_atom_site_label_2
_geom_bond_distance
_ccdc_geom_bond_type
V4    O20   2.147475 S    
C43   H19   1.083018 S    
C67   H27   1.114186 S    
C25   H3    1.082946 S    
C13   H9    1.082453 S    
C20   O42   1.383336 S    
N7    O37   1.301209 A    
O4    C2    1.301439 A    
C68   H32   1.109227 S    
V1    O19   1.700820 S    
C50   C58   1.416299 A    
O22   C66   1.411838 S    
N3    O29   1.301805 A    
C15   C17   1.402383 A    
C7    C9    1.470867 S    
C22   H8    1.082701 S    
O9    V1    2.007379 S    
C27   H11   1.083401 S    
O16   C6    1.292633 A    
N9    O44   1.301821 A    
C46   C48   1.429237 A    
O3    C1    1.301934 A    
N5    O34   1.300246 A    
C2    C35   1.484722 S    
C30   C34   1.495646 S    
C48   C50   1.437908 A    
C53   C55   1.407374 A    
O12   V4    2.011747 S    
C66   H24   1.115026 S    
C42   H18   1.084488 S    
C26   H4    1.082677 S    
C41   H17   1.084415 S    
N3    O30   1.301416 A    
C21   C23   1.398830 A    
C38   C54   1.425860 A    
O7    C3    1.299360 A    
C65   H21   1.114480 S    
C51   C59   1.424528 A    
O13   V1    2.146553 S    
C49   C63   1.443518 A    
C52   C54   1.426720 A    
O7    V1    2.017591 S    
C15   C31   1.497823 S    
N9    O43   1.300749 A    
O8    V2    2.015263 S    
C16   C32   1.503074 S    
C49   C57   1.417638 A    
C40   C60   1.402366 A    
C26   C28   1.395081 A    
C70   H37   1.113720 S    
O3    V1    2.008106 S    
O14   V4    1.701772 S    
C44   H20   1.083066 S    
C51   C53   1.424256 A    
O21   C65   1.410396 S    
C45   N3    1.437432 S    
C11   O21   1.383441 S    
C24   C36   1.405310 A    
C47   C49   1.438876 A    
C46   N4    1.436008 S    
C55   C57   1.401575 A    
O5    C7    1.292645 A    
N10   O46   1.301832 A    
C17   C19   1.402638 A    
O10   V2    2.003363 S    
N5    O33   1.300193 A    
C18   C20   1.403373 A    
C38   C62   1.394763 A    
H13   C61   1.084537 S    
C43   C45   1.398410 A    
C28   C30   1.402989 A    
O11   V3    2.011186 S    
N1    O24   1.300890 A    
O15   C5    1.298820 A    
O17   V3    2.002153 S    
C22   C24   1.398913 A    
C23   C35   1.406290 A    
C9    C19   1.406627 A    
C10   C20   1.407221 A    
C37   C53   1.424180 A    
C69   H35   1.112740 S    
C42   C44   1.385010 A    
C48   C52   1.443052 A    
C41   C43   1.385144 A    
C29   C33   1.494376 S    
N6    O35   1.300336 A    
C4    C63   1.492707 S    
C17   H5    1.083181 S    
C1    O11   1.294986 A    
C67   H29   1.109192 S    
C25   C27   1.396617 A    
O15   V3    2.015753 S    
C42   C64   1.395072 A    
C27   C29   1.403388 A    
O42   C70   1.411673 S    
C40   C62   1.386839 A    
C21   H7    1.082958 S    
C28   H12   1.083281 S    
C58   N6    1.420226 S    
C24   H2    1.083012 S    
C70   H36   1.106875 S    
V3    O19   2.154812 S    
C66   H26   1.108669 S    
C22   C30   1.408608 A    
C54   C56   1.409370 A    
C70   H38   1.112501 S    
C5    C39   1.468613 S    
C56   C58   1.401530 A    
C65   H23   1.109546 S    
C69   H33   1.106368 S    
C59   H15   1.079312 S    
N4    O32   1.301393 A    
C56   N2    1.434554 S    
N6    O36   1.300223 A    
C14   H10   1.081556 S    
C45   C47   1.429628 A    
C57   N5    1.420097 S    
C44   C46   1.398074 A    
C33   N7    1.443103 S    
O8    C4    1.301124 A    
O27   C67   1.411173 S    
N8    O40   1.301472 A    
O1    C3    1.299849 A    
N2    O26   1.301117 A    
C68   H30   1.114474 S    
C38   O28   1.384508 S    
C1    C36   1.484464 S    
C67   H28   1.112716 S    
C11   C13   1.408235 A    
V2    O20   1.706029 S    
C6    C40   1.470548 S    
C37   C61   1.392570 A    
C66   H25   1.111897 S    
C47   C51   1.442156 A    
O16   V4    2.018081 S    
N7    O38   1.301600 A    
C69   H34   1.113286 S    
C52   C60   1.425007 A    
C16   C18   1.404335 A    
C68   H31   1.111392 S    
C23   H1    1.083052 S    
C50   C64   1.443436 A    
N1    O23   1.300969 A    
O18   V4    2.007531 S    
O5    V1    2.011147 S    
H14   C62   1.084328 S    
O6    V2    2.010584 S    
O10   C6    1.297095 A    
O18   C8    1.295769 A    
C25   C35   1.407385 A    
O2    V4    2.006734 S    
C26   C36   1.407715 A    
C31   C33   1.368927 D    
O28   C68   1.412017 S    
N2    O25   1.301019 A    
C31   N9    1.443597 S    
C13   C15   1.407679 A    
O13   V3    1.706982 S    
C12   C14   1.406537 A    
C14   C16   1.408840 A    
O1    V3    2.002720 S    
N10   O45   1.300240 A    
C37   O27   1.382655 S    
O9    C5    1.291163 A    
C9    C11   1.406756 A    
C10   C12   1.405660 A    
C32   C34   1.369783 D    
C12   O22   1.383413 S    
C39   C61   1.387021 A    
O14   V2    2.153890 S    
C8    C10   1.471676 S    
O2    C4    1.298858 A    
C65   H22   1.112116 S    
N4    O31   1.301549 A    
C21   C29   1.407385 A    
O4    V2    2.002725 S    
O6    C8    1.291727 A    
C2    O12   1.296361 A    
C32   N10   1.443643 S    
C18   H6    1.082592 S    
N8    O39   1.301269 A    
C41   C63   1.394704 A    
C39   C59   1.403637 A    
C55   N1    1.434924 S    
C3    C64   1.493167 S    
C19   O41   1.382962 S    
C60   H16   1.078861 S    
C34   N8    1.442919 S    
O41   C69   1.411273 S    
O17   C7    1.295259 A    
