data_mof_unit_1851.cif
_audit_creation_date              2012-12-10T18:37:08-0500
_audit_creation_method            fapswitch 2.2
_symmetry_space_group_name_H-M    P1
_symmetry_Int_Tables_number       1
_space_group_crystal_system       triclinic
_cell_length_a                    14.96961
_cell_length_b                    15.44849
_cell_length_c                    23.429957
_cell_angle_alpha                 89.784552
_cell_angle_beta                  104.706641
_cell_angle_gamma                 82.422771
_cell_volume                      5191.16514864

loop_
_atom_site_label
_atom_site_type_symbol
_atom_type_description
_atom_site_fract_x
_atom_site_fract_y
_atom_site_fract_z
_atom_type_partial_charge
C1    C     C_R   0.441795 0.662321 0.490586 0.868725
C2    C     C_R   0.580599 0.506580 0.310098 -0.231807
C3    C     C_R   0.420958 0.491971 0.750169 0.211989
C4    C     C_R   0.581878 0.504902 0.250810 0.211063
C5    C     C_R   0.503584 0.504414 0.792340 0.296126
C6    C     C_R   0.499139 0.494207 0.208168 0.294862
C7    C     C_R   0.406818 0.754663 0.476097 -0.061538
C8    C     C_R   0.592543 0.245368 0.502833 -0.060729
C9    C     C_R   0.283521 0.871427 0.433333 -0.209149
C10   C     C_R   0.716278 0.127549 0.503294 -0.208916
C11   C     C_R   0.312324 0.784057 0.451713 -0.178954
C12   C     C_R   0.558129 0.337645 0.507130 0.871056
C13   C     C_R   0.687301 0.215315 0.510819 -0.180560
C14   C     C_R   0.471707 0.812641 0.481420 -0.239723
C15   C     C_R   0.527383 0.187878 0.485759 -0.243319
C16   C     C_R   0.500808 0.500570 0.610669 0.885212
C17   C     C_R   0.499298 0.499302 0.389360 0.883448
C18   C     C_R   0.445692 0.898680 0.459187 0.087269
C19   C     C_R   0.553932 0.100905 0.474436 0.086127
C20   C     C_R   0.349289 0.930540 0.437500 0.098399
C21   C     C_R   0.650581 0.068428 0.486347 0.101268
C22   C     C_R   0.514054 0.954484 0.461930 0.012241
C23   C     C_R   0.584033 0.515977 0.774997 -0.132648
C24   C     C_R   0.485762 0.044673 0.455833 0.012346
C25   C     C_R   0.390319 0.076121 0.431637 -0.212329
C26   C     C_R   0.609678 0.922429 0.470566 -0.216097
C27   C     C_R   0.321379 0.020192 0.421202 0.140930
C28   C     C_R   0.678761 0.978090 0.481846 0.140603
C29   C     C_R   0.844151 0.635043 0.589605 -0.327612
C30   C     C_R   0.150966 0.378458 0.402543 -0.329209
C31   C     C_R   0.754678 0.612621 0.574839 0.009114
C32   C     C_R   0.242833 0.393857 0.421278 0.009733
C33   C     C_R   0.792552 0.513703 0.504533 -0.064031
C34   C     C_R   0.417841 0.483965 0.224935 -0.132368
C35   C     C_R   0.207252 0.487257 0.495026 -0.063650
C36   C     C_R   0.884228 0.534598 0.516720 -0.000554
C37   C     C_R   0.112666 0.474519 0.478091 -0.002612
C38   C     C_R   0.909545 0.595693 0.560998 0.184520
C39   C     C_R   0.085648 0.418001 0.431088 0.186616
C40   C     C_R   0.520054 0.418333 0.122169 0.507072
C41   C     C_R   0.484170 0.580280 0.878601 0.484745
C42   C     C_R   0.951211 0.496374 0.487369 0.081997
C43   C     C_R   0.044635 0.515974 0.505581 0.080667
C44   C     C_R   0.066584 0.577046 0.550077 -0.240420
C45   C     C_R   0.583416 0.514981 0.715693 -0.219503
C46   C     C_R   0.927550 0.440172 0.440010 -0.239517
C47   C     C_R   0.999860 0.616662 0.576679 -0.211053
C48   C     C_R   0.993632 0.402139 0.412396 -0.208581
C49   C     C_R   0.473523 0.573064 0.115719 0.486490
C50   C     C_R   0.530322 0.425502 0.884939 0.508309
C51   C     C_R   0.475373 0.576493 0.056475 -0.015239
C52   C     C_R   0.528876 0.422103 0.944266 -0.017728
C53   C     C_R   0.500658 0.498365 0.030106 -0.022990
C54   C     C_R   0.503790 0.500249 0.970683 -0.022378
C55   C     C_R   0.522855 0.418375 0.063027 -0.017400
C56   C     C_R   0.417561 0.485105 0.284108 -0.220826
C57   C     C_R   0.481684 0.580258 0.937789 -0.014432
C58   C     C_R   0.453527 0.655845 0.023352 -0.161256
C59   C     C_R   0.550910 0.342776 0.977428 -0.162553
C60   C     C_R   0.456735 0.657723 0.964501 -0.162050
C61   C     C_R   0.547910 0.340926 0.036327 -0.162325
C62   C     C_3   0.332253 0.480014 0.767224 -0.427107
C63   C     C_3   0.312197 0.385786 0.759982 -0.819619
C64   C     C_3   0.671394 0.515937 0.234454 -0.411488
C65   C     C_3   0.744257 0.435348 0.253756 -0.843236
C66   C     C_3   0.218395 0.054734 0.395269 -0.393580
C67   C     C_R   0.502021 0.502236 0.673188 -0.078595
C68   C     C_3   0.194703 0.152610 0.379637 -0.902849
C69   C     C_3   0.782039 0.942372 0.491832 -0.415380
C70   C     C_3   0.805636 0.843830 0.485941 -0.863497
C71   C     C_R   0.498815 0.496981 0.326989 -0.076509
C72   C     C_R   0.421080 0.491198 0.690652 -0.234362
H1    H     H_    0.434051 0.716659 0.042781 0.192527
H2    H     H_    0.767433 0.466056 0.473288 0.125594
H3    H     H_    0.293840 0.364730 0.399027 0.133300
H4    H     H_    0.703276 0.642448 0.596555 0.135335
H5    H     H_    0.862158 0.682404 0.623156 0.149754
H6    H     H_    0.130823 0.336976 0.365618 0.154224
H7    H     H_    0.134631 0.596990 0.565041 0.138475
H8    H     H_    0.857844 0.425295 0.422201 0.134789
H9    H     H_    0.439398 0.719893 0.940026 0.192193
H10   H     H_    0.565329 0.278769 0.060820 0.191120
H11   H     H_    0.647242 0.525273 0.807752 0.146260
H12   H     H_    0.570310 0.281956 0.957981 0.191544
H13   H     H_    0.354671 0.475628 0.191830 0.145717
H14   H     H_    0.646639 0.523741 0.703234 0.168084
H15   H     H_    0.353752 0.477408 0.296165 0.166512
H16   H     H_    0.357519 0.482208 0.658047 0.163733
H17   H     H_    0.643845 0.515654 0.342970 0.164131
H18   H     H_    0.455360 0.211368 0.483369 0.159144
H19   H     H_    0.543140 0.789982 0.504484 0.155883
H20   H     H_    0.739040 0.259350 0.523220 0.157758
H21   H     H_    0.260785 0.739664 0.446628 0.159038
H22   H     H_    0.247534 0.378732 0.773517 0.248552
H23   H     H_    0.209562 0.891441 0.415778 0.133353
H24   H     H_    0.302203 0.367515 0.713205 0.254813
H25   H     H_    0.370683 0.340571 0.788226 0.291100
H26   H     H_    0.335879 0.497378 0.813581 0.213638
H27   H     H_    0.272943 0.524481 0.738968 0.207386
H28   H     H_    0.762784 0.424729 0.302494 0.246389
H29   H     H_    0.717267 0.376559 0.232520 0.291324
H30   H     H_    0.808403 0.444669 0.240267 0.249646
H31   H     H_    0.659817 0.527578 0.186214 0.211951
H32   H     H_    0.699355 0.574163 0.256050 0.210689
H33   H     H_    0.215637 0.190647 0.419834 0.265035
H34   H     H_    0.790407 0.106985 0.511326 0.133781
H35   H     H_    0.229456 0.171027 0.345640 0.261500
H36   H     H_    0.118193 0.169146 0.361349 0.253178
H37   H     H_    0.192325 0.019576 0.354368 0.211432
H38   H     H_    0.178887 0.040179 0.427602 0.206152
H39   H     H_    0.783001 0.806864 0.519290 0.260276
H40   H     H_    0.772432 0.824345 0.440743 0.263091
H41   H     H_    0.882310 0.826599 0.493877 0.254767
H42   H     H_    0.810292 0.975928 0.459587 0.209338
H43   H     H_    0.819720 0.958191 0.537052 0.207796
H44   H     H_    0.369935 0.144217 0.418773 0.160620
H45   H     H_    0.630180 0.853830 0.466425 0.166298
H46   H     H_    0.019507 0.663524 0.610360 0.147400
H47   H     H_    0.972439 0.359726 0.376071 0.145750
H48   H     H_    0.234777 0.528946 0.529902 0.126364
N1    N     N_R   0.496500 0.494997 0.147046 -0.360050
N2    N     N_R   0.507137 0.503550 0.853598 -0.358822
N3    N     N_R   0.731690 0.552740 0.533440 -0.098767
N4    N     N_R   0.268310 0.447260 0.466560 -0.098170
O1    O     O_R   0.383120 0.605620 0.483150 -0.616711
O2    O     O_2   0.462806 0.655863 0.845941 -0.561398
O3    O     O_2   0.450019 0.646968 0.142188 -0.558143
O4    O     O_2   0.553930 0.351631 0.858477 -0.562757
O5    O     O_R   0.616880 0.394380 0.516850 -0.616360
O6    O     O_R   0.531890 0.639510 0.504600 -0.620395
O7    O     O_R   0.468110 0.360490 0.495400 -0.618719
O8    O     O_R   0.425590 0.483070 0.573110 -0.622850
O9    O     O_R   0.574410 0.516930 0.426890 -0.623828
O10   O     O_R   0.574360 0.516970 0.594570 -0.620133
O11   O     O_R   0.425640 0.483030 0.405430 -0.622662
O12   O     O_2   0.541261 0.342746 0.154815 -0.564352
Zn1   Zn    Zn3+2 0.400660 0.477370 0.485670 0.943502
Zn2   Zn    Zn3+2 0.599340 0.522630 0.514330 0.943236

loop_
_geom_bond_atom_site_label_1
_geom_bond_atom_site_label_2
_ccdc_geom_bond_type
C64   H31   S    
C66   C68   S    
C34   C56   A    
C8    C13   A    
C23   C45   A    
C12   O7    A    
C32   N4    A    
C36   C42   A    
C28   C69   S    
C50   N2    A    
C26   H45   S    
C65   H29   S    
C16   O10   A    
C32   H3    S    
C45   H14   S    
C53   C54   A    
C7    C11   A    
C40   N1    A    
C40   O12   S    
C63   H22   S    
C23   H11   S    
C35   N4    A    
C35   C37   A    
C1    O1    A    
C61   H10   S    
C58   C60   A    
C55   C61   A    
C33   C36   A    
C64   H32   S    
C67   C72   A    
C42   C46   A    
C14   C18   A    
C22   C26   A    
C62   H26   S    
C47   H46   S    
O5    Zn2   S    
C49   C51   A    
C5    C23   A    
C29   C38   A    
C45   C67   A    
C50   C52   A    
C68   H35   S    
C7    C14   A    
C9    H23   S    
C44   C47   A    
C11   H21   S    
O9    Zn2   S    
C10   C21   A    
C1    C7    S    
C35   H48   S    
C65   H30   S    
C72   H16   S    
C52   C54   A    
C48   H47   S    
C53   C55   A    
C70   H41   S    
C49   O3    S    
C46   C48   A    
C69   H42   S    
C59   C61   A    
C12   O5    A    
N4    Zn1   S    
C59   H12   S    
C4    C6    A    
C1    O6    A    
C25   H44   S    
C16   C67   S    
C56   H15   S    
O1    Zn1   S    
O8    Zn1   S    
C63   H24   S    
C66   H38   S    
C6    C34   A    
C51   C53   A    
C34   H13   S    
C41   N2    A    
C37   C43   A    
C2    H17   S    
C15   C19   A    
C43   C44   A    
C17   O11   A    
C62   C63   S    
O7    Zn1   S    
C52   C59   A    
C37   C39   A    
C60   H9    S    
C9    C20   A    
N3    Zn2   S    
C8    C12   S    
C40   C55   A    
C49   N1    A    
C51   C58   A    
C24   C25   A    
C9    C11   A    
C38   C47   A    
C70   H40   S    
C21   C28   A    
C17   C71   S    
C8    C15   A    
C13   H20   S    
C17   O9    A    
C22   C24   A    
C10   H34   S    
C50   O4    S    
C68   H33   S    
C2    C71   A    
O6    Zn2   S    
C3    C62   S    
O11   Zn1   S    
C69   H43   S    
C19   C21   A    
C18   C22   A    
C41   O2    S    
C44   H7    S    
C65   H28   S    
C3    C5    A    
C10   C13   A    
O10   Zn2   S    
C20   C27   A    
C25   C27   A    
C68   H36   S    
C4    C64   S    
C26   C28   A    
C64   C65   S    
C36   C38   A    
C19   C24   A    
C31   N3    A    
C29   C31   A    
C27   C66   S    
C15   H18   S    
C30   C32   A    
C31   H4    S    
C2    C4    A    
C5    N2    S    
C30   C39   A    
C3    C72   A    
C18   C20   A    
C66   H37   S    
C69   C70   S    
C16   O8    A    
C14   H19   S    
C70   H39   S    
C41   C57   A    
C62   H27   S    
C30   H6    S    
C33   H2    S    
C57   C60   A    
C29   H5    S    
C58   H1    S    
C63   H25   S    
C42   C43   A    
C33   N3    A    
C46   H8    S    
C6    N1    S    
C56   C71   A    
C39   C48   A    
C54   C57   A    
