data_mof_unit_3280.cif
_audit_creation_date              2012-12-10T17:37:27-0500
_audit_creation_method            fapswitch 2.2
_symmetry_space_group_name_H-M    P1
_symmetry_Int_Tables_number       1
_space_group_crystal_system       triclinic
_cell_length_a                    11.988986
_cell_length_b                    12.806795
_cell_length_c                    16.723329
_cell_angle_alpha                 90.259668
_cell_angle_beta                  81.526044
_cell_angle_gamma                 92.943453
_cell_volume                      2536.31369474

loop_
_atom_site_label
_atom_site_type_symbol
_atom_type_description
_atom_site_fract_x
_atom_site_fract_y
_atom_site_fract_z
_atom_type_partial_charge
C1    C     C_R   0.521839 0.699794 0.497296 0.996893
C2    C     C_R   0.478281 0.300043 0.502183 0.980112
C3    C     C_R   0.466716 0.190066 0.515581 -0.225257
C4    C     C_R   0.533933 0.809451 0.483349 -0.228795
C5    C     C_R   0.509895 0.949682 0.392913 0.576786
C6    C     C_R   0.491958 0.049937 0.605840 0.575485
C7    C     C_R   0.534851 0.846095 0.404293 -0.008694
C8    C     C_R   0.465117 0.152968 0.594595 -0.012247
C9    C     C_R   0.516019 0.874025 0.550620 0.448358
C10   C     C_R   0.486910 0.125809 0.448189 0.442138
C11   C     C_R   0.503422 0.980878 0.539201 -0.240820
C12   C     C_R   0.499208 0.018866 0.459558 -0.238660
C13   C     C_R   0.961328 0.390490 0.434466 0.467668
C14   C     C_R   0.038546 0.609159 0.565967 0.466460
C15   C     C_R   0.843990 0.402140 0.440729 -0.103351
C16   C     C_R   0.156050 0.598026 0.559151 -0.103090
C17   C     C_R   0.855509 0.549295 0.525956 -0.044371
C18   C     C_R   0.144063 0.449867 0.475080 -0.045382
C19   C     C_R   0.973222 0.540285 0.523269 -0.104048
C20   C     C_R   0.026487 0.459193 0.477423 -0.101843
C21   C     C_R   0.485045 0.503289 0.654172 0.885503
C22   C     C_R   0.514425 0.492222 0.346327 0.875675
C23   C     C_R   0.474037 0.494307 0.741767 -0.099854
C24   C     C_R   0.522078 0.460149 0.262077 -0.097818
C25   C     C_R   0.562865 0.526619 0.784434 0.177269
C26   C     C_R   0.441176 0.388404 0.236105 0.173937
C27   C     C_R   0.553789 0.500335 0.865785 -0.209929
C28   C     C_R   0.458938 0.352430 0.156913 -0.212523
C29   C     C_R   0.458703 0.442760 0.904724 0.138869
C30   C     C_R   0.552377 0.389670 0.102610 0.130834
C31   C     C_R   0.366656 0.417019 0.863768 0.239847
C32   C     C_R   0.636648 0.456157 0.129527 0.246110
C33   C     C_R   0.375158 0.444146 0.782537 -0.279951
C34   C     C_R   0.620463 0.490149 0.209494 -0.280931
C35   C     C_2   0.455478 0.417239 0.989716 -0.220219
C36   C     C_2   0.545210 0.379558 0.016626 -0.222874
H1    H     H_    0.207330 0.652792 0.589312 0.137941
H2    H     H_    0.792759 0.347634 0.410359 0.136865
H3    H     H_    0.684080 0.542436 0.230459 0.169871
H4    H     H_    0.306077 0.420949 0.750021 0.176105
H5    H     H_    0.618098 0.357812 0.974518 0.158720
H6    H     H_    0.383121 0.440880 0.031701 0.163170
H7    H     H_    0.395438 0.300703 0.135237 0.150272
H8    H     H_    0.621500 0.524644 0.899281 0.153192
H9    H     H_    0.186437 0.387602 0.441248 0.185674
H10   H     H_    0.812513 0.610333 0.561160 0.190512
N1    N     N_R   0.206400 0.519440 0.514690 -0.130847
N2    N     N_R   0.793600 0.480560 0.485310 -0.132264
O1    O     O_R   0.421320 0.658850 0.503920 -0.637334
O2    O     O_R   0.578680 0.341150 0.496080 -0.635579
O3    O     O_R   0.609840 0.646370 0.494500 -0.609004
O4    O     O_R   0.390160 0.353630 0.505500 -0.620140
O5    O     O_R   0.394600 0.506990 0.621070 -0.631753
O6    O     O_R   0.605400 0.493010 0.378930 -0.627274
O7    O     O_R   0.583120 0.494520 0.611640 -0.608045
O8    O     O_R   0.416880 0.505480 0.388360 -0.613744
Zn1   Zn    Zn3+2 0.374120 0.508330 0.506290 0.928894
Zn2   Zn    Zn3+2 0.625880 0.491670 0.493710 0.936923
C37   C     C_3   0.666400 0.589643 0.745557 -0.870187
H11   H     H_    0.716368 0.622940 0.791382 0.219603
H12   H     H_    0.722090 0.539124 0.705043 0.249604
H13   H     H_    0.641337 0.655921 0.710649 0.265052
C38   C     C_3   0.335306 0.349946 0.290184 -0.810577
H14   H     H_    0.287568 0.287730 0.260940 0.221002
H15   H     H_    0.356534 0.316709 0.346777 0.278264
H16   H     H_    0.279079 0.415779 0.304243 0.231374
O9    O     O_3   0.010771 0.308198 0.391286 -0.609953
C39   C     C_3   0.014447 0.327669 0.307982 -0.361335
H17   H     H_    0.062929 0.266270 0.273653 0.199382
H18   H     H_    0.058559 0.404503 0.289930 0.160788
H19   H     H_    0.928348 0.323470 0.290518 0.160292
O10   O     O_3   0.989088 0.691145 0.609480 -0.608655
C40   C     C_3   0.984091 0.670236 0.692681 -0.353542
H20   H     H_    0.940422 0.592892 0.709681 0.159863
H21   H     H_    0.934520 0.730741 0.727293 0.204140
H22   H     H_    0.069802 0.674553 0.710815 0.158017
C41   C     C_3   0.260915 0.357041 0.902324 -0.941511
H23   H     H_    0.264147 0.332668 0.965371 0.240841
H24   H     H_    0.187231 0.406136 0.902313 0.239692
H25   H     H_    0.247650 0.285072 0.866884 0.247123
C42   C     C_3   0.740760 0.498143 0.075102 -0.948682
H26   H     H_    0.750135 0.464736 0.013531 0.232489
H27   H     H_    0.738169 0.584356 0.069817 0.247009
H28   H     H_    0.817016 0.479759 0.101777 0.239117
O11   O     O_3   0.488913 0.168179 0.371697 -0.599253
C43   C     C_3   0.601770 0.191750 0.336093 -0.210361
H29   H     H_    0.661292 0.131943 0.348702 0.155798
H30   H     H_    0.631215 0.269779 0.355633 0.150525
H31   H     H_    0.604456 0.195447 0.269570 0.199039
O12   O     O_3   0.515720 0.831768 0.627013 -0.591346
C44   C     C_3   0.403346 0.807739 0.663601 -0.224271
H32   H     H_    0.374265 0.729039 0.645139 0.150305
H33   H     H_    0.342840 0.866548 0.650790 0.157869
H34   H     H_    0.401607 0.805488 0.730072 0.195355
C45   C     C_3   0.441966 0.225321 0.666242 -0.831991
H35   H     H_    0.429599 0.183343 0.725008 0.271488
H36   H     H_    0.513831 0.283489 0.665864 0.231403
H37   H     H_    0.363477 0.266286 0.662684 0.233239
C46   C     C_3   0.555497 0.772746 0.332874 -0.844299
H38   H     H_    0.566558 0.814202 0.273929 0.269924
H39   H     H_    0.633804 0.730957 0.335409 0.235167
H40   H     H_    0.483072 0.714897 0.334475 0.229239
O13   O     O_3   0.496234 0.982631 0.316376 -0.579271
C47   C     C_3   0.381318 0.966649 0.307567 -0.234281
H41   H     H_    0.326024 0.011642 0.353181 0.177596
H42   H     H_    0.354245 0.882174 0.311428 0.145226
H43   H     H_    0.369833 0.995061 0.246902 0.183943
O14   O     O_3   0.506139 0.017295 0.682339 -0.580759
C48   C     C_3   0.620642 0.035901 0.691428 -0.231475
H44   H     H_    0.645552 0.120852 0.687768 0.145177
H45   H     H_    0.677286 0.992132 0.645822 0.178039
H46   H     H_    0.632630 0.007938 0.752107 0.185323

loop_
_geom_bond_atom_site_label_1
_geom_bond_atom_site_label_2
_ccdc_geom_bond_type
C21   O5    A    
C5    O13   S    
C10   O11   S    
C27   C29   A    
C40   H20   S    
C45   H35   S    
C17   N2    A    
C18   N1    A    
C38   H15   S    
C42   H26   S    
C45   H37   S    
C22   O6    A    
C41   H23   S    
O8    Zn1   S    
C32   C42   S    
C7    C46   S    
C24   C26   A    
C48   H45   S    
C13   O9    S    
C43   H30   S    
N1    Zn1   S    
O1    Zn1   S    
O14   C48   S    
C35   H6    S    
C2    O2    A    
C27   H8    S    
C19   C20   A    
C39   H17   S    
C23   C33   A    
C31   C33   A    
C18   C20   A    
C16   H1    S    
C38   H16   S    
C37   H11   S    
C40   H21   S    
C36   H5    S    
C8    C45   S    
C15   N2    A    
C4    C7    A    
C10   C12   A    
C16   N1    A    
C47   H42   S    
C47   H41   S    
C42   H27   S    
C31   C41   S    
C41   H24   S    
C37   H12   S    
C33   H4    S    
O9    C39   S    
O2    Zn2   S    
C17   H10   S    
C5    C12   A    
C3    C8    A    
C48   H46   S    
C6    C11   A    
C21   O7    A    
O5    Zn1   S    
C43   H29   S    
C22   O8    A    
O11   C43   S    
C24   C34   A    
C34   H3    S    
C35   C36   D    
C32   C34   A    
C26   C38   S    
C15   H2    S    
C44   H33   S    
C9    C11   A    
C46   H38   S    
O3    Zn2   S    
C1    O3    A    
C2    O4    A    
C46   H39   S    
C13   C15   A    
C40   H22   S    
C14   C16   A    
C18   H9    S    
C44   H32   S    
C42   H28   S    
C5    C7    A    
O6    Zn2   S    
C41   H25   S    
C37   H13   S    
C13   C20   A    
C14   O10   S    
C14   C19   A    
O10   C40   S    
C43   H31   S    
C9    O12   S    
C6    C8    A    
C11   C12   A    
C45   H36   S    
N2    Zn2   S    
C25   C27   A    
C29   C35   S    
C28   H7    S    
C26   C28   A    
C30   C36   S    
C1    C4    S    
C21   C23   S    
C2    C3    S    
C29   C31   A    
C3    C10   A    
C48   H44   S    
C44   H34   S    
C30   C32   A    
O12   C44   S    
C39   H19   S    
C28   C30   A    
C17   C19   A    
C22   C24   S    
C23   C25   A    
O4    Zn1   S    
C38   H14   S    
C46   H40   S    
C39   H18   S    
O7    Zn2   S    
O13   C47   S    
C6    O14   S    
C25   C37   S    
C4    C9    A    
C1    O1    A    
C47   H43   S    
