data_mof_unit_1849.cif
_audit_creation_date              2012-10-26T19:05:08-0400
_audit_creation_method            fapswitch 2.2
_symmetry_space_group_name_H-M    P1
_symmetry_Int_Tables_number       1
_space_group_crystal_system       triclinic
_cell_length_a                    15.900974
_cell_length_b                    10.846191
_cell_length_c                    9.652169
_cell_angle_alpha                 90.798208
_cell_angle_beta                  89.685178
_cell_angle_gamma                 95.088797
_cell_volume                      1657.92389368

loop_
_atom_site_label
_atom_site_type_symbol
_atom_type_description
_atom_site_fract_x
_atom_site_fract_y
_atom_site_fract_z
_atom_type_partial_charge
C1    C     C_R   0.507391 0.264072 0.499318 0.581583
C2    C     C_R   0.580354 0.076483 0.865096 -0.109319
C3    C     C_R   0.536211 0.961546 0.882802 -0.156405
C4    C     C_R   0.340474 0.499511 0.500366 0.543666
C5    C     C_R   0.502841 0.895139 0.768255 -0.082191
C6    C     C_R   0.512233 0.943919 0.632979 -0.009284
C7    C     C_R   0.538879 0.070915 0.621727 0.065496
C8    C     C_R   0.518590 0.131659 0.498783 0.020033
C9    C     C_R   0.496116 0.062306 0.379287 -0.169327
C10   C     C_R   0.489142 0.934552 0.382621 -0.158799
C11   C     C_R   0.496096 0.873191 0.508255 -0.002861
C12   C     C_3   0.950484 0.514851 0.653499 -0.091220
C13   C     C_R   0.616363 0.659946 0.152950 -0.091617
C14   C     C_R   0.678904 0.735147 0.091221 -0.194334
C15   C     C_R   0.683614 0.738802 0.950630 -0.119092
C16   C     C_R   0.496923 0.737725 0.502113 0.558166
C17   C     C_R   0.624586 0.668679 0.867026 0.274757
C18   C     C_R   0.559792 0.581322 0.927554 0.136725
C19   C     C_R   0.558105 0.579542 0.077428 0.091791
C20   C     C_R   0.445181 0.424615 0.074501 0.070893
C21   C     C_R   0.444412 0.423487 0.928192 0.334453
C22   C     C_R   0.659480 0.500323 0.499609 0.582895
C23   C     C_3   0.917306 0.508839 0.501009 0.000815
C24   C     C_3   0.049490 0.520164 0.653197 0.122417
C25   C     C_3   0.042182 0.385142 0.439760 -0.285481
C26   C     C_3   0.945034 0.388018 0.432816 -0.250560
C27   C     C_1   0.749049 0.502308 0.499158 0.005595
C28   C     C_3   0.083690 0.508680 0.501576 0.034587
C29   C     C_1   0.917021 0.615849 0.736188 0.221824
C30   C     C_1   0.921437 0.634405 0.281613 0.177711
C31   C     C_1   0.103632 0.735820 0.433555 0.187554
C32   C     C_3   0.958968 0.623196 0.420364 -0.105404
C33   C     C_3   0.056301 0.614356 0.407228 -0.101498
C34   C     C_1   0.824593 0.504857 0.499640 -0.045739
C35   C     C_1   0.175762 0.504524 0.501418 -0.002767
C36   C     C_1   0.251042 0.501734 0.501099 0.014988
C37   C     C_R   0.583277 0.132134 0.734347 0.275562
Cu1   Cu    Cu3+1 0.499990 0.499990 0.640660 1.030099
Cu2   Cu    Cu3+1 0.500010 0.500010 0.359340 0.935195
H1    H     H_    0.925948 0.427711 0.705280 0.096159
H2    H     H_    0.723291 0.793473 0.153498 0.143341
H3    H     H_    0.732608 0.802039 0.905805 0.138871
H4    H     H_    0.067346 0.368689 0.333865 0.139602
H5    H     H_    0.057747 0.305965 0.504183 0.127995
H6    H     H_    0.914187 0.305583 0.486363 0.132589
H7    H     H_    0.924426 0.381110 0.322786 0.152781
H8    H     H_    0.072517 0.589395 0.298454 0.129547
H9    H     H_    0.946150 0.708598 0.479200 0.119046
H10   H     H_    0.068448 0.699441 0.687711 0.350617
H11   H     H_    0.660162 0.270013 0.800930 0.319557
H12   H     H_    0.482867 0.106692 0.282921 0.143832
H13   H     H_    0.677791 0.755764 0.706499 0.303080
H14   H     H_    0.391280 0.341567 0.767695 0.379760
H15   H     H_    0.611310 0.122841 0.953545 0.102356
H16   H     H_    0.530225 0.921721 0.985041 0.120165
H17   H     H_    0.467082 0.808473 0.789882 0.168659
H18   H     H_    0.475566 0.883800 0.286678 0.145628
H19   H     H_    0.400246 0.362545 0.130060 0.148613
H20   H     H_    0.066674 0.437504 0.710290 0.159599
H21   H     H_    0.617335 0.669755 0.261772 0.198958
N1    N     N_R   0.500800 0.501210 0.147910 -0.283229
N2    N     N_R   0.500820 0.501290 0.852040 -0.245339
N3    N     N_1   0.890729 0.694645 0.800756 -0.282686
N4    N     N_1   0.892029 0.643131 0.173159 -0.269094
N5    N     N_1   0.140779 0.830953 0.453844 -0.276002
O1    O     O_R   0.499990 0.319640 0.618810 -0.482317
O2    O     O_3   0.633930 0.240381 0.712164 -0.684403
O3    O     O_3   0.630412 0.693220 0.728789 -0.653402
O4    O     O_3   0.384296 0.340834 0.868176 -0.710651
O5    O     O_R   0.500000 0.319660 0.381240 -0.520828
O6    O     O_R   0.379430 0.499990 0.618840 -0.510684
O7    O     O_R   0.379440 0.500020 0.381260 -0.500701
O8    O     O_R   0.500000 0.680340 0.618760 -0.453906
O9    O     O_R   0.500010 0.680360 0.381190 -0.534508
O10   O     O_R   0.620560 0.499980 0.618740 -0.405672
O11   O     O_R   0.620570 0.500010 0.381160 -0.527873
O12   O     O_3   0.089216 0.623329 0.725054 -0.670365

loop_
_geom_bond_atom_site_label_1
_geom_bond_atom_site_label_2
_ccdc_geom_bond_type
C29   N3    T    
C30   N4    T    
C12   C29   S    
C1    C8    S    
C5    H17   S    
C35   C36   T    
C9    H12   S    
C22   O11   A    
H14   O4    S    
C25   H4    S    
C4    C36   S    
C7    C8    A    
C13   H21   S    
C25   C28   S    
C12   C23   S    
C16   O9    A    
Cu1   Cu2   S    
C23   C26   S    
C31   N5    T    
C18   C19   A    
Cu2   O9    S    
C20   N1    A    
C26   H6    S    
C3    H16   S    
Cu1   O1    S    
C28   C35   S    
C8    C9    A    
Cu2   O7    S    
C31   C33   S    
C9    C10   A    
H13   O3    S    
C13   C14   A    
C32   H9    S    
C22   O10   A    
C25   H5    S    
C17   C18   A    
Cu1   O10   S    
C27   C34   T    
Cu2   N1    S    
C13   C19   A    
C16   O8    A    
C10   H18   S    
C2    H15   S    
C6    C11   A    
C18   N2    A    
C25   C26   S    
C21   O4    S    
C12   H1    S    
C11   C16   S    
C23   C34   S    
C1    O1    A    
C7    C37   A    
Cu2   O11   S    
C21   N2    A    
C14   H2    S    
C28   C33   S    
C22   C27   S    
C33   H8    S    
C20   H19   S    
C4    O7    A    
H11   O2    S    
C15   C17   A    
Cu1   O6    S    
C17   O3    S    
C24   C28   S    
C15   H3    S    
C3    C5    A    
C6    C7    A    
C12   C24   S    
C1    O5    A    
C23   C32   S    
C2    C3    A    
C32   C33   S    
C30   C32   S    
C2    C37   A    
C5    C6    A    
C19   N1    A    
C24   H20   S    
C37   O2    S    
Cu2   O5    S    
H10   O12   S    
C10   C11   A    
C26   H7    S    
C24   O12   S    
C20   C21   A    
C14   C15   A    
C4    O6    A    
Cu1   N2    S    
Cu1   O8    S    
