data_mof_unit_810.cif
_audit_creation_date              2013-03-05T16:18:40-0500
_audit_creation_method            fapswitch 2.2
_symmetry_space_group_name_H-M    P1
_symmetry_Int_Tables_number       1
_space_group_crystal_system       triclinic
_cell_length_a                    15.697443
_cell_length_b                    10.6393
_cell_length_c                    9.896319
_cell_angle_alpha                 87.932098
_cell_angle_beta                  88.310386
_cell_angle_gamma                 90.318093
_cell_volume                      1650.95162527

loop_
_atom_site_label
_atom_site_type_symbol
_atom_site_description
_atom_site_fract_x
_atom_site_fract_y
_atom_site_fract_z
_atom_type_partial_charge
O1    O     O_R   0.499980 0.314910 0.616040 -0.602433
O2    O     O_R   0.500040 0.314680 0.383960 -0.652823
C1    C     C_R   0.503551 0.258443 0.500395 0.866139
O3    O     O_R   0.376750 0.500100 0.616020 -0.522488
O4    O     O_R   0.376810 0.499870 0.383940 -0.610837
C2    C     C_R   0.338269 0.500599 0.501688 0.955705
Zn1   Zn    Zn3+2 0.499960 0.500150 0.654960 1.024588
Zn2   Zn    Zn3+2 0.500040 0.499850 0.345040 0.945457
O5    O     O_R   0.499960 0.685320 0.616040 -0.602623
O6    O     O_R   0.500020 0.685090 0.383960 -0.613907
O7    O     O_R   0.623190 0.500130 0.616060 -0.623329
O8    O     O_R   0.623250 0.499900 0.383980 -0.651388
C3    C     C_R   0.500967 0.741851 0.497939 0.918628
C4    C     C_R   0.661660 0.500435 0.498228 0.906219
C5    C     C_3   0.966161 0.462513 0.620883 -0.234990
C6    C     C_3   0.026637 0.390815 0.524924 0.090488
H1    H     H_    0.937794 0.426958 0.719157 0.158682
H2    H     H_    0.953760 0.371484 0.319421 0.148323
C7    C     C_1   0.249254 0.504184 0.505373 -0.042240
C8    C     C_1   0.750571 0.502256 0.494218 -0.142093
C9    C     C_3   0.022474 0.580231 0.597281 0.343684
C10   C     C_3   0.082834 0.508724 0.504831 0.032054
C11   C     C_3   0.971306 0.625716 0.475281 -0.197551
C12   C     C_3   0.916633 0.505993 0.495935 0.114664
C13   C     C_3   0.032316 0.551995 0.380666 -0.209234
C14   C     C_3   0.975367 0.432584 0.400514 -0.157214
C15   C     C_1   0.173876 0.507241 0.506536 0.043920
C16   C     C_1   0.825899 0.504049 0.493213 -0.018836
H3    H     H_    0.060948 0.588498 0.282968 0.196021
H4    H     H_    0.946859 0.722337 0.456452 0.172772
C17   C     C_3   0.576997 0.069975 0.585015 -0.496542
H5    H     H_    0.573123 0.110679 0.684567 0.176469
H6    H     H_    0.639992 0.098773 0.539050 0.207502
C18   C     C_3   0.568001 0.926283 0.600597 0.196156
H7    H     H_    0.541178 0.904634 0.704087 0.162001
H8    H     H_    0.409079 0.091861 0.659265 0.261246
C19   C     C_3   0.417248 0.071949 0.550123 -0.418852
C20   C     C_3   0.523099 0.076533 0.350652 -0.396929
C21   C     C_3   0.505114 0.122030 0.497315 0.060280
H9    H     H_    0.470801 0.106843 0.283322 0.213527
H10   H     H_    0.583762 0.118062 0.307723 0.183158
C22   C     C_3   0.503004 0.878683 0.495431 -0.080075
C23   C     C_3   0.411359 0.930284 0.527288 0.063110
C24   C     C_3   0.529274 0.933173 0.352048 -0.433867
H11   H     H_    0.594382 0.904094 0.320900 0.228269
H12   H     H_    0.486060 0.898225 0.274948 0.254915
H13   H     H_    0.364856 0.120770 0.496208 0.164017
H14   H     H_    0.372824 0.918113 0.435595 0.173579
C25   C     C_3   0.489487 0.370734 0.092472 -0.412266
H15   H     H_    0.428573 0.330136 0.135025 0.215940
H16   H     H_    0.538811 0.313381 0.142728 0.178252
C26   C     C_3   0.496723 0.362769 0.931042 0.426345
H17   H     H_    0.366303 0.519701 0.120476 0.169219
C27   C     C_3   0.424497 0.570745 0.081895 0.171755
C28   C     C_3   0.580723 0.549471 0.071006 -0.010633
N1    N     N_3   0.498170 0.499750 0.138610 -0.150382
H18   H     H_    0.630922 0.479501 0.095497 0.154074
N2    N     N_3   0.498850 0.496730 0.861320 -0.166801
C29   C     C_3   0.425823 0.572386 0.920978 0.108623
C30   C     C_3   0.575775 0.560817 0.910971 -0.413056
H19   H     H_    0.634716 0.523272 0.863681 0.194798
H20   H     H_    0.576484 0.661104 0.874795 0.221156
H21   H     H_    0.436361 0.670105 0.881384 0.205006
C31   C     C_3   0.060540 0.258154 0.552397 -0.399527
C32   C     C_3   0.987843 0.161342 0.565972 -0.393563
C33   C     C_3   0.021972 0.028784 0.591692 -0.695080
H22   H     H_    0.064861 0.001689 0.506444 0.259309
H23   H     H_    0.057567 0.023752 0.687086 0.288175
H24   H     H_    0.968004 0.960789 0.600837 0.264677
H25   H     H_    0.943963 0.185146 0.651383 0.233200
H26   H     H_    0.951098 0.162933 0.471608 0.230265
H27   H     H_    0.104719 0.233916 0.467570 0.212822
H28   H     H_    0.096796 0.257388 0.647207 0.230703
N3    N     N_R   0.365515 0.865323 0.640745 0.224278
O9    O     O_R   0.390019 0.875521 0.764334 -0.344467
O10   O     O_R   0.291830 0.814153 0.619952 -0.307460
C34   C     C_3   0.581117 0.287330 0.898139 -0.467362
C35   C     C_3   0.580603 0.146604 0.945817 -0.332179
C36   C     C_3   0.668019 0.086849 0.923545 -0.880488
H29   H     H_    0.693226 0.106596 0.818929 0.273368
H30   H     H_    0.713868 0.124150 0.995752 0.258776
H31   H     H_    0.662559 0.983368 0.940407 0.278250
H32   H     H_    0.563341 0.134386 0.054697 0.228646
H33   H     H_    0.532760 0.092207 0.891911 0.275874
H34   H     H_    0.597783 0.295455 0.789231 0.230584
H35   H     H_    0.636059 0.329556 0.947731 0.173892
N4    N     N_R   0.423390 0.285192 0.889555 0.229979
O11   O     O_R   0.398349 0.187077 0.963195 -0.389412
O12   O     O_R   0.381847 0.310304 0.780803 -0.323095
N5    N     N_R   0.340298 0.538766 0.875134 0.244339
O13   O     O_R   0.295534 0.449380 0.936937 -0.352339
O14   O     O_R   0.298289 0.623869 0.807762 -0.240780
C37   C     C_3   0.617385 0.673233 0.125294 -0.364997
C38   C     C_3   0.711587 0.693694 0.080885 -0.438671
C39   C     C_3   0.752480 0.799489 0.157101 -0.788226
H36   H     H_    0.756480 0.771615 0.265903 0.289992
H37   H     H_    0.818021 0.817983 0.115613 0.269178
H38   H     H_    0.714895 0.887144 0.146755 0.256157
H39   H     H_    0.748750 0.606634 0.100622 0.234743
H40   H     H_    0.716274 0.717592 0.970683 0.271108
H41   H     H_    0.581950 0.756238 0.088906 0.239207
H42   H     H_    0.614514 0.671700 0.235625 0.273006
N6    N     N_R   0.415204 0.697895 0.135404 0.214378
O15   O     O_R   0.359175 0.714065 0.232687 -0.363779
O16   O     O_R   0.438241 0.797284 0.062543 -0.422979
N7    N     N_R   0.046494 0.662165 0.704822 0.207922
O17   O     O_R   0.987640 0.716395 0.776861 -0.387780
O18   O     O_R   0.126223 0.683655 0.727806 -0.275335
N8    N     N_R   0.651638 0.865091 0.590353 0.202192
O19   O     O_R   0.677576 0.794530 0.690870 -0.426204
O20   O     O_R   0.703461 0.888073 0.487325 -0.446650

loop_
_geom_bond_atom_site_label_1
_geom_bond_atom_site_label_2
_geom_bond_distance
_ccdc_geom_bond_type
C33   H23   1.110890 S    
N4    O11   1.303440 A    
C37   C38   1.542196 S    
C31   H28   1.111449 S    
C39   H36   1.110134 S    
H2    C14   1.110355 S    
C28   C37   1.553874 S    
Zn2   N1    2.044012 S    
C39   H38   1.109534 S    
H17   C27   1.110923 S    
Zn1   O7    1.961169 S    
C2    C7    1.397475 S    
N3    O10   1.300669 A    
H8    C19   1.112018 S    
C12   C14   1.536767 S    
N8    O20   1.300778 A    
C20   C21   1.564839 S    
O7    C4    1.297173 A    
C33   H24   1.110488 S    
N7    O17   1.300539 A    
N2    C30   1.488120 S    
C32   H25   1.111792 S    
C30   H20   1.113019 S    
C18   H7    1.111633 S    
O5    C3    1.294632 A    
C35   H32   1.106179 S    
C18   N8    1.471138 S    
C25   H16   1.106897 S    
C10   C13   1.539938 S    
C18   C22   1.573382 S    
C11   C12   1.536087 S    
C17   H6    1.112977 S    
C19   H13   1.114213 S    
C7    C15   1.183601 T    
C23   H14   1.116276 S    
Zn1   N2    2.040773 S    
C9    N7    1.456605 S    
C23   N3    1.465288 S    
C31   H27   1.111502 S    
C33   H22   1.110987 S    
C1    C21   1.453088 S    
C28   C30   1.588220 S    
C13   H3    1.110386 S    
C22   C24   1.556622 S    
O3    Zn1   1.983214 S    
C3    C22   1.455268 S    
C24   H12   1.108508 S    
Zn1   O5    1.993691 S    
C27   C29   1.591474 S    
C6    C14   1.544024 S    
C27   N1    1.496782 S    
N3    O9    1.300959 A    
C11   H4    1.110645 S    
C4    C8    1.395072 S    
C27   N6    1.476842 S    
C20   H10   1.113741 S    
O3    C2    1.298087 A    
C37   H41   1.101482 S    
C36   H30   1.110737 S    
C35   C36   1.528948 S    
C8    C16   1.182252 T    
N2    C29   1.521573 S    
C34   C35   1.553390 S    
C30   H19   1.107565 S    
O1    C1    1.311512 A    
C29   N5    1.475951 S    
C19   C23   1.534800 S    
C20   C24   1.528457 S    
C36   H31   1.110027 S    
N5    O14   1.299308 A    
C17   H5    1.090600 S    
C38   H40   1.111087 S    
Zn2   O8    1.983214 S    
C25   C26   1.603578 S    
C28   N1    1.523955 S    
C17   C18   1.536291 S    
N6    O16   1.301611 A    
C26   N2    1.560672 S    
C5    C12   1.538454 S    
O8    C4    1.297122 A    
C34   H35   1.105938 S    
C32   C33   1.526870 S    
C10   C15   1.429885 S    
C28   H18   1.112924 S    
C22   C23   1.569992 S    
C26   C34   1.584445 S    
C24   H11   1.107745 S    
C5    H1    1.110532 S    
C6    C10   1.533223 S    
O1    Zn1   2.021703 S    
C26   N4    1.488851 S    
O2    Zn2   1.993692 S    
C12   C16   1.425385 S    
O6    C3    1.298954 A    
C37   H42   1.091002 S    
O4    Zn2   1.961169 S    
C39   H37   1.110306 S    
C25   N1    1.469022 S    
C29   H21   1.107550 S    
C31   C32   1.532688 S    
C9    C11   1.535031 S    
O2    C1    1.281846 A    
C13   C14   1.552682 S    
C19   C21   1.545514 S    
C32   H26   1.111674 S    
N8    O19   1.300873 A    
C20   H9    1.114281 S    
N5    O13   1.302893 A    
O4    C2    1.297330 A    
N7    O18   1.299139 A    
C38   H39   1.111791 S    
C17   C21   1.537277 S    
C11   C13   1.554846 S    
C38   C39   1.526347 S    
C34   H34   1.101792 S    
C36   H29   1.109858 S    
C35   H33   1.106635 S    
C5    C9    1.535889 S    
Zn2   O6    2.021703 S    
C25   H15   1.112086 S    
N6    O15   1.301441 A    
N4    O12   1.295182 A    
C6    C31   1.529192 S    
C9    C10   1.523400 S    
C5    C6    1.546624 S    
