data_mof_unit_4054.cif
_audit_creation_date              2012-12-10T20:27:57-0500
_audit_creation_method            fapswitch 2.2
_symmetry_space_group_name_H-M    P1
_symmetry_Int_Tables_number       1
_space_group_crystal_system       triclinic
_cell_length_a                    12.806755
_cell_length_b                    10.771672
_cell_length_c                    9.926055
_cell_angle_alpha                 88.296916
_cell_angle_beta                  96.979653
_cell_angle_gamma                 91.836322
_cell_volume                      1357.99515691

loop_
_atom_site_label
_atom_site_type_symbol
_atom_type_description
_atom_site_fract_x
_atom_site_fract_y
_atom_site_fract_z
_atom_type_partial_charge
C1    C     C_R   0.509678 0.260521 0.502837 0.916202
C2    C     C_R   0.570621 0.938984 0.400869 -0.208796
C3    C     C_R   0.522850 0.871566 0.500806 -0.156408
C4    C     C_R   0.300270 0.519815 0.472463 0.952988
C5    C     C_R   0.499458 0.931559 0.613715 -0.003706
C6    C     C_3   0.399931 0.924325 0.676860 0.727505
C7    C     C_3   0.415112 0.061454 0.695800 -0.514239
C8    C     C_R   0.411851 0.469066 0.058818 0.121890
C9    C     C_R   0.582604 0.549399 0.083731 -0.031423
C10   C     C_R   0.582426 0.551575 0.939289 0.219631
C11   C     C_R   0.407444 0.479701 0.917133 0.204649
C12   C     C_R   0.030573 0.548647 0.555037 -0.083478
C13   C     C_3   0.325250 0.373408 0.910276 0.015033
C14   C     C_3   0.342042 0.357325 0.064333 0.216770
C15   C     C_R   0.505771 0.739742 0.498945 0.934390
C16   C     C_R   0.702416 0.491264 0.526417 0.918314
C17   C     C_R   0.817292 0.485849 0.540092 -0.243107
C18   C     C_R   0.189848 0.555086 0.451396 -0.210574
C19   C     C_R   0.022815 0.548649 0.308278 0.075792
C20   C     C_R   0.132591 0.562153 0.320922 0.304735
C21   C     C_R   0.137512 0.577326 0.563320 0.325158
C22   C     C_R   0.973093 0.525789 0.426704 -0.033042
C23   C     C_R   0.868033 0.484300 0.421410 0.353269
C24   C     C_R   0.878082 0.495519 0.667498 0.351317
C25   C     C_R   0.983122 0.530634 0.673902 -0.166478
C26   C     C_R   0.508862 0.058082 0.621631 -0.002011
C27   C     C_R   0.533376 0.129363 0.509986 -0.156200
C28   C     C_R   0.577503 0.068960 0.405793 0.444568
Cl1   Cl    Cl    0.808310 0.403978 0.276646 -0.476269
Cl2   Cl    Cl    0.408697 0.835600 0.832679 -0.496060
Cl3   Cl    Cl    0.409026 0.219216 0.122702 -0.473885
Cl4   Cl    Cl    0.832347 0.446050 0.821012 -0.538544
Cl5   Cl    Cl    0.194153 0.603328 0.175137 -0.595431
Cl6   Cl    Cl    0.201830 0.655219 0.705610 -0.504818
Cl7   Cl    Cl    0.642480 0.149645 0.282128 -0.426215
Cl8   Cl    Cl    0.286866 0.890010 0.557536 -0.495329
H1    H     H_    0.350798 0.115807 0.639553 0.198469
H2    H     H_    0.200968 0.492219 0.908343 0.264956
H3    H     H_    0.297284 0.197861 0.848988 0.245449
H4    H     H_    0.343659 0.295376 0.734746 0.212963
H5    H     H_    0.987019 0.499560 0.111955 0.268326
H6    H     H_    0.976844 0.653352 0.139423 0.239925
H7    H     H_    0.440896 0.083288 0.803420 0.263177
H8    H     H_    0.648853 0.589004 0.147917 0.162429
H9    H     H_    0.271726 0.372932 0.116167 0.161922
H10   H     H_    0.028286 0.537845 0.772951 0.216672
H11   H     H_    0.599330 0.891878 0.318323 0.194827
H12   H     H_    0.724292 0.645800 0.954548 0.198344
H13   H     H_    0.633384 0.697204 0.832033 0.210917
H14   H     H_    0.203170 0.413153 0.761218 0.223353
N1    N     N_R   0.499290 0.499140 0.142710 -0.097892
N2    N     N_R   0.499290 0.499180 0.857070 -0.104393
N3    N     N_3   0.665064 0.616533 0.879242 -0.339703
N4    N     N_3   0.216366 0.407730 0.866837 -0.446114
N5    N     N_3   0.353683 0.268621 0.837144 -0.380423
N6    N     N_3   0.962313 0.563778 0.177577 -0.359884
O1    O     O_R   0.500010 0.316790 0.614690 -0.623219
O2    O     O_R   0.500000 0.316760 0.385350 -0.528750
O3    O     O_R   0.346360 0.499990 0.595720 -0.612626
O4    O     O_R   0.346350 0.499960 0.366370 -0.585436
O5    O     O_R   0.500000 0.683240 0.614650 -0.599591
O6    O     O_R   0.499990 0.683210 0.385310 -0.611333
O7    O     O_R   0.653650 0.500040 0.633630 -0.568123
O8    O     O_R   0.653640 0.500010 0.404280 -0.591685
Zn1   Zn    Zn3+2 0.500010 0.500020 0.653130 1.044048
Zn2   Zn    Zn3+2 0.499990 0.499980 0.346870 1.077194

loop_
_geom_bond_atom_site_label_1
_geom_bond_atom_site_label_2
_ccdc_geom_bond_type
C19   N6    S    
C2    C28   A    
C24   Cl4   S    
H5    N6    S    
C6    C7    S    
C21   Cl6   S    
C16   O7    A    
C7    H7    S    
C2    H11   S    
C18   C21   A    
C9    C10   A    
C14   Cl3   S    
C19   C20   A    
H2    N4    S    
C12   C25   A    
C3    C5    A    
H4    N5    S    
C10   N2    A    
C9    N1    A    
C4    O4    A    
O7    Zn1   S    
C2    C3    A    
C7    H1    S    
C4    C18   S    
C17   C23   A    
C1    O2    A    
O3    Zn1   S    
C11   C13   S    
C8    N1    A    
C26   C27   A    
H14   N4    S    
C7    C26   S    
C8    C11   A    
H13   N3    S    
C20   Cl5   S    
C23   Cl1   S    
C4    O3    A    
C6    Cl2   S    
C15   O6    A    
C6    Cl8   S    
C14   H9    S    
C18   C20   A    
C15   O5    A    
C5    C6    S    
C12   C22   A    
C17   C24   A    
C13   N5    S    
O6    Zn2   S    
O4    Zn2   S    
C5    C26   A    
O5    Zn1   S    
C19   C22   A    
C3    C15   S    
C24   C25   A    
C25   H10   S    
C13   N4    S    
C27   C28   A    
C1    C27   S    
C10   N3    S    
C1    O1    A    
C22   C23   A    
C9    H8    S    
C8    C14   S    
C11   N2    A    
C16   O8    A    
H6    N6    S    
C13   C14   S    
C12   C21   A    
O2    Zn2   S    
H3    N5    S    
N2    Zn1   S    
C28   Cl7   S    
O1    Zn1   S    
C16   C17   S    
H12   N3    S    
N1    Zn2   S    
O8    Zn2   S    
