data_mof_unit_2168.cif
_audit_creation_date              2012-12-10T16:50:18-0500
_audit_creation_method            fapswitch 2.2
_symmetry_space_group_name_H-M    P1
_symmetry_Int_Tables_number       1
_space_group_crystal_system       triclinic
_cell_length_a                    23.577955
_cell_length_b                    8.689772
_cell_length_c                    7.600801
_cell_angle_alpha                 104.347553
_cell_angle_beta                  95.786082
_cell_angle_gamma                 96.23864
_cell_volume                      1486.54702431

loop_
_atom_site_label
_atom_site_type_symbol
_atom_type_description
_atom_site_fract_x
_atom_site_fract_y
_atom_site_fract_z
_atom_type_partial_charge
C1    C     C_R   0.498153 0.199362 0.451937 0.916981
C2    C     C_R   0.709371 0.559548 0.659644 0.627800
C3    C     C_R   0.231535 0.438967 0.340117 -0.139923
C4    C     C_R   0.768465 0.560967 0.659910 -0.139958
C5    C     C_R   0.209235 0.505018 0.501283 0.201299
C6    C     C_R   0.790767 0.494966 0.498730 0.201328
C7    C     C_2   0.497393 0.029992 0.426686 -0.308398
C8    C     C_2   0.502607 0.970008 0.573314 -0.308407
C9    C     C_R   0.391360 0.504333 0.500587 0.897788
C10   C     C_R   0.608641 0.495669 0.499413 0.897695
C11   C     C_R   0.887299 0.639691 0.552264 0.602866
C12   C     C_R   0.501847 0.800638 0.548063 0.917031
C13   C     C_R   0.112702 0.360289 0.447775 0.602861
C14   C     C_R   0.873207 0.354219 0.447103 0.615498
C15   C     C_R   0.126792 0.645762 0.552898 0.615503
C16   C     C_R   0.932353 0.352118 0.431393 -0.137225
C17   C     C_R   0.067647 0.647861 0.568623 -0.137222
C18   C     C_R   0.969908 0.498874 0.498025 -0.090039
C19   C     C_R   0.030093 0.501105 0.502000 -0.090042
C20   C     C_R   0.947278 0.643667 0.560627 -0.131750
C21   C     C_R   0.052723 0.356312 0.439405 -0.131744
C22   C     C_R   0.955448 0.208934 0.357044 -0.144224
C23   C     C_R   0.246705 0.576429 0.662663 -0.122483
C24   C     C_R   0.044553 0.791045 0.642978 -0.144222
C25   C     C_R   0.015194 0.211801 0.366767 0.649593
C26   C     C_R   0.984808 0.788177 0.633267 0.649596
C27   C     C_2   0.919157 0.056686 0.253375 1.061389
C28   C     C_2   0.080846 0.943292 0.746646 1.061391
C29   C     C_2   0.343141 0.682106 0.834487 0.937559
C30   C     C_2   0.656865 0.318058 0.165443 0.937546
C31   C     C_2   0.439522 0.324894 0.948598 1.085768
C32   C     C_2   0.560478 0.675105 0.051402 1.085854
C33   C     C_R   0.753299 0.423617 0.337329 -0.122503
C34   C     C_R   0.306418 0.585901 0.664371 -0.124074
C35   C     C_R   0.693587 0.414162 0.335610 -0.124028
C36   C     C_R   0.329004 0.512373 0.502147 -0.251811
C37   C     C_R   0.670998 0.487629 0.497852 -0.251854
C38   C     C_R   0.290629 0.440393 0.340377 0.627729
Cu1   Cu    Cu3+1 0.506340 0.517380 0.684380 1.061114
Cu2   Cu    Cu3+1 0.493660 0.482620 0.315620 1.061105
F1    F     F_    0.036304 0.073531 0.294292 -0.578760
F2    F     F_    0.963698 0.926446 0.705750 -0.578752
F3    F     F_    0.309893 0.368466 0.182144 -0.598965
F4    F     F_    0.690106 0.631424 0.817897 -0.598913
H1    H     H_    0.228998 0.629867 0.786114 0.196398
H2    H     H_    0.589100 0.147694 0.049840 0.335376
H3    H     H_    0.386978 0.186707 0.727018 0.330032
H4    H     H_    0.613023 0.813291 0.272981 0.330025
H5    H     H_    0.771007 0.370223 0.213865 0.196336
H6    H     H_    0.202826 0.385083 0.214077 0.186222
H7    H     H_    0.797172 0.614808 0.785963 0.186203
H8    H     H_    0.492580 0.954688 0.287140 0.171964
H9    H     H_    0.507420 0.045312 0.712860 0.171941
H10   H     H_    0.902723 0.816552 0.210213 0.331420
H11   H     H_    0.097276 0.183429 0.789828 0.331422
H12   H     H_    0.410915 0.852480 0.949953 0.335406
N1    N     N_R   0.851858 0.496507 0.499259 -0.464300
N2    N     N_R   0.148143 0.503474 0.500759 -0.464297
N3    N     N_2   0.484110 0.456420 0.038520 -0.237899
N4    N     N_2   0.515890 0.543580 0.961480 -0.237896
O1    O     O_R   0.504120 0.286130 0.619770 -0.574034
O2    O     O_2   0.135717 0.222383 0.403915 -0.411796
O3    O     O_2   0.837382 0.215773 0.417842 -0.475952
O4    O     O_2   0.162614 0.784209 0.582126 -0.475942
O5    O     O_2   0.881721 0.056784 0.129677 -0.524499
O6    O     O_R   0.929672 0.912240 0.291448 -0.674120
O7    O     O_2   0.118287 0.943189 0.870324 -0.524513
O8    O     O_R   0.070326 0.087742 0.708595 -0.674111
O9    O     O_2   0.331570 0.668351 0.983635 -0.550192
O10   O     O_R   0.389432 0.793551 0.824842 -0.757618
O11   O     O_2   0.668416 0.332015 0.016350 -0.550125
O12   O     O_R   0.495880 0.713870 0.380230 -0.574033
O13   O     O_R   0.610593 0.206502 0.174973 -0.757565
O14   O     O_2   0.416838 0.247637 0.042854 -0.533343
O15   O     O_R   0.418684 0.281871 0.763840 -0.751464
O16   O     O_2   0.583163 0.752359 0.957145 -0.533332
O17   O     O_R   0.581316 0.718129 0.236160 -0.751474
O18   O     O_R   0.493410 0.256770 0.308360 -0.560181
O19   O     O_R   0.506590 0.743230 0.691640 -0.560173
O20   O     O_R   0.423230 0.514630 0.655730 -0.554154
O21   O     O_R   0.576770 0.485370 0.344270 -0.554178
O22   O     O_R   0.412530 0.485280 0.344320 -0.511896
O23   O     O_R   0.587470 0.514720 0.655680 -0.511864
O24   O     O_2   0.864285 0.777596 0.596148 -0.411790

loop_
_geom_bond_atom_site_label_1
_geom_bond_atom_site_label_2
_ccdc_geom_bond_type
C23   H1    S    
H11   O8    S    
C7    C8    D    
C30   C35   S    
C10   C37   S    
C35   C37   A    
C24   C26   A    
C7    H8    S    
Cu1   N4    S    
C33   H5    S    
C12   O19   A    
C10   O23   A    
C18   C19   A    
C31   N3    S    
C33   C35   A    
C32   O17   S    
C13   O2    S    
C3    C38   A    
C2    F4    S    
C22   C25   A    
C9    C36   S    
C15   O4    S    
C34   C36   A    
C9    O22   A    
C12   O12   A    
N3    N4    D    
Cu2   N3    S    
C1    O18   A    
C6    N1    S    
C3    H6    S    
C30   O11   D    
C29   O9    D    
Cu1   O1    S    
C11   C20   A    
C17   C24   A    
C4    H7    S    
Cu2   O22   S    
C28   O7    D    
C4    C6    A    
C25   F1    S    
Cu1   Cu2   S    
C30   O13   S    
C31   O14   D    
C13   N2    A    
C29   C34   S    
C9    O20   A    
Cu1   O19   S    
H4    O17   S    
C2    C4    A    
C27   O5    D    
C31   O15   S    
C5    C23   A    
C8    C12   S    
C23   C34   A    
C13   C21   A    
C5    N2    S    
Cu2   O18   S    
H12   O10   S    
C22   C27   S    
C15   N2    A    
C14   C16   A    
C32   N4    S    
C26   F2    S    
C29   O10   S    
C15   C17   A    
C14   N1    A    
C21   C25   A    
C16   C22   A    
Cu2   O12   S    
C28   O8    S    
C1    C7    S    
Cu2   O21   S    
C24   C28   S    
C3    C5    A    
C1    O1    A    
C8    H9    S    
C32   O16   D    
H10   O6    S    
C11   O24   S    
C10   O21   A    
C6    C33   A    
Cu1   O20   S    
C36   C38   A    
H3    O15   S    
C38   F3    S    
C27   O6    S    
C2    C37   A    
C20   C26   A    
C14   O3    S    
C17   C19   A    
C18   C20   A    
Cu1   O23   S    
C16   C18   A    
C11   N1    A    
H2    O13   S    
C19   C21   A    
