data_mof_unit_4100.cif
_audit_creation_date              2012-12-11T14:42:03-0500
_audit_creation_method            fapswitch 2.2
_symmetry_space_group_name_H-M    P1
_symmetry_Int_Tables_number       1
_space_group_crystal_system       triclinic
_cell_length_a                    18.94955
_cell_length_b                    10.927496
_cell_length_c                    18.796301
_cell_angle_alpha                 90.239778
_cell_angle_beta                  90.599917
_cell_angle_gamma                 89.844012
_cell_volume                      3891.9099254

loop_
_atom_site_label
_atom_site_type_symbol
_atom_type_description
_atom_site_fract_x
_atom_site_fract_y
_atom_site_fract_z
_atom_type_partial_charge
C1    C     C_R   0.726935 0.956637 0.854252 0.537896
C2    C     C_R   0.271709 0.953703 0.146776 0.578283
C3    C     C_R   0.226931 0.456648 0.854257 0.537157
C4    C     C_R   0.771705 0.453690 0.146782 0.579461
C5    C     C_R   0.689655 0.452753 0.039873 0.125429
C6    C     C_R   0.307916 0.451476 0.961346 0.118305
C7    C     C_R   0.189686 0.952826 0.039849 0.125246
C8    C     C_R   0.807922 0.951465 0.961337 0.118442
C9    C     C_R   0.745769 0.399208 0.079706 0.053409
C10   C     C_R   0.242542 0.424301 0.927901 0.034166
C11   C     C_R   0.245780 0.899243 0.079694 0.054499
C12   C     C_R   0.742554 0.924260 0.927889 0.033379
C13   C     C_R   0.785192 0.303859 0.049384 -0.168805
C14   C     C_R   0.184542 0.388489 0.968593 -0.155727
C15   C     C_R   0.285190 0.803870 0.049381 -0.168282
C16   C     C_R   0.684563 0.888394 0.968577 -0.155743
C17   C     C_R   0.776301 0.274124 0.978179 -0.157426
C18   C     C_R   0.188769 0.385603 0.041201 -0.146736
C19   C     C_R   0.276296 0.774122 0.978178 -0.157267
C20   C     C_R   0.688783 0.885526 0.041186 -0.147257
C21   C     C_R   0.726702 0.336430 0.936351 -0.001991
C22   C     C_R   0.252859 0.408938 0.075318 0.001491
C23   C     C_R   0.226707 0.836444 0.936346 -0.001223
C24   C     C_R   0.752863 0.908912 0.075310 0.000725
C25   C     C_R   0.559407 0.277908 0.520945 -0.129713
C26   C     C_R   0.540469 0.275772 0.449932 -0.127675
C27   C     C_R   0.959710 0.776254 0.550472 -0.126323
C28   C     C_R   0.941159 0.778717 0.479394 -0.130287
C29   C     C_R   0.514373 0.167551 0.419222 0.029163
C30   C     C_R   0.554933 0.171370 0.561352 0.028334
C31   C     C_R   0.945423 0.672075 0.438595 0.029794
C32   C     C_R   0.985585 0.667673 0.580795 0.030284
C33   C     C_R   0.517767 0.057553 0.457157 -0.134801
C34   C     C_R   0.538797 0.059240 0.528175 -0.126765
C35   C     C_R   0.961251 0.559688 0.471354 -0.127226
C36   C     C_R   0.982175 0.557726 0.542390 -0.134711
C37   C     C_R   0.798329 0.329019 0.532103 -0.127808
C38   C     C_R   0.201529 0.329230 0.467975 -0.128419
C39   C     C_R   0.296487 0.824415 0.530904 -0.127963
C40   C     C_R   0.700503 0.831889 0.467113 -0.127389
C41   C     C_R   0.799857 0.338344 0.459384 -0.136620
C42   C     C_R   0.199670 0.337824 0.540701 -0.134342
C43   C     C_R   0.298526 0.834504 0.458196 -0.134216
C44   C     C_R   0.699177 0.840185 0.539849 -0.136953
C45   C     C_R   0.529164 0.177881 0.850137 0.578655
C46   C     C_R   0.468217 0.176856 0.148035 0.578706
C47   C     C_R   0.029155 0.677882 0.850132 0.566698
C48   C     C_R   0.968204 0.676859 0.148027 0.589844
C49   C     C_R   0.754438 0.419649 0.424500 0.035605
C50   C     C_R   0.246743 0.415062 0.576641 0.034701
C51   C     C_R   0.252936 0.915546 0.423225 0.035454
C52   C     C_R   0.745375 0.919329 0.575393 0.034569
C53   C     C_R   0.704140 0.486229 0.463358 -0.137890
C54   C     C_R   0.300211 0.475123 0.539168 -0.129032
C55   C     C_R   0.200747 0.978449 0.461563 -0.128008
C56   C     C_R   0.796249 0.984584 0.537140 -0.138578
C57   C     C_R   0.701372 0.474340 0.536989 -0.150583
C58   C     C_R   0.303846 0.462570 0.465605 -0.134545
C59   C     C_R   0.197060 0.964912 0.535035 -0.134042
C60   C     C_R   0.798851 0.973574 0.463443 -0.150838
C61   C     C_R   0.748530 0.395280 0.571628 0.034199
C62   C     C_R   0.253434 0.391348 0.429578 0.036435
C63   C     C_R   0.246153 0.889815 0.570178 0.034631
C64   C     C_R   0.751067 0.896471 0.428195 0.036432
C65   C     C_R   0.723818 0.311883 0.859812 0.569248
C66   C     C_R   0.261745 0.364159 0.147284 0.553224
C67   C     C_R   0.223819 0.811884 0.859812 0.566879
C68   C     C_R   0.761746 0.864156 0.147282 0.554384
C69   C     C_R   0.727824 0.955307 0.647362 0.536213
C70   C     C_R   0.271848 0.954659 0.352260 0.541241
C71   C     C_R   0.228136 0.454379 0.647778 0.548312
C72   C     C_R   0.772166 0.455539 0.352667 0.529320
C73   C     C_R   0.565217 0.180285 0.637915 0.566473
C74   C     C_R   0.472630 0.176170 0.354096 0.544904
C75   C     C_R   0.027330 0.676126 0.645931 0.548365
C76   C     C_R   0.934899 0.680774 0.362109 0.567364
C77   C     C_R   0.739011 0.360373 0.645394 0.549400
C78   C     C_R   0.261494 0.359023 0.355162 0.549221
C79   C     C_R   0.238357 0.858424 0.644678 0.561361
C80   C     C_R   0.760857 0.860820 0.354486 0.536932
C81   C     C_2   0.492927 0.170161 0.918021 -0.061420
C82   C     C_2   0.495903 0.162234 0.076054 -0.072383
C83   C     C_2   0.992898 0.670167 0.918003 -0.061026
C84   C     C_2   0.995872 0.662245 0.076037 -0.073826
C85   C     C_2   0.469451 0.074790 0.031899 0.192594
C86   C     C_2   0.492452 0.067709 0.957093 0.192608
C87   C     C_2   0.969406 0.574811 0.031882 0.191218
C88   C     C_2   0.992404 0.567717 0.957074 0.193885
C89   C     C_R   0.680821 0.420607 0.968243 -0.123721
C90   C     C_R   0.312037 0.444021 0.035896 -0.108932
C91   C     C_R   0.180845 0.920661 0.968226 -0.123089
C92   C     C_R   0.812040 0.944018 0.035890 -0.108924
Cr1   Cr    Cr6+3 0.769270 0.163730 0.750710 1.017852
Cr2   Cr    Cr6+3 0.230730 0.163730 0.249290 1.028220
Cr3   Cr    Cr6+3 0.269270 0.663730 0.750710 1.031855
Cr4   Cr    Cr6+3 0.730730 0.663730 0.249290 1.015045
Cr5   Cr    Cr6+3 0.612620 0.009790 0.748780 1.047967
Cr6   Cr    Cr6+3 0.387380 0.009790 0.251220 1.043392
Cr7   Cr    Cr6+3 0.112620 0.509790 0.748780 1.049774
Cr8   Cr    Cr6+3 0.887380 0.509790 0.251220 1.040792
Cr9   Cr    Cr6+3 0.614160 0.322500 0.747710 1.005749
Cr10  Cr    Cr6+3 0.385840 0.322500 0.252290 1.005521
Cr11  Cr    Cr6+3 0.114160 0.822500 0.747710 1.011390
Cr12  Cr    Cr6+3 0.885840 0.822500 0.252290 0.999467
H1    H     H_    0.839391 0.286229 0.430953 0.124248
H2    H     H_    0.158240 0.289516 0.568175 0.127825
H3    H     H_    0.338890 0.784004 0.429975 0.126002
H4    H     H_    0.659158 0.789167 0.567784 0.125820
H5    H     H_    0.668806 0.550188 0.437281 0.119119
H6    H     H_    0.337182 0.535220 0.566172 0.123707
H7    H     H_    0.164966 0.041611 0.435365 0.122971
H8    H     H_    0.832232 0.046806 0.563780 0.119444
H9    H     H_    0.662136 0.525134 0.566536 0.111828
H10   H     H_    0.345595 0.508102 0.437121 0.119878
H11   H     H_    0.156453 0.013060 0.564186 0.120552
H12   H     H_    0.838543 0.023248 0.434333 0.109579
H13   H     H_    0.533141 0.229316 0.056619 0.025129
H14   H     H_    0.473632 0.255079 0.940838 0.048828
H15   H     H_    0.033110 0.729325 0.056598 0.025587
H16   H     H_    0.973608 0.755091 0.940818 0.049318
H17   H     H_    0.639810 0.465189 0.937133 0.128821
H18   H     H_    0.361856 0.458194 0.063202 0.133296
H19   H     H_    0.139845 0.965265 0.937110 0.128827
H20   H     H_    0.861854 0.958222 0.063200 0.133228
H21   H     H_    0.826892 0.258430 0.079107 0.141417
H22   H     H_    0.134244 0.365744 0.944569 0.177293
H23   H     H_    0.326878 0.758423 0.079110 0.141150
H24   H     H_    0.634274 0.865598 0.944549 0.177264
H25   H     H_    0.810521 0.206237 0.954781 0.170450
H26   H     H_    0.142529 0.357406 0.070333 0.143928
H27   H     H_    0.310504 0.706213 0.954786 0.170262
H28   H     H_    0.642545 0.857302 0.070312 0.143233
H29   H     H_    0.573226 0.364447 0.545329 0.129358
H30   H     H_    0.540433 0.361340 0.421013 0.129029
H31   H     H_    0.959736 0.861874 0.579755 0.131218
H32   H     H_    0.927708 0.865454 0.455329 0.128590
H33   H     H_    0.499276 0.972518 0.433845 0.126514
H34   H     H_    0.537720 0.974634 0.557939 0.135189
H35   H     H_    0.962150 0.474968 0.441272 0.134620
H36   H     H_    0.000532 0.472499 0.565371 0.127243
H37   H     H_    0.835361 0.266420 0.556913 0.127925
H38   H     H_    0.162832 0.270735 0.442254 0.129662
H39   H     H_    0.333890 0.762684 0.555959 0.130406
H40   H     H_    0.662804 0.771014 0.441834 0.127423
O1    O     O_R   0.784320 0.290430 0.830510 -0.491131
O2    O     O_R   0.215680 0.290430 0.169490 -0.502722
O3    O     O_R   0.284320 0.790430 0.830510 -0.491416
O4    O     O_R   0.715680 0.790430 0.169490 -0.501757
O5    O     O_R   0.554640 0.080370 0.673500 -0.502053
O6    O     O_R   0.445360 0.080370 0.326500 -0.508880
O7    O     O_R   0.054640 0.580370 0.673500 -0.502707
O8    O     O_R   0.945360 0.580370 0.326500 -0.510965
O9    O     O_R   0.543920 0.282180 0.666790 -0.514894
O10   O     O_R   0.456080 0.282180 0.333210 -0.526998
O11   O     O_R   0.043920 0.782180 0.666790 -0.525267
O12   O     O_R   0.956080 0.782180 0.333210 -0.519497
O13   O     O_R   0.679040 0.374160 0.674430 -0.518390
O14   O     O_R   0.320960 0.374160 0.325570 -0.502369
O15   O     O_R   0.179040 0.874160 0.674430 -0.496018
O16   O     O_R   0.820960 0.874160 0.325570 -0.524246
O17   O     O_3   0.665350 0.165340 0.749070 -0.301199
O18   O     O_3   0.334650 0.165340 0.250930 -0.246351
O19   O     O_3   0.165350 0.665340 0.749070 -0.277920
O20   O     O_3   0.834650 0.665340 0.250930 -0.269476
O21   O     O_R   0.762640 0.040960 0.825200 -0.501494
O22   O     O_R   0.237360 0.040960 0.174800 -0.469239
O23   O     O_R   0.262640 0.540960 0.825200 -0.503597
O24   O     O_R   0.737360 0.540960 0.174800 -0.466775
O25   O     O_R   0.667400 0.923970 0.829950 -0.505676
O26   O     O_R   0.332600 0.923970 0.170050 -0.489405
O27   O     O_R   0.167400 0.423970 0.829950 -0.507189
O28   O     O_R   0.832600 0.423970 0.170050 -0.487722
O29   O     O_R   0.553960 0.081340 0.821780 -0.421207
O30   O     O_R   0.446040 0.081340 0.178220 -0.433795
O31   O     O_R   0.053960 0.581340 0.821780 -0.427950
O32   O     O_R   0.946040 0.581340 0.178220 -0.426333
O33   O     O_R   0.543180 0.283240 0.826740 -0.543500
O34   O     O_R   0.456820 0.283240 0.173260 -0.545059
O35   O     O_R   0.043180 0.783240 0.826740 -0.549765
O36   O     O_R   0.956820 0.783240 0.173260 -0.538788
O37   O     O_R   0.678360 0.375140 0.822710 -0.502878
O38   O     O_R   0.321640 0.375140 0.177290 -0.510822
O39   O     O_R   0.178360 0.875140 0.822710 -0.503954
O40   O     O_R   0.821640 0.875140 0.177290 -0.509331
O41   O     O_R   0.785050 0.289380 0.670560 -0.519981
O42   O     O_R   0.214950 0.289380 0.329440 -0.528942
O43   O     O_R   0.285050 0.789380 0.670560 -0.519175
O44   O     O_R   0.714950 0.789380 0.329440 -0.529430
O45   O     O_R   0.763320 0.039990 0.676930 -0.511531
O46   O     O_R   0.236680 0.039990 0.323070 -0.513212
O47   O     O_R   0.263320 0.539990 0.676930 -0.508001
O48   O     O_R   0.736680 0.539990 0.323070 -0.516715
O49   O     O_R   0.668130 0.922920 0.670000 -0.532592
O50   O     O_R   0.331870 0.922920 0.330000 -0.530825
O51   O     O_R   0.168130 0.422920 0.670000 -0.523196
O52   O     O_R   0.831870 0.422920 0.330000 -0.540640
O53   O     O_3   0.419688 0.992809 0.055775 -0.672725
H41   H     H_    0.401931 0.944670 0.014567 0.330049
O54   O     O_3   0.510735 0.956294 0.927301 -0.687559
H42   H     H_    0.509901 0.893281 0.965089 0.311376
O55   O     O_3   0.919637 0.492846 0.055764 -0.673353
H43   H     H_    0.901872 0.444716 0.014556 0.330011
O56   O     O_3   0.010670 0.456295 0.927281 -0.688273
H44   H     H_    0.009832 0.393282 0.965069 0.311462
N1    N     N_2   0.645211 0.544653 0.069471 -0.485916
H45   H     H_    0.627816 0.609059 0.033266 0.237922
C93   C     C_3   0.588218 0.497369 0.111818 -0.274277
H46   H     H_    0.550214 0.446746 0.077456 0.121297
H47   H     H_    0.560064 0.574550 0.137728 0.137385
H48   H     H_    0.608797 0.435483 0.154008 0.159511
N2    N     N_2   0.367953 0.482453 0.919374 -0.506003
H49   H     H_    0.375433 0.428125 0.875066 0.262765
C94   C     C_3   0.432179 0.526346 0.953180 -0.310372
H50   H     H_    0.457400 0.452484 0.984784 0.126620
H51   H     H_    0.420801 0.606152 0.988021 0.140111
H52   H     H_    0.469758 0.556107 0.911801 0.156832
N3    N     N_2   0.145264 0.044776 0.069429 -0.486733
H53   H     H_    0.127929 0.109220 0.033219 0.237854
C95   C     C_3   0.088210 0.997539 0.111709 -0.272760
H54   H     H_    0.050242 0.946909 0.077307 0.120772
H55   H     H_    0.060033 0.074743 0.137570 0.138377
H56   H     H_    0.108730 0.935664 0.153931 0.162760
N4    N     N_2   0.867955 0.982464 0.919365 -0.506373
H57   H     H_    0.875435 0.928155 0.875049 0.260726
C96   C     C_3   0.932182 0.026349 0.953171 -0.310755
H58   H     H_    0.957400 0.952480 0.984771 0.126701
H59   H     H_    0.920807 0.106152 0.988016 0.140407
H60   H     H_    0.969761 0.056112 0.911793 0.155897

loop_
_geom_bond_atom_site_label_1
_geom_bond_atom_site_label_2
_ccdc_geom_bond_type
Cr2   O2    S    
C2    O22   A    
O56   H44   S    
C58   C62   A    
C23   C91   A    
C55   C59   A    
Cr8   O28   S    
C77   O41   A    
O55   H43   S    
C14   C18   A    
C19   C23   A    
C35   C36   A    
C84   C87   D    
C87   C88   S    
C3    O27   A    
Cr2   O22   S    
C32   C75   S    
C72   O48   A    
C3    O23   A    
C63   C79   S    
C94   H50   S    
Cr8   O8    S    
C7    C11   A    
C74   O10   A    
C50   C54   A    
C37   H37   S    
C46   O34   A    
Cr11  O39   S    
C32   C36   A    
C16   C20   A    
C56   C60   A    
Cr12  O16   S    
C60   H12   S    
C38   C42   A    
Cr3   O19   S    
C92   H20   S    
C79   O15   A    
Cr6   O30   S    
C80   O16   A    
Cr7   O27   S    
C76   O8    A    
C23   C67   S    
Cr7   O51   S    
C67   O39   A    
C96   H60   S    
Cr5   O25   S    
C93   H47   S    
Cr6   O50   S    
Cr5   O49   S    
C9    C13   A    
C22   C66   S    
C47   O35   A    
C52   C69   S    
C35   H35   S    
C69   O49   A    
C46   C82   S    
C80   O44   A    
C11   C15   A    
C78   O14   A    
C90   H18   S    
C12   C16   A    
C29   C33   A    
C61   C77   S    
C49   C72   S    
Cr8   O32   S    
C93   H48   S    
C46   O30   A    
Cr1   O1    S    
C78   O42   A    
C51   C70   S    
C47   C83   S    
C25   H29   S    
Cr10  O10   S    
C51   C55   A    
C81   C86   D    
C68   O4    A    
C45   O33   A    
C86   O54   S    
C55   H7    S    
C70   O50   A    
C44   C52   A    
Cr8   O52   S    
C83   C88   D    
C66   O38   A    
Cr1   O21   S    
O54   H42   S    
C91   H19   S    
C87   O55   S    
C38   H38   S    
Cr10  O14   S    
C1    C12   S    
C20   H28   S    
C64   C80   S    
C2    C11   S    
C24   C92   A    
C41   C49   A    
Cr2   O42   S    
Cr6   O18   S    
C41   H1    S    
C44   H4    S    
C19   H27   S    
Cr4   O4    S    
Cr5   O29   S    
C30   C34   A    
Cr3   O43   S    
C93   H46   S    
Cr10  O38   S    
C20   C24   A    
C96   H58   S    
Cr3   O3    S    
N4    H57   S    
C10   C14   A    
C33   H33   S    
C95   H54   S    
C30   C73   S    
C53   C57   A    
C57   H9    S    
C29   C74   S    
C65   O37   A    
N3    H53   S    
N1    H45   S    
C17   H25   S    
C81   H14   S    
C76   O12   A    
C17   C21   A    
Cr4   O20   S    
C38   C62   A    
C54   H6    S    
C7    N3    S    
C83   H16   S    
C15   C19   A    
C50   C71   S    
Cr2   O46   S    
C5    C9    A    
C26   H30   S    
C45   O29   A    
C95   H55   S    
C36   H36   S    
C71   O51   A    
N2    H49   S    
C89   H17   S    
Cr1   O17   S    
C8    C12   A    
C7    C91   A    
Cr4   O24   S    
C33   C34   A    
C22   C90   A    
Cr7   O31   S    
Cr8   O20   S    
C43   H3    S    
Cr12  O12   S    
C42   H2    S    
C77   O13   A    
C85   C86   S    
C8    N4    S    
C79   O43   A    
C42   C50   A    
C8    C92   A    
Cr11  O11   S    
Cr12  O40   S    
C2    O26   A    
Cr5   O17   S    
C40   H40   S    
C67   O3    A    
Cr10  O34   S    
C75   O7    A    
C18   H26   S    
Cr9   O9    S    
C65   O1    A    
C48   O36   A    
Cr9   O37   S    
Cr10  O18   S    
C70   O46   A    
C73   O9    A    
Cr6   O6    S    
C94   H52   S    
C53   H5    S    
C25   C30   A    
N2    C94   S    
Cr2   O18   S    
C68   O40   A    
Cr3   O47   S    
C4    O28   A    
C21   C65   S    
C27   C32   A    
C28   H32   S    
C4    O24   A    
C59   C63   A    
C62   C78   S    
C28   C31   A    
C45   C81   S    
C21   C89   A    
C39   H39   S    
C69   O45   A    
Cr3   O23   S    
Cr12  O20   S    
C39   C43   A    
N4    C96   S    
C75   O11   A    
C57   C61   A    
C6    N2    S    
Cr1   O45   S    
N3    C95   S    
C82   C85   D    
C39   C63   A    
Cr11  O19   S    
C14   H22   S    
C13   C17   A    
C60   C64   A    
C27   H31   S    
Cr4   O48   S    
C18   C22   A    
C25   C26   A    
C94   H51   S    
C13   H21   S    
Cr9   O13   S    
C3    C10   S    
C6    C90   A    
C95   H56   S    
Cr11  O15   S    
C31   C76   S    
Cr12  O36   S    
Cr7   O7    S    
C43   C51   A    
C84   H15   S    
C49   C53   A    
C40   C64   A    
C31   C35   A    
Cr9   O17   S    
C96   H59   S    
C34   H34   S    
Cr11  O35   S    
C16   H24   S    
C88   O56   S    
C37   C41   A    
O53   H41   S    
C47   O31   A    
C66   O2    A    
Cr7   O19   S    
C6    C10   A    
C24   C68   S    
C5    N1    S    
Cr6   O26   S    
C48   C84   S    
C40   C44   A    
C37   C61   A    
C54   C58   A    
C1    O21   A    
C26   C29   A    
C59   H11   S    
C73   O5    A    
C1    O25   A    
C27   C28   A    
C58   H10   S    
Cr5   O5    S    
C85   O53   S    
C74   O6    A    
C15   H23   S    
C82   H13   S    
C71   O47   A    
C4    C9    S    
N1    C93   S    
Cr4   O44   S    
C56   H8    S    
Cr9   O33   S    
C5    C89   A    
C52   C56   A    
C72   O52   A    
C48   O32   A    
Cr1   O41   S    
