data_mof_unit_573.cif
_audit_creation_date              2012-12-10T16:58:30-0500
_audit_creation_method            fapswitch 2.2
_symmetry_space_group_name_H-M    P1
_symmetry_Int_Tables_number       1
_space_group_crystal_system       triclinic
_cell_length_a                    7.758744
_cell_length_b                    8.554191
_cell_length_c                    23.303136
_cell_angle_alpha                 91.808978
_cell_angle_beta                  85.568178
_cell_angle_gamma                 93.89838
_cell_volume                      1537.89326582

loop_
_atom_site_label
_atom_site_type_symbol
_atom_type_description
_atom_site_fract_x
_atom_site_fract_y
_atom_site_fract_z
_atom_type_partial_charge
C1    C     C_R   0.545949 0.794824 0.498545 0.959093
C2    C     C_R   0.480553 0.363589 0.295802 -0.272529
C3    C     C_R   0.517861 0.634016 0.763850 0.064877
C4    C     C_R   0.483777 0.367781 0.235906 0.064552
C5    C     C_R   0.500037 0.487209 0.790680 0.274595
C6    C     C_R   0.500042 0.514979 0.209367 0.275257
C7    C     C_2   0.570133 0.958406 0.497658 -0.384538
C8    C     C_2   0.429867 0.041594 0.502343 -0.384553
C9    C     C_R   0.501874 0.501263 0.610298 0.864923
C10   C     C_R   0.498125 0.498743 0.389701 0.864861
C11   C     C_R   0.345781 0.480102 0.123783 0.511389
C12   C     C_R   0.454051 0.205176 0.501456 0.959121
C13   C     C_R   0.654193 0.522631 0.876300 0.510986
C14   C     C_R   0.646018 0.567879 0.116495 0.471663
C15   C     C_R   0.353844 0.435203 0.883606 0.471414
C16   C     C_R   0.650153 0.561294 0.056488 -0.021610
C17   C     C_R   0.349708 0.441800 0.943619 -0.021131
C18   C     C_R   0.498630 0.508121 0.030186 -0.024599
C19   C     C_R   0.501238 0.494936 0.969922 -0.024359
C20   C     C_R   0.344538 0.467976 0.063997 -0.016037
C21   C     C_R   0.655354 0.534995 0.936102 -0.016268
C22   C     C_R   0.802419 0.602824 0.022387 -0.196861
C23   C     C_R   0.482732 0.347953 0.757919 -0.106474
C24   C     C_R   0.197439 0.400276 0.977719 -0.196713
C25   C     C_R   0.805181 0.589271 0.962657 -0.170793
C26   C     C_R   0.194696 0.413758 0.037446 -0.170982
C27   C     C_R   0.535205 0.783156 0.797802 0.111705
C28   C     C_R   0.408178 0.820301 0.841532 -0.165424
C29   C     C_R   0.430683 0.956282 0.875789 -0.124335
C30   C     C_R   0.579578 0.056343 0.866593 -0.118110
C31   C     C_R   0.704852 0.022019 0.822472 -0.141564
C32   C     C_R   0.682646 0.886358 0.787994 -0.109679
C33   C     C_R   0.467694 0.219075 0.201647 0.110571
C34   C     C_R   0.515748 0.653915 0.242382 -0.106674
C35   C     C_R   0.320484 0.115331 0.210959 -0.109499
C36   C     C_R   0.299406 0.980163 0.176147 -0.143789
C37   C     C_R   0.425630 0.946847 0.132205 -0.117202
C38   C     C_R   0.574275 0.047484 0.123491 -0.122500
C39   C     C_R   0.595612 0.183014 0.158070 -0.165441
C40   C     C_R   0.485144 0.352892 0.698521 -0.217497
C41   C     C_R   0.513244 0.648226 0.301770 -0.216985
C42   C     C_R   0.504545 0.497265 0.671820 -0.009707
C43   C     C_R   0.495552 0.503413 0.328188 -0.009775
C44   C     C_R   0.521199 0.637405 0.703935 -0.272718
H1    H     H_    0.919924 0.645125 0.041703 0.194153
H2    H     H_    0.468360 0.252075 0.317125 0.130894
H3    H     H_    0.702480 0.009793 0.493158 0.182274
H4    H     H_    0.297520 0.990207 0.506843 0.182260
H5    H     H_    0.013430 0.381491 0.456596 0.193722
H6    H     H_    0.986569 0.618509 0.543404 0.193678
H7    H     H_    0.292248 0.743807 0.849251 0.163358
H8    H     H_    0.332987 0.983796 0.909622 0.146664
H9    H     H_    0.597301 0.161019 0.893363 0.135881
H10   H     H_    0.819534 0.100268 0.815151 0.171004
H11   H     H_    0.782124 0.859875 0.754582 0.144812
H12   H     H_    0.079925 0.357999 0.958402 0.194167
H13   H     H_    0.220320 0.141034 0.244242 0.145350
H14   H     H_    0.184897 0.901487 0.183081 0.171110
H15   H     H_    0.408767 0.842556 0.105174 0.135354
H16   H     H_    0.672663 0.020792 0.089770 0.146315
H17   H     H_    0.711311 0.260019 0.150714 0.163997
H18   H     H_    0.924603 0.622081 0.937422 0.196801
H19   H     H_    0.075292 0.380908 0.062674 0.196605
H20   H     H_    0.467618 0.235966 0.778590 0.161365
H21   H     H_    0.529588 0.766218 0.221922 0.160995
H22   H     H_    0.471221 0.244632 0.673377 0.136484
H23   H     H_    0.525825 0.756248 0.327126 0.136463
H24   H     H_    0.534597 0.748583 0.682383 0.130662
N1    N     N_R   0.496417 0.524107 0.148527 -0.359807
N2    N     N_R   0.503530 0.478706 0.851553 -0.359978
N3    N     N_2   0.950330 0.457950 0.484560 -0.170146
N4    N     N_2   0.049670 0.542050 0.515440 -0.170164
O1    O     O_R   0.389250 0.738570 0.503790 -0.612958
O2    O     O_2   0.801375 0.556018 0.842930 -0.541351
O3    O     O_2   0.790848 0.613765 0.142763 -0.547256
O4    O     O_2   0.208929 0.389533 0.857356 -0.547319
O5    O     O_R   0.610750 0.261430 0.496210 -0.612957
O6    O     O_R   0.678390 0.711620 0.493890 -0.629757
O7    O     O_R   0.321610 0.288380 0.506110 -0.629795
O8    O     O_R   0.355400 0.513520 0.588790 -0.605782
O9    O     O_R   0.644600 0.486480 0.411210 -0.605706
O10   O     O_R   0.644550 0.486570 0.578900 -0.620487
O11   O     O_R   0.355450 0.513430 0.421100 -0.620462
O12   O     O_2   0.198721 0.446326 0.157147 -0.541861
Zn1   Zn    Zn3+2 0.306930 0.518000 0.506610 0.952356
Zn2   Zn    Zn3+2 0.693070 0.482000 0.493390 0.952399

loop_
_geom_bond_atom_site_label_1
_geom_bond_atom_site_label_2
_ccdc_geom_bond_type
C6    N1    S    
C35   C36   A    
N4    Zn1   S    
C7    C8    D    
C41   H23   S    
C2    H2    S    
C9    C42   S    
C29   C30   A    
C36   C37   A    
C19   C21   A    
C37   C38   A    
C24   C26   A    
C36   H14   S    
C30   C31   A    
C28   H7    S    
C13   N2    A    
C23   C40   A    
C12   O7    A    
C10   O11   A    
C18   C19   A    
H6    N4    S    
C33   C35   A    
C22   C25   A    
C32   H11   S    
O9    Zn2   S    
C9    O10   A    
O6    Zn2   S    
C40   C42   A    
C15   O4    S    
C10   C43   S    
C40   H22   S    
C1    O6    A    
C41   C43   A    
C34   C41   A    
C42   C44   A    
C34   H21   S    
C39   H17   S    
C30   H9    S    
C3    C44   A    
C17   C24   A    
C4    C6    A    
O10   Zn2   S    
C11   C20   A    
C6    C34   A    
C9    O8    A    
C7    H3    S    
C2    C4    A    
C26   H19   S    
C8    H4    S    
O8    Zn1   S    
N3    Zn2   S    
C31   C32   A    
C5    C23   A    
C2    C43   A    
C8    C12   S    
C12   O5    A    
C13   C21   A    
C33   C39   A    
O1    Zn1   S    
C37   H15   S    
C38   H16   S    
C23   H20   S    
O11   Zn1   S    
O5    Zn2   S    
C14   N1    A    
C14   C16   A    
C44   H24   S    
O7    Zn1   S    
C15   C17   A    
C15   N2    A    
C21   C25   A    
C4    C33   S    
C28   C29   A    
C16   C22   A    
C27   C32   A    
C1    C7    S    
C3    C5    A    
C5    N2    S    
C11   N1    A    
C11   O12   S    
C24   H12   S    
C10   O9    A    
C35   H13   S    
C1    O1    A    
C14   O3    S    
C3    C27   S    
N3    N4    D    
C38   C39   A    
C20   C26   A    
C17   C19   A    
C18   C20   A    
C25   H18   S    
C31   H10   S    
C22   H1    S    
C13   O2    S    
C16   C18   A    
H5    N3    S    
C27   C28   A    
C29   H8    S    
