data_mof_unit_2446.cif
_audit_creation_date              2012-12-11T16:07:30-0500
_audit_creation_method            fapswitch 2.2
_symmetry_space_group_name_H-M    P1
_symmetry_Int_Tables_number       1
_space_group_crystal_system       triclinic
_cell_length_a                    6.99888
_cell_length_b                    14.416982
_cell_length_c                    15.942373
_cell_angle_alpha                 89.794578
_cell_angle_beta                  90.227522
_cell_angle_gamma                 90.083909
_cell_volume                      1608.6041966

loop_
_atom_site_label
_atom_site_type_symbol
_atom_type_description
_atom_site_fract_x
_atom_site_fract_y
_atom_site_fract_z
_atom_type_partial_charge
O1    O     O_R   0.494320 0.415010 0.412140 -0.543999
O2    O     O_R   0.824010 0.404260 0.587250 -0.545989
O3    O     O_R   0.994320 0.584990 0.587860 -0.536010
C1    C     C_R   0.655202 0.381415 0.615694 0.674291
O4    O     O_R   0.824040 0.403870 0.412760 -0.546312
O5    O     O_R   0.994350 0.584590 0.412130 -0.542213
C2    C     C_R   0.654656 0.382317 0.384197 0.675444
O6    O     O_R   0.494300 0.415410 0.587870 -0.542771
O7    O     O_3   0.660800 0.559290 0.500000 -0.359877
V1    V     V_3+5 0.935650 0.489000 0.500000 1.407392
O8    O     O_R   0.324060 0.595740 0.412750 -0.539548
C3    C     C_R   0.154809 0.617892 0.383622 0.665265
O9    O     O_R   0.324040 0.596130 0.587240 -0.527373
C4    C     C_R   0.155219 0.617636 0.616630 0.753106
V2    V     V_3+5 0.435660 0.511000 0.500000 1.431782
O10   O     O_3   0.160640 0.440710 0.500000 -0.377286
C5    C     C_3   0.955701 0.726654 0.723750 -0.178756
C6    C     C_3   0.036738 0.712594 0.813263 0.298037
H1    H     H_    0.808739 0.708095 0.703276 0.170771
C7    C     C_3   0.122841 0.810729 0.811461 -0.107812
C8    C     C_3   0.043054 0.825825 0.721799 -0.134136
C9    C     C_3   0.229834 0.785127 0.685507 0.368499
C10   C     C_3   0.310920 0.771187 0.775071 -0.119261
C11   C     C_3   0.223485 0.672084 0.776947 -0.231604
C12   C     C_3   0.143553 0.687224 0.687554 -0.156799
H2    H     H_    0.969346 0.889208 0.698851 0.201481
H3    H     H_    0.458061 0.789304 0.795577 0.184993
H4    H     H_    0.296962 0.608611 0.799833 0.155011
C13   C     C_3   0.221473 0.853481 0.264597 -0.301559
H5    H     H_    0.368032 0.877094 0.247974 0.139173
H6    H     H_    0.140963 0.915531 0.285773 0.183222
C14   C     C_3   0.233937 0.782062 0.337726 -0.309298
H7    H     H_    0.159486 0.810072 0.393721 0.169589
H8    H     H_    0.386382 0.771702 0.355492 0.162201
H9    H     H_    0.383847 0.743890 0.141108 0.146379
H10   H     H_    0.402049 0.638842 0.248907 0.137710
C15   C     C_3   0.236866 0.723390 0.160151 -0.321079
C16   C     C_3   0.919207 0.777873 0.213605 -0.316830
C17   C     C_3   0.121704 0.810541 0.186505 0.077037
H11   H     H_    0.843627 0.745568 0.159490 0.154680
H12   H     H_    0.832671 0.838472 0.233890 0.149202
C18   C     C_3   0.142822 0.688061 0.312086 0.093090
C19   C     C_3   0.249270 0.652019 0.233368 -0.322928
C20   C     C_3   0.931376 0.706962 0.286299 -0.308173
H13   H     H_    0.850365 0.733995 0.340952 0.154348
H14   H     H_    0.861349 0.641130 0.266538 0.135838
H15   H     H_    0.167678 0.690387 0.104801 0.163300
H16   H     H_    0.186089 0.584837 0.213038 0.130007
C21   C     C_3   0.470623 0.243763 0.672032 -0.383380
H17   H     H_    0.335583 0.284461 0.672081 0.116283
H18   H     H_    0.481078 0.212113 0.608712 0.166245
C22   C     C_3   0.459102 0.168848 0.742592 0.323407
H19   H     H_    0.319399 0.177355 0.774792 0.047614
H20   H     H_    0.488275 0.402159 0.770601 0.143197
H21   H     H_    0.458810 0.292378 0.874394 0.140410
C23   C     C_3   0.618143 0.357701 0.771799 -0.312780
C24   C     C_3   0.827706 0.249231 0.690002 -0.317583
C25   C     C_3   0.643867 0.309653 0.685701 0.054504
H22   H     H_    0.956014 0.294061 0.698065 0.138005
H23   H     H_    0.845404 0.210724 0.630168 0.170012
C26   C     C_3   0.621820 0.184441 0.809077 -0.006651
C27   C     C_3   0.600063 0.284711 0.843366 -0.424411
C28   C     C_3   0.818811 0.179712 0.764016 -0.266909
H24   H     H_    0.847182 0.108341 0.741156 0.208125
H25   H     H_    0.935397 0.196608 0.809192 0.135730
H26   H     H_    0.742467 0.403833 0.784550 0.163351
H27   H     H_    0.711293 0.298373 0.891895 0.162963
C29   C     C_3   0.522285 0.355638 0.239182 -0.302458
H28   H     H_    0.374857 0.370656 0.261196 0.183362
H29   H     H_    0.584983 0.422620 0.217774 0.115342
C30   C     C_3   0.513692 0.286924 0.164358 -0.357035
H30   H     H_    0.569108 0.321962 0.107018 0.093299
H31   H     H_    0.366998 0.277643 0.147535 0.222872
H32   H     H_    0.406779 0.230391 0.359274 0.204544
H33   H     H_    0.441122 0.107520 0.261443 0.210833
C31   C     C_3   0.557506 0.221121 0.339729 -0.301321
C32   C     C_3   0.845990 0.295391 0.279602 -0.354006
C33   C     C_3   0.644056 0.315233 0.312215 0.003960
H34   H     H_    0.924300 0.256064 0.329184 0.202169
H35   H     H_    0.925870 0.361176 0.268040 0.125481
C34   C     C_3   0.631531 0.196196 0.182738 -0.011158
C35   C     C_3   0.573074 0.149463 0.267378 -0.244074
C36   C     C_3   0.834566 0.240285 0.197332 0.373604
H36   H     H_    0.857530 0.293855 0.147741 0.084902
H37   H     H_    0.635020 0.194081 0.395796 0.124878
H38   H     H_    0.684710 0.097993 0.284785 0.155075
O11   O     O_R   0.771990 0.083520 0.910980 -0.545517
O12   O     O_R   0.442180 0.095020 0.086060 -0.542275
O13   O     O_R   0.271950 0.914280 0.086680 -0.546735
C37   C     C_R   0.613741 0.122917 0.111382 0.670707
O14   O     O_R   0.442270 0.094630 0.911580 -0.548821
O15   O     O_R   0.272040 0.913890 0.910940 -0.524917
C38   C     C_R   0.611032 0.115797 0.881782 0.719038
O16   O     O_R   0.771900 0.083910 0.086710 -0.471669
O17   O     O_3   0.605520 0.939610 0.998840 -0.375056
V3    V     V_3+5 0.330640 0.009880 0.998810 1.543145
O18   O     O_R   0.942330 0.902710 0.911540 -0.533613
C39   C     C_R   0.111187 0.880786 0.882329 0.763436
O19   O     O_R   0.942240 0.903100 0.086030 -0.535121
C40   C     C_R   0.111150 0.880719 0.114977 0.726527
V4    V     V_3+5 0.830640 0.987830 0.998780 1.583796
O20   O     O_3   0.105630 0.058150 0.998800 -0.341987
Br1   Br    Br    0.895049 0.658672 0.905474 -0.627776
S1    S     S_3+6 0.454008 0.054328 0.697193 -0.012767
O21   O     O_2   0.603564 0.045104 0.630287 -0.324973
O22   O     O_2   0.487353 0.980862 0.762566 -0.334034
O23   O     O_3   0.236766 0.037567 0.654367 -0.487303
H39   H     H_    0.229276 0.082071 0.607010 0.335857
Br2   Br    Br    0.371654 0.832710 0.590461 -0.447064
S2    S     S_3+6 0.037816 0.171699 0.185049 -0.073930
O24   O     O_2   0.186641 0.208656 0.242911 -0.414826
O25   O     O_2   0.009757 0.070250 0.203182 -0.359072
O26   O     O_3   0.075397 0.195508 0.082721 -0.528364
H40   H     H_    0.210996 0.200604 0.070334 0.332683

loop_
_geom_bond_atom_site_label_1
_geom_bond_atom_site_label_2
_ccdc_geom_bond_type
C8    H2    S    
O12   V3    S    
V4    O20   S    
V3    O20   S    
O17   V3    S    
C1    O6    A    
C28   H25   S    
O18   C39   A    
C17   C40   S    
O15   C39   A    
C32   C33   S    
C20   H13   S    
H32   C31   S    
C27   H27   S    
C6    C11   S    
H9    C15   S    
C31   C33   S    
C13   C14   S    
C22   C26   S    
O5    C3    A    
C16   C17   S    
C26   C38   S    
C24   H22   S    
C32   C36   S    
V2    O10   S    
H21   C27   S    
O15   V3    S    
C26   C28   S    
S2    O24   D    
C3    C18   S    
O14   V3    S    
O11   V4    S    
O8    V2    S    
C36   H36   S    
O16   V4    S    
C29   H28   S    
C21   H18   S    
C9    C12   S    
O23   H39   S    
C24   C28   S    
O1    V2    S    
C10   H3    S    
C15   H15   S    
C19   H16   S    
C21   C22   S    
C8    C9    S    
C18   C20   S    
S1    O22   D    
S1    O21   D    
C34   C36   S    
C20   H14   S    
C37   O16   A    
S2    O25   D    
C32   H34   S    
C29   C33   S    
H20   C23   S    
O13   C40   A    
C11   C12   S    
C16   H12   S    
C31   C35   S    
C30   H31   S    
C24   H23   S    
C35   H38   S    
C34   C35   S    
C21   C25   S    
C14   H8    S    
C15   C19   S    
O2    C1    A    
C16   C20   S    
C13   H5    S    
O14   C38   A    
O19   C40   A    
C7    C10   S    
C10   C11   S    
C9    Br2   S    
C13   C17   S    
C5    C6    S    
C36   S2    S    
S2    O26   S    
O3    C4    A    
C2    C33   S    
C34   C37   S    
C29   H29   S    
O19   V4    S    
O12   C37   A    
O6    V2    S    
O9    V2    S    
C23   C27   S    
C18   C19   S    
O2    V1    S    
C22   H19   S    
O4    C2    A    
O26   H40   S    
O7    V1    S    
C32   H35   S    
C22   S1    S    
O1    C2    A    
C11   H4    S    
O5    V1    S    
O8    C3    A    
H33   C35   S    
C5    C12   S    
C14   H7    S    
O13   V3    S    
O7    V2    S    
O4    V1    S    
C15   C17   S    
O3    V1    S    
V1    O10   S    
C16   H11   S    
C24   C25   S    
C29   C30   S    
C23   H26   S    
O11   C38   A    
C5    H1    S    
C23   C25   S    
C6    C7    S    
C6    Br1   S    
C4    C12   S    
C26   C27   S    
C5    C8    S    
C28   H24   S    
C30   H30   S    
C7    C39   S    
C7    C8    S    
C13   H6    S    
C21   H17   S    
C1    C25   S    
C14   C18   S    
C9    C10   S    
H10   C19   S    
O9    C4    A    
C31   H37   S    
S1    O23   S    
O18   V4    S    
O17   V4    S    
C30   C34   S    
