data_mof_unit_3323.cif
_audit_creation_date              2012-12-10T17:49:40-0500
_audit_creation_method            fapswitch 2.2
_symmetry_space_group_name_H-M    P1
_symmetry_Int_Tables_number       1
_space_group_crystal_system       triclinic
_cell_length_a                    10.507083
_cell_length_b                    10.712954
_cell_length_c                    9.906839
_cell_angle_alpha                 87.991721
_cell_angle_beta                  88.541084
_cell_angle_gamma                 91.881406
_cell_volume                      1113.45151922

loop_
_atom_site_label
_atom_site_type_symbol
_atom_type_description
_atom_site_fract_x
_atom_site_fract_y
_atom_site_fract_z
_atom_type_partial_charge
C1    C     C_R   0.513408 0.261368 0.502718 0.885250
C2    C     C_R   0.510040 0.057463 0.628815 0.073686
C3    C     C_R   0.535081 0.129734 0.509507 -0.161695
C4    C     C_R   0.257140 0.500433 0.501775 0.842018
C5    C     C_R   0.561563 0.073286 0.388751 -0.263383
C6    C     C_R   0.551947 0.945284 0.381222 0.172913
C7    C     C_R   0.494851 0.875434 0.493925 -0.173366
C8    C     C_R   0.337872 0.328162 0.148727 -0.183542
C9    C     C_R   0.266341 0.237138 0.082170 0.191604
C10   C     C_R   0.269000 0.239327 0.941853 -0.246273
C11   C     C_R   0.342393 0.329247 0.868704 -0.217938
C12   C     C_3   0.965650 0.524962 0.370519 -0.131688
C13   C     C_R   0.421357 0.415904 0.932456 0.149812
C14   C     C_R   0.420290 0.415861 0.076978 0.135753
C15   C     C_R   0.577529 0.578556 0.066264 -0.143024
C16   C     C_R   0.496744 0.740676 0.497670 0.870722
C17   C     C_R   0.576883 0.579231 0.923210 -0.121670
C18   C     C_R   0.742350 0.503063 0.498122 0.857575
C19   C     C_3   0.030624 0.484729 0.627585 0.160689
C20   C     C_3   0.949375 0.393638 0.546773 -0.208014
C21   C     C_3   0.876946 0.505699 0.494677 0.007225
C22   C     C_3   0.955943 0.596930 0.576010 -0.189948
C23   C     C_3   0.041151 0.412863 0.423222 -0.190070
C24   C     C_3   0.048395 0.615406 0.452252 -0.198965
C25   C     C_3   0.278473 0.787982 0.711802 -0.357567
C26   C     C_3   0.151951 0.842070 0.756492 -0.947245
C27   C     C_3   0.608918 0.891600 0.253692 -0.379860
C28   C     C_3   0.739649 0.838125 0.280100 -0.847270
C29   C     C_3   0.184140 0.139083 0.159473 -0.438176
C30   C     C_3   0.262802 0.054991 0.249841 -0.864685
C31   C     C_3   0.062223 0.456787 0.774686 -0.418847
C32   C     C_3   0.942950 0.459001 0.866947 -0.332646
C33   C     C_3   0.970571 0.412057 0.009938 -0.897124
C34   C     C_3   0.121568 0.502972 0.505143 -0.006206
C35   C     C_R   0.531585 0.100844 0.759689 -0.148576
C36   C     C_R   0.486119 0.031657 0.873302 -0.203684
C37   C     C_R   0.409546 0.925339 0.857323 -0.158608
C38   C     C_R   0.388225 0.881210 0.727528 0.219330
C39   C     C_R   0.460604 0.936411 0.615096 0.003738
H1    H     H_    0.904651 0.303302 0.584640 0.126432
H2    H     H_    0.933452 0.543474 0.266270 0.144667
H3    H     H_    0.080803 0.338374 0.362161 0.131541
H4    H     H_    0.592304 0.129886 0.300193 0.171959
H5    H     H_    0.587685 0.185181 0.775696 0.168239
H6    H     H_    0.503293 0.065000 0.973334 0.150044
H7    H     H_    0.074351 0.770900 0.747016 0.254829
H8    H     H_    0.153135 0.868301 0.863865 0.259189
H9    H     H_    0.131391 0.925611 0.692069 0.264696
H10   H     H_    0.268587 0.762430 0.604980 0.193534
H11   H     H_    0.295152 0.702056 0.773993 0.227110
H12   H     H_    0.363803 0.879489 0.945790 0.138854
H13   H     H_    0.732719 0.757983 0.353998 0.265295
H14   H     H_    0.782638 0.806347 0.184265 0.228496
H15   H     H_    0.804242 0.911401 0.320059 0.250609
H16   H     H_    0.542866 0.823735 0.207670 0.218854
H17   H     H_    0.623954 0.965805 0.172950 0.179191
H18   H     H_    0.340793 0.013959 0.189946 0.258993
H19   H     H_    0.303350 0.108969 0.333006 0.261565
H20   H     H_    0.200991 0.977788 0.295388 0.244150
H21   H     H_    0.111264 0.184633 0.221467 0.195612
H22   H     H_    0.131787 0.078752 0.088880 0.205700
H23   H     H_    0.641927 0.641498 0.115629 0.151636
H24   H     H_    0.998972 0.313174 0.009350 0.262903
H25   H     H_    0.048092 0.470034 0.053029 0.267610
H26   H     H_    0.883198 0.417175 0.074640 0.250060
H27   H     H_    0.908898 0.556010 0.870596 0.215387
H28   H     H_    0.865652 0.398551 0.826885 0.233317
H29   H     H_    0.101657 0.362277 0.780210 0.204389
H30   H     H_    0.134509 0.526311 0.807811 0.216686
H31   H     H_    0.326404 0.327203 0.255763 0.210744
H32   H     H_    0.212247 0.172179 0.887841 0.152549
H33   H     H_    0.334265 0.328601 0.761960 0.221730
H34   H     H_    0.639855 0.643953 0.865294 0.147247
H35   H     H_    0.912956 0.671180 0.635812 0.124262
H36   H     H_    0.093106 0.705669 0.414265 0.135507
N1    N     N_R   0.498800 0.498800 0.142780 -0.111916
N2    N     N_R   0.498760 0.498720 0.857170 -0.123543
O1    O     O_R   0.500000 0.316780 0.614690 -0.646933
O2    O     O_R   0.499990 0.316750 0.385360 -0.637088
O3    O     O_R   0.313960 0.499980 0.614650 -0.658640
O4    O     O_R   0.313940 0.499960 0.385310 -0.630322
O5    O     O_R   0.500010 0.683250 0.614640 -0.625026
O6    O     O_R   0.500000 0.683220 0.385310 -0.611811
O7    O     O_R   0.686060 0.500040 0.614690 -0.627446
O8    O     O_R   0.686040 0.500020 0.385350 -0.624861
Zn1   Zn    Zn3+2 0.500010 0.500020 0.653130 0.902264
Zn2   Zn    Zn3+2 0.499990 0.499980 0.346870 0.921486

loop_
_geom_bond_atom_site_label_1
_geom_bond_atom_site_label_2
_ccdc_geom_bond_type
C2    C35   A    
O6    Zn2   S    
C18   C21   S    
C11   C13   A    
C19   C20   S    
C19   C31   S    
O2    Zn2   S    
C33   H26   S    
C12   C23   S    
C37   C38   A    
C23   H3    S    
C36   C37   A    
O7    Zn1   S    
C4    O3    A    
C5    C6    A    
C20   H1    S    
C27   H16   S    
C30   H18   S    
C25   H11   S    
O3    Zn1   S    
C2    C39   A    
C4    O4    A    
C31   C32   S    
C8    C9    A    
C18   O7    A    
C20   C23   S    
C9    C10   A    
C26   H9    S    
C10   H32   S    
O1    Zn1   S    
C15   N1    A    
C5    H4    S    
C13   C14   A    
C17   H34   S    
C1    O1    A    
C17   N2    A    
C13   N2    A    
O8    Zn2   S    
C31   H29   S    
C29   H22   S    
C18   O8    A    
C19   C22   S    
C28   H15   S    
C11   H33   S    
C25   C26   S    
O5    Zn1   S    
C12   C21   S    
C16   O6    A    
C24   C34   S    
C1    C3    S    
C35   C36   A    
C14   N1    A    
C29   C30   S    
C25   C38   S    
C6    C27   S    
C29   H21   S    
C33   H24   S    
C23   C34   S    
C30   H20   S    
C16   O5    A    
C36   H6    S    
C35   H5    S    
N1    Zn2   S    
O4    Zn2   S    
C26   H8    S    
C32   H28   S    
C7    C16   S    
N2    Zn1   S    
C1    O2    A    
C22   C24   S    
C22   H35   S    
C12   H2    S    
C32   H27   S    
C15   C17   A    
C8    C14   A    
C27   H17   S    
C3    C5    A    
C19   C34   S    
C28   H14   S    
C24   H36   S    
C6    C7    A    
C9    C29   S    
C12   C24   S    
C8    H31   S    
C32   C33   S    
C2    C3    A    
C28   H13   S    
C38   C39   A    
C33   H25   S    
C37   H12   S    
C30   H19   S    
C15   H23   S    
C4    C34   S    
C25   H10   S    
C10   C11   A    
C26   H7    S    
C31   H30   S    
C20   C21   S    
C27   C28   S    
C7    C39   A    
C21   C22   S    
