data_mof_unit_4268.cif
_audit_creation_date              2012-12-10T17:09:31-0500
_audit_creation_method            fapswitch 2.2
_symmetry_space_group_name_H-M    P1
_symmetry_Int_Tables_number       1
_space_group_crystal_system       triclinic
_cell_length_a                    10.500801
_cell_length_b                    10.690095
_cell_length_c                    10.072958
_cell_angle_alpha                 88.118547
_cell_angle_beta                  89.956032
_cell_angle_gamma                 90.325729
_cell_volume                      1130.10710948

loop_
_atom_site_label
_atom_site_type_symbol
_atom_type_description
_atom_site_fract_x
_atom_site_fract_y
_atom_site_fract_z
_atom_type_partial_charge
C1    C     C_R   0.491910 0.262267 0.502294 0.935509
C2    C     C_3   0.957779 0.598653 0.431008 -0.208213
C3    C     C_3   0.041325 0.494933 0.373191 -0.180718
C4    C     C_3   0.122681 0.498686 0.499173 0.025555
C5    C     C_2   0.450095 0.933879 0.396384 -0.180690
C6    C     C_2   0.513186 0.869224 0.490176 -0.330657
C7    C     C_2   0.456834 0.068684 0.395085 -0.220366
C8    C     C_2   0.459284 0.131177 0.508808 0.061186
C9    C     C_2   0.572662 0.571103 0.924680 -0.112609
C10   C     C_2   0.588988 0.554138 0.073698 0.221765
C11   C     C_R   0.257595 0.499889 0.499832 0.864497
C12   C     C_R   0.503169 0.737216 0.497625 0.905459
C13   C     C_R   0.742391 0.498706 0.500223 0.917119
C14   C     C_3   0.043192 0.396153 0.569269 -0.238525
C15   C     C_3   0.959351 0.393773 0.444254 0.019812
C16   C     C_3   0.877410 0.496371 0.500829 -0.037521
C17   C     C_3   0.959437 0.500045 0.626544 -0.158062
C18   C     C_3   0.042002 0.602409 0.556526 -0.154890
H1    H     H_    0.622522 0.648347 0.874923 0.140022
H2    H     H_    0.414379 0.485982 0.104697 0.167130
H3    H     H_    0.082587 0.313805 0.625017 0.144705
H4    H     H_    0.922636 0.502238 0.729822 0.153301
H5    H     H_    0.080760 0.687693 0.602263 0.136911
H6    H     H_    0.918644 0.681196 0.375461 0.145707
H7    H     H_    0.077999 0.492499 0.269875 0.153828
H8    H     H_    0.397476 0.888223 0.318497 0.176764
H9    H     H_    0.572842 0.913620 0.562769 0.175723
H10   H     H_    0.472342 0.115262 0.298900 0.170042
N1    N     N_2   0.501360 0.501330 0.852150 -0.026175
N2    N     N_2   0.501400 0.501360 0.147810 -0.226896
O1    O     O_R   0.499980 0.319060 0.613040 -0.585527
O2    O     O_R   0.500020 0.319100 0.386900 -0.606909
O3    O     O_R   0.313930 0.499950 0.613050 -0.619282
O4    O     O_R   0.313970 0.499990 0.386910 -0.630334
O5    O     O_R   0.499980 0.680900 0.613100 -0.620759
O6    O     O_R   0.500020 0.680940 0.386960 -0.630350
O7    O     O_R   0.686030 0.500010 0.613090 -0.631005
O8    O     O_R   0.686070 0.500050 0.386950 -0.574651
Zn1   Zn    Zn3+2 0.499970 0.499970 0.650990 0.960389
Zn2   Zn    Zn3+2 0.500030 0.500030 0.349010 0.954628
C19   C     C_2   0.915768 0.275383 0.382153 0.883122
O9    O     O_2   0.994683 0.204246 0.337832 -0.639339
O10   O     O_R   0.786160 0.246151 0.376047 -0.809514
H11   H     H_    0.769220 0.163558 0.332456 0.336419
N3    N     N_2   0.411809 0.077268 0.631717 -0.309174
H12   H     H_    0.345557 0.005914 0.627188 0.247184
C20   C     C_3   0.496885 0.071066 0.745158 -0.757336
H13   H     H_    0.510346 0.972037 0.778796 0.218677
H14   H     H_    0.454074 0.121618 0.828154 0.257727
H15   H     H_    0.591935 0.112343 0.721348 0.249275
N4    N     N_2   0.471374 0.382456 0.901586 -0.224470
H16   H     H_    0.526021 0.341847 0.976238 0.209294
C21   C     C_3   0.337811 0.349809 0.894986 -0.688134
H17   H     H_    0.318018 0.266825 0.961135 0.197731
H18   H     H_    0.312033 0.325948 0.792204 0.271035
H19   H     H_    0.277829 0.428620 0.927033 0.213597
N5    N     N_2   0.699085 0.604039 0.136221 -0.248423
H20   H     H_    0.680651 0.675474 0.199645 0.245676
C22   C     C_3   0.814744 0.619413 0.059022 -0.827699
H21   H     H_    0.896142 0.634695 0.126878 0.242150
H22   H     H_    0.807369 0.702119 0.989902 0.224886
H23   H     H_    0.834028 0.533890 0.002646 0.251405

loop_
_geom_bond_atom_site_label_1
_geom_bond_atom_site_label_2
_ccdc_geom_bond_type
O5    Zn1   S    
O10   H11   S    
C22   H21   S    
C10   N5    S    
C11   O3    A    
C5    H8    S    
C12   O6    A    
C1    C8    S    
C2    C16   S    
C19   O9    D    
C10   N2    D    
C21   H18   S    
C13   O7    A    
C20   H13   S    
C9    N1    D    
C4    C18   S    
N1    Zn1   S    
N3    C20   S    
C17   C18   S    
N5    H20   S    
C8    N3    S    
N2    Zn2   S    
C7    C8    D    
O7    Zn1   S    
H2    N2    S    
C21   H17   S    
C12   O5    A    
O8    Zn2   S    
C19   O10   S    
C14   C17   S    
C15   C19   S    
C13   O8    A    
O3    Zn1   S    
C18   H5    S    
O4    Zn2   S    
C6    C12   S    
O1    Zn1   S    
C2    C3    S    
C20   H15   S    
O2    Zn2   S    
C4    C14   S    
C5    C6    D    
C21   H19   S    
C22   H22   S    
N5    C22   S    
C15   C16   S    
C1    O2    A    
N1    N4    S    
N4    H16   S    
C1    O1    A    
C3    H7    S    
C3    C15   S    
C17   H4    S    
C14   H3    S    
C20   H14   S    
C9    C10   S    
C13   C16   S    
C5    C7    S    
C14   C15   S    
C16   C17   S    
O6    Zn2   S    
C2    H6    S    
C22   H23   S    
N4    C21   S    
N3    H12   S    
C9    H1    S    
C11   O4    A    
C7    H10   S    
C6    H9    S    
C2    C18   S    
C4    C11   S    
C3    C4    S    
