data_mof_unit_891.cif
_audit_creation_date              2012-12-10T17:00:00-0500
_audit_creation_method            fapswitch 2.2
_symmetry_space_group_name_H-M    P1
_symmetry_Int_Tables_number       1
_space_group_crystal_system       triclinic
_cell_length_a                    14.774892
_cell_length_b                    15.436489
_cell_length_c                    10.209495
_cell_angle_alpha                 86.808863
_cell_angle_beta                  85.922135
_cell_angle_gamma                 90.131912
_cell_volume                      2318.96231971

loop_
_atom_site_label
_atom_site_type_symbol
_atom_type_description
_atom_site_fract_x
_atom_site_fract_y
_atom_site_fract_z
_atom_type_partial_charge
C1    C     C_R   0.382066 0.881071 0.506468 0.721163
C2    C     C_R   0.375544 0.111785 0.501767 0.815685
C3    C     C_R   0.882064 0.381071 0.506468 0.721284
C4    C     C_R   0.875544 0.611782 0.501764 0.815540
C5    C     C_R   0.618440 0.118766 0.493559 0.804908
C6    C     C_R   0.618297 0.881126 0.499034 0.776125
C7    C     C_R   0.118435 0.618774 0.493559 0.804831
C8    C     C_R   0.118298 0.381127 0.499031 0.776184
C9    C     C_2   0.688183 0.755352 0.406851 0.180309
C10   C     C_2   0.662553 0.265907 0.514978 0.206008
C11   C     C_2   0.188129 0.255314 0.406916 0.180261
C12   C     C_2   0.162553 0.765892 0.515232 0.206063
C13   C     C_2   0.689415 0.818056 0.494066 0.363870
C14   C     C_2   0.683870 0.187562 0.471781 0.379460
C15   C     C_2   0.189425 0.318068 0.494041 0.364071
C16   C     C_2   0.183832 0.687600 0.471791 0.379297
C17   C     C_2   0.261988 0.194910 0.398755 -0.294972
C18   C     C_2   0.231753 0.833043 0.496686 -0.253636
C19   C     C_2   0.762050 0.694959 0.398721 -0.295045
C20   C     C_2   0.731769 0.333042 0.496420 -0.253633
C21   C     C_2   0.289307 0.154028 0.507619 0.416691
C22   C     C_2   0.315743 0.813561 0.528488 0.464615
C23   C     C_2   0.789305 0.654018 0.507580 0.416752
C24   C     C_2   0.815708 0.313588 0.528490 0.464466
C25   C     C_2   0.571318 0.011028 0.918625 0.105784
C26   C     C_2   0.071319 0.511011 0.918626 0.105871
C27   C     C_2   0.572423 0.996590 0.065503 0.411015
C28   C     C_2   0.072419 0.496558 0.065499 0.410943
H1    H     H_    0.298350 0.189803 0.303195 0.184092
H2    H     H_    0.214607 0.896706 0.454679 0.092205
H3    H     H_    0.798475 0.689915 0.303193 0.184135
H4    H     H_    0.714682 0.396664 0.454193 0.092271
H5    H     H_    0.634510 0.031042 0.864719 0.100332
H6    H     H_    0.134517 0.531013 0.864723 0.100369
N1    N     N_2   0.501330 0.000000 0.852150 0.078814
N2    N     N_2   0.001330 0.500000 0.852150 0.078802
N3    N     N_2   0.501360 0.000000 0.147810 0.092723
N4    N     N_2   0.001360 0.500000 0.147810 0.092730
O1    O     O_R   0.409520 0.909540 0.613040 -0.627068
O2    O     O_R   0.409520 0.090460 0.613040 -0.578909
O3    O     O_R   0.909520 0.409540 0.613040 -0.627081
O4    O     O_R   0.909520 0.590460 0.613040 -0.578911
O5    O     O_R   0.409560 0.909540 0.386900 -0.626559
O6    O     O_R   0.409560 0.090460 0.386900 -0.643524
O7    O     O_R   0.909560 0.409540 0.386900 -0.626514
O8    O     O_R   0.909560 0.590460 0.386900 -0.643558
O9    O     O_R   0.590440 0.090460 0.613100 -0.612262
O10   O     O_R   0.590440 0.909540 0.613100 -0.591625
O11   O     O_R   0.090440 0.590460 0.613100 -0.612197
O12   O     O_R   0.090440 0.409540 0.613100 -0.591679
O13   O     O_R   0.590480 0.090460 0.386960 -0.571799
O14   O     O_R   0.590480 0.909540 0.386960 -0.566907
O15   O     O_R   0.090480 0.590460 0.386960 -0.571836
O16   O     O_R   0.090480 0.409540 0.386960 -0.566898
Zn1   Zn    Zn3+2 0.499970 0.000000 0.650990 1.024085
Zn2   Zn    Zn3+2 0.999970 0.500000 0.650990 1.024072
Zn3   Zn    Zn3+2 0.500030 0.000000 0.349010 1.040869
Zn4   Zn    Zn3+2 0.000030 0.500000 0.349010 1.040847
Br1   Br    Br    0.597270 0.740443 0.283116 -0.503225
Br2   Br    Br    0.547726 0.293560 0.603250 -0.519531
Br3   Br    Br    0.097096 0.240329 0.283388 -0.503284
Br4   Br    Br    0.047793 0.793459 0.603775 -0.519528
O17   O     O_3   0.756645 0.820128 0.582900 -0.545344
C29   C     C_3   0.803813 0.899827 0.567320 -0.248567
H7    H     H_    0.761033 0.953338 0.604990 0.145795
H8    H     H_    0.829218 0.914248 0.463085 0.142377
H9    H     H_    0.863692 0.895375 0.626839 0.238991
O18   O     O_3   0.757258 0.180696 0.378598 -0.592424
C30   C     C_3   0.800923 0.100010 0.394130 -0.244877
H10   H     H_    0.759943 0.047044 0.358730 0.187386
H11   H     H_    0.816167 0.085176 0.497914 0.139332
H12   H     H_    0.866450 0.102989 0.333844 0.219969
O19   O     O_3   0.256749 0.320220 0.582719 -0.545360
C31   C     C_3   0.303831 0.399964 0.567022 -0.248449
H13   H     H_    0.261029 0.453445 0.604745 0.145757
H14   H     H_    0.329132 0.414387 0.462744 0.142419
H15   H     H_    0.363772 0.395586 0.626422 0.238955
O20   O     O_3   0.257133 0.680837 0.378435 -0.592493
C32   C     C_3   0.300875 0.600174 0.393754 -0.244762
H16   H     H_    0.259905 0.547209 0.358336 0.187500
H17   H     H_    0.316212 0.585269 0.497480 0.139390
H18   H     H_    0.366357 0.603239 0.333361 0.219951
O21   O     O_3   0.237749 0.153021 0.626851 -0.541973
C33   C     C_3   0.176307 0.082676 0.632161 -0.324754
H19   H     H_    0.137262 0.079795 0.729212 0.212489
H20   H     H_    0.212386 0.019849 0.622735 0.128787
H21   H     H_    0.126886 0.091425 0.555208 0.177092
O22   O     O_3   0.330097 0.739635 0.610277 -0.601764
C34   C     C_3   0.421918 0.713650 0.603034 -0.255440
H22   H     H_    0.463495 0.755953 0.659945 0.204685
H23   H     H_    0.450502 0.711990 0.499499 0.176069
H24   H     H_    0.425827 0.646896 0.648360 0.179541
O23   O     O_3   0.737669 0.652927 0.626750 -0.541994
C35   C     C_3   0.676295 0.582535 0.631908 -0.324837
H25   H     H_    0.637083 0.579674 0.728829 0.212548
H26   H     H_    0.712453 0.519735 0.622685 0.128894
H27   H     H_    0.627011 0.591198 0.554751 0.177040
O24   O     O_3   0.829953 0.239743 0.610503 -0.601715
C36   C     C_3   0.921750 0.213683 0.603439 -0.255322
H28   H     H_    0.963323 0.256001 0.660332 0.204737
H29   H     H_    0.950401 0.211920 0.499949 0.176006
H30   H     H_    0.925572 0.146958 0.648898 0.179536
O25   O     O_3   0.433016 0.951174 0.911508 -0.526173
C37   C     C_3   0.350995 0.987737 0.870968 0.003553
H31   H     H_    0.339788 0.981607 0.768125 0.176516
H32   H     H_    0.346506 0.057931 0.890001 0.172713
H33   H     H_    0.293030 0.952462 0.924713 0.100992
O26   O     O_3   0.933010 0.451180 0.911503 -0.526239
C38   C     C_3   0.850994 0.487752 0.870959 0.003665
H34   H     H_    0.839783 0.481611 0.768120 0.176527
H35   H     H_    0.846515 0.557948 0.889979 0.172728
H36   H     H_    0.793024 0.452489 0.924711 0.100976
Br5   Br    Br    0.688545 0.972576 0.129536 -0.480433
Br6   Br    Br    0.188527 0.472448 0.129509 -0.480634
O27   O     O_3   0.430872 0.046210 0.104321 -0.534165
C39   C     C_3   0.349457 0.004300 0.156492 -0.006907
H37   H     H_    0.330839 0.014065 0.259682 0.155029
H38   H     H_    0.350529 0.933388 0.141807 0.171189
H39   H     H_    0.291588 0.033795 0.107467 0.101486
O28   O     O_3   0.930880 0.546221 0.104316 -0.534140
C40   C     C_3   0.849459 0.504319 0.156479 -0.006953
H40   H     H_    0.830844 0.514073 0.259673 0.155032
H41   H     H_    0.850520 0.433408 0.141783 0.171166
H42   H     H_    0.791595 0.533827 0.107459 0.101538

loop_
_geom_bond_atom_site_label_1
_geom_bond_atom_site_label_2
_ccdc_geom_bond_type
O10   Zn1   S    
C2    O6    A    
O23   C35   S    
N2    O26   S    
C17   H1    S    
O19   C31   S    
C19   C23   D    
C33   H21   S    
C19   H3    S    
C37   H32   S    
C4    O8    A    
C39   H37   S    
C5    O9    A    
C31   H14   S    
C24   O24   S    
C33   H20   S    
N1    O25   S    
C38   H35   S    
O16   Zn4   S    
O27   C39   S    
O26   C38   S    
C30   H11   S    
C9    C13   D    
C40   H42   S    
O4    Zn2   S    
N4    Zn4   S    
C11   C15   D    
C1    O5    A    
O1    Zn1   S    
O21   C33   S    
C10   C20   S    
O18   C30   S    
C31   H15   S    
O13   Zn3   S    
C22   O22   S    
C34   H23   S    
N4    O28   S    
C1    C22   S    
O8    Zn4   S    
C3    C24   S    
C30   H10   S    
C12   C16   D    
C37   H31   S    
C9    C19   S    
O7    Zn4   S    
C31   H13   S    
N1    Zn1   S    
C29   H9    S    
C21   O21   S    
C33   H19   S    
C7    O11   A    
C10   C14   D    
C38   H36   S    
C8    O16   A    
C32   H17   S    
C4    C23   S    
O5    Zn3   S    
O20   C32   S    
C35   H27   S    
C3    O7    A    
O12   Zn2   S    
C23   O23   S    
C9    Br1   S    
C29   H8    S    
C30   H12   S    
C10   Br2   S    
O3    Zn2   S    
N2    Zn2   S    
C12   Br4   S    
C36   H28   S    
C13   O17   S    
C28   N4    D    
O6    Zn3   S    
O2    Zn1   S    
C2    C21   S    
C40   H40   S    
C34   H24   S    
C35   H26   S    
C5    C14   S    
C6    O10   A    
C25   N1    D    
C18   H2    S    
C27   Br5   S    
C26   N2    D    
C7    C16   S    
C36   H29   S    
C8    C15   S    
C15   O19   S    
C32   H16   S    
C7    O15   A    
C8    O12   A    
O28   C40   S    
O9    Zn1   S    
C20   H4    S    
C3    O3    A    
C26   H6    S    
C18   C22   D    
C11   Br3   S    
C11   C17   S    
C32   H18   S    
O15   Zn4   S    
N3    O27   S    
C25   C27   S    
O11   Zn2   S    
C26   C28   S    
C39   H39   S    
C29   H7    S    
C38   H34   S    
C6    C13   S    
C4    O4    A    
C27   N3    D    
C28   Br6   S    
C39   H38   S    
C16   O20   S    
C35   H25   S    
C17   C21   D    
C40   H41   S    
O14   Zn3   S    
C1    O1    A    
O17   C29   S    
C2    O2    A    
C36   H30   S    
O22   C34   S    
O24   C36   S    
C12   C18   S    
O25   C37   S    
C14   O18   S    
C5    O13   A    
C6    O14   A    
C34   H22   S    
C20   C24   D    
C37   H33   S    
N3    Zn3   S    
C25   H5    S    
