data_mof_unit_1730.cif
_audit_creation_date              2012-12-11T14:07:39-0500
_audit_creation_method            fapswitch 2.2
_symmetry_space_group_name_H-M    P1
_symmetry_Int_Tables_number       1
_space_group_crystal_system       triclinic
_cell_length_a                    19.947465
_cell_length_b                    17.364259
_cell_length_c                    15.400433
_cell_angle_alpha                 89.498482
_cell_angle_beta                  53.250128
_cell_angle_gamma                 89.424841
_cell_volume                      4273.88957777

loop_
_atom_site_label
_atom_site_type_symbol
_atom_type_description
_atom_site_fract_x
_atom_site_fract_y
_atom_site_fract_z
_atom_type_partial_charge
Br1   Br    Br    0.427009 0.292339 0.001253 -0.488660
Br2   Br    Br    0.597165 0.233131 0.600795 -0.348870
Br3   Br    Br    0.010132 0.200308 0.703197 -0.318690
Br4   Br    Br    0.097164 0.733145 0.600825 -0.348855
Br5   Br    Br    0.711082 0.916804 0.443753 -0.463562
Br6   Br    Br    0.839164 0.043849 0.435331 -0.398767
Br7   Br    Br    0.211015 0.416793 0.443773 -0.463556
Br8   Br    Br    0.339124 0.543835 0.435352 -0.398758
Br9   Br    Br    0.799468 0.252385 0.824474 -0.446944
Br10  Br    Br    0.838422 0.767623 0.766542 -0.389759
Br11  Br    Br    0.299460 0.752391 0.824485 -0.446956
Br12  Br    Br    0.399350 0.705237 0.016512 -0.493387
Br13  Br    Br    0.338427 0.267624 0.766533 -0.389786
Br14  Br    Br    0.304107 0.947023 0.854999 -0.350038
Br15  Br    Br    0.424731 0.093819 0.735895 -0.342482
Br16  Br    Br    0.804118 0.447017 0.854982 -0.350018
Br17  Br    Br    0.924732 0.593821 0.735895 -0.342334
Br18  Br    Br    0.185896 0.043415 0.560357 -0.301004
Br19  Br    Br    0.282214 0.893171 0.565550 -0.393713
Br20  Br    Br    0.685924 0.543439 0.560381 -0.301226
Br21  Br    Br    0.782205 0.393165 0.565564 -0.393783
Br22  Br    Br    0.927009 0.792339 0.001253 -0.488636
Br23  Br    Br    0.899360 0.205235 0.016499 -0.493356
Br24  Br    Br    0.108603 0.118832 0.467238 -0.357941
Br25  Br    Br    0.208362 0.866877 0.437208 -0.345561
Br26  Br    Br    0.608610 0.618827 0.467228 -0.357926
Br27  Br    Br    0.708346 0.366891 0.437222 -0.345532
Br28  Br    Br    0.510139 0.700361 0.703147 -0.318727
C1    C     C_R   0.382851 0.198726 0.988062 0.203642
C2    C     C_R   0.701099 0.844967 0.998569 0.156805
C3    C     C_2   0.367025 0.645117 0.599013 1.297221
C4    C     C_R   0.163756 0.675714 0.054405 0.171150
C5    C     C_R   0.201103 0.344971 0.998561 0.156792
C6    C     C_R   0.625791 0.824629 0.687212 0.117474
C7    C     C_R   0.689734 0.136265 0.677072 0.123823
C8    C     C_R   0.125765 0.324618 0.687226 0.117494
C9    C     C_R   0.189735 0.636265 0.677072 0.123831
C10   C     C_3   0.176956 0.144488 0.515755 0.536933
C11   C     C_3   0.261708 0.812335 0.495283 0.464432
C12   C     C_3   0.676961 0.644498 0.515754 0.536734
C13   C     C_R   0.365032 0.807765 0.011054 0.269749
C14   C     C_3   0.761697 0.312336 0.495288 0.464395
C15   C     C_3   0.132162 0.196594 0.617797 0.043970
C16   C     C_3   0.200792 0.754925 0.585931 0.049318
C17   C     C_3   0.632164 0.696615 0.617787 0.044020
C18   C     C_3   0.700781 0.254923 0.585930 0.049338
C19   C     C_3   0.320337 0.216860 0.450914 -0.364041
C20   C     C_3   0.399398 0.738985 0.442963 -0.328928
C21   C     C_3   0.820349 0.716842 0.450914 -0.364140
C22   C     C_3   0.899394 0.238983 0.442958 -0.328956
C23   C     C_3   0.728359 0.759474 0.394013 -0.482981
C24   C     C_R   0.882851 0.698725 0.988063 0.203640
C25   C     C_3   0.815309 0.193057 0.376891 -0.516458
C26   C     C_3   0.228337 0.259461 0.394024 -0.483131
C27   C     C_3   0.315331 0.693057 0.376887 -0.516499
C28   C     C_3   0.260029 0.186137 0.420647 -0.101698
C29   C     C_3   0.344655 0.767322 0.403322 -0.061714
C30   C     C_3   0.760037 0.686139 0.420643 -0.101715
C31   C     C_3   0.844644 0.267321 0.403321 -0.061598
C32   C     C_3   0.673970 0.777835 0.588732 -0.054316
C33   C     C_3   0.749386 0.179393 0.575249 -0.083339
C34   C     C_3   0.173949 0.277824 0.588743 -0.054318
C35   C     C_R   0.865036 0.307763 0.011048 0.269726
C36   C     C_3   0.249391 0.679393 0.575250 -0.083370
C37   C     C_3   0.764549 0.765915 0.557009 -0.402812
C38   C     C_3   0.832156 0.202728 0.560653 -0.439729
C39   C     C_3   0.264533 0.265923 0.557010 -0.402788
C40   C     C_3   0.332161 0.702723 0.560653 -0.439667
C41   C     C_R   0.400371 0.802820 0.209655 -0.028197
C42   C     C_R   0.348089 0.166962 0.218007 -0.056395
C43   C     C_R   0.900361 0.302820 0.209658 -0.028117
C44   C     C_R   0.848087 0.666961 0.218005 -0.056368
C45   C     C_3   0.674669 0.810944 0.492835 0.255869
C46   C     C_R   0.663203 0.911312 0.061514 -0.056243
C47   C     C_3   0.771819 0.136834 0.472022 0.270391
C48   C     C_3   0.174634 0.310926 0.492852 0.255864
C49   C     C_3   0.271817 0.636841 0.472025 0.270516
C50   C     C_2   0.219041 0.726921 0.054584 -0.261988
C51   C     C_2   0.266349 0.300557 0.989505 -0.256211
C52   C     C_2   0.719049 0.226917 0.054573 -0.261955
C53   C     C_2   0.766344 0.800554 0.989514 -0.256191
C54   C     C_2   0.771760 0.270019 0.966036 0.419026
C55   C     C_2   0.818782 0.754410 0.904307 0.426671
C56   C     C_2   0.271752 0.770024 0.966047 0.419029
C57   C     C_R   0.641780 0.100671 0.094342 -0.035377
C58   C     C_2   0.318786 0.254412 0.904300 0.426691
C59   C     C_R   0.346409 0.896485 0.923547 0.364967
C60   C     C_R   0.378256 0.116963 0.883647 0.391984
C61   C     C_R   0.846413 0.396482 0.923540 0.364931
C62   C     C_R   0.878255 0.616963 0.883649 0.391973
C63   C     C_R   0.357600 0.076186 0.313496 -0.056942
C64   C     C_R   0.408744 0.893294 0.303247 -0.036516
C65   C     C_R   0.857592 0.576178 0.313489 -0.056556
C66   C     C_R   0.908739 0.393292 0.303249 -0.036626
C67   C     C_R   0.359182 0.192077 0.922015 -0.135074
C68   C     C_R   0.163205 0.411314 0.061509 -0.056300
C69   C     C_R   0.321265 0.824964 0.971933 -0.146398
C70   C     C_R   0.859181 0.692076 0.922018 -0.135060
C71   C     C_R   0.821271 0.324960 0.971923 -0.146386
C72   C     C_R   0.390339 0.817159 0.305088 0.151203
C73   C     C_R   0.309574 0.137502 0.321965 0.102377
C74   C     C_R   0.890327 0.317159 0.305090 0.151146
C75   C     C_R   0.809571 0.637500 0.321962 0.102283
C76   C     C_R   0.626041 0.196571 0.007518 -0.020648
C77   C     C_R   0.653816 0.816613 0.967480 -0.047519
C78   C     C_R   0.126036 0.696572 0.007524 -0.020622
C79   C     C_R   0.141777 0.600672 0.094346 -0.035203
C80   C     C_R   0.153819 0.316616 0.967474 -0.047535
C81   C     C_R   0.612348 0.806154 0.784327 -0.098513
C82   C     C_R   0.650735 0.168227 0.779798 -0.094294
C83   C     C_R   0.112334 0.306149 0.784335 -0.098481
C84   C     C_R   0.150735 0.668226 0.779799 -0.094247
C85   C     C_R   0.641183 0.076147 0.685550 0.030907
C86   C     C_R   0.594906 0.896809 0.695191 0.040983
C87   C     C_R   0.141183 0.576148 0.685550 0.030897
C88   C     C_R   0.094888 0.396802 0.695202 0.040995
C89   C     C_2   0.361824 0.153138 0.475941 1.053162
C90   C     C_R   0.663762 0.175712 0.054397 0.171188
C91   C     C_2   0.450439 0.802523 0.447760 1.045149
C92   C     C_2   0.861821 0.653087 0.475929 1.053454
C93   C     C_2   0.950444 0.302518 0.447738 1.045092
C94   C     C_2   0.392070 0.265315 0.353701 1.099779
C95   C     C_2   0.468613 0.682746 0.358942 1.100323
C96   C     C_2   0.892090 0.765302 0.353704 1.099745
C97   C     C_2   0.968601 0.182734 0.358944 1.100653
C98   C     C_2   0.808676 0.834017 0.564111 1.222339
C99   C     C_2   0.867020 0.145125 0.599018 1.297131
C100  C     C_2   0.308653 0.334035 0.564105 1.222346
H1    H     H_    0.139874 0.169293 0.676869 0.160404
H2    H     H_    0.867815 0.162651 0.303899 0.232517
H3    H     H_    0.281401 0.293158 0.326964 0.233511
H4    H     H_    0.367855 0.662653 0.303911 0.232406
H5    H     H_    0.692718 0.745024 0.362150 0.200571
H6    H     H_    0.770945 0.209428 0.358354 0.214907
H7    H     H_    0.192699 0.245002 0.362165 0.200609
H8    H     H_    0.270988 0.709422 0.358316 0.214916
H9    H     H_    0.609392 0.809771 0.518283 0.157504
H10   H     H_    0.714865 0.117329 0.481787 0.152745
H11   H     H_    0.109357 0.309733 0.518306 0.157546
H12   H     H_    0.174590 0.783400 0.664475 0.170780
H13   H     H_    0.214858 0.617355 0.481791 0.152728
H14   H     H_    0.400684 0.747617 0.179210 0.160070
H15   H     H_    0.326467 0.213193 0.193590 0.132310
H16   H     H_    0.900670 0.247620 0.179214 0.160091
H17   H     H_    0.826466 0.713193 0.193588 0.132309
H18   H     H_    0.213809 0.732853 0.128670 0.174184
H19   H     H_    0.260750 0.296151 0.063995 0.162177
H20   H     H_    0.713817 0.232850 0.128659 0.174182
H21   H     H_    0.760745 0.796147 0.064003 0.162186
H22   H     H_    0.348328 0.040019 0.376848 0.154539
H23   H     H_    0.639850 0.669314 0.676883 0.160402
H24   H     H_    0.415573 0.923409 0.358359 0.148374
H25   H     H_    0.848316 0.540007 0.376841 0.154401
H26   H     H_    0.915570 0.423404 0.358363 0.148362
H27   H     H_    0.620953 0.253338 0.982235 0.155679
H28   H     H_    0.660984 0.762562 0.928398 0.139495
H29   H     H_    0.120946 0.753340 0.982243 0.155684
H30   H     H_    0.160989 0.262565 0.928390 0.139496
H31   H     H_    0.620929 0.751021 0.809634 0.139335
H32   H     H_    0.669948 0.218209 0.800622 0.146806
H33   H     H_    0.120914 0.251016 0.809644 0.139338
H34   H     H_    0.674566 0.283398 0.664479 0.170789
H35   H     H_    0.169948 0.718206 0.800625 0.146799
H36   H     H_    0.651215 0.039851 0.622407 0.153301
H37   H     H_    0.578618 0.923345 0.646608 0.145417
H38   H     H_    0.151214 0.539852 0.622406 0.153337
H39   H     H_    0.078589 0.423337 0.646630 0.145446
H40   H     H_    0.681176 0.941631 0.105548 0.123402
H41   H     H_    0.653043 0.072320 0.147296 0.120171
H42   H     H_    0.181180 0.441633 0.105541 0.123408
H43   H     H_    0.153039 0.572321 0.147301 0.120168
H44   H     H_    0.467465 0.101439 0.438607 0.355151
H45   H     H_    0.753316 0.731347 0.625656 0.136567
H46   H     H_    0.549186 0.874663 0.364651 0.334770
H47   H     H_    0.967447 0.601151 0.438304 0.355030
H48   H     H_    0.049209 0.374638 0.364605 0.334782
H49   H     H_    0.436005 0.369184 0.281229 0.364601
H50   H     H_    0.539731 0.587963 0.325522 0.365368
H51   H     H_    0.936042 0.869182 0.281262 0.364600
H52   H     H_    0.039826 0.088054 0.325529 0.365355
H53   H     H_    0.803652 0.942489 0.610113 0.377833
H54   H     H_    0.861081 0.041674 0.663476 0.355670
H55   H     H_    0.303619 0.442511 0.610108 0.377839
H56   H     H_    0.810653 0.249452 0.620717 0.193617
H57   H     H_    0.361060 0.541678 0.663516 0.355673
H58   H     H_    0.253318 0.231348 0.625647 0.136421
H59   H     H_    0.310660 0.749444 0.620718 0.193575
H60   H     H_    0.781436 0.793164 0.326948 0.233490
N1    N     N_R   0.408680 0.130160 0.995800 -0.097855
N2    N     N_R   0.403730 0.078230 0.935950 -0.112848
N3    N     N_R   0.903730 0.421770 0.935950 -0.111899
N4    N     N_R   0.903730 0.578230 0.935950 -0.112856
N5    N     N_R   0.426630 0.075970 0.212960 -0.048564
N6    N     N_R   0.426630 0.924030 0.212960 -0.064095
N7    N     N_R   0.926630 0.575970 0.212960 -0.048483
N8    N     N_R   0.926630 0.424030 0.212960 -0.064104
N9    N     N_R   0.591320 0.134600 0.004200 -0.057688
N10   N     N_R   0.591320 0.865400 0.004200 -0.057933
N11   N     N_R   0.091320 0.634600 0.004200 -0.057700
N12   N     N_R   0.408680 0.869840 0.995800 -0.097537
N13   N     N_R   0.091320 0.365400 0.004200 -0.057930
N14   N     N_R   0.578320 0.867660 0.846880 -0.050532
N15   N     N_R   0.578320 0.132340 0.846880 -0.039921
N16   N     N_R   0.078320 0.367660 0.846880 -0.050537
N17   N     N_R   0.078320 0.632340 0.846880 -0.039927
N18   N     N_R   0.573370 0.074390 0.787040 -0.060566
N19   N     N_R   0.573370 0.925610 0.787040 -0.068281
N20   N     N_R   0.073370 0.574390 0.787040 -0.060568
N21   N     N_R   0.073370 0.425610 0.787040 -0.068278
N22   N     N_R   0.596270 0.927870 0.064040 -0.064549
N23   N     N_R   0.908680 0.630160 0.995800 -0.097865
N24   N     N_R   0.596270 0.072130 0.064040 -0.067181
N25   N     N_R   0.096270 0.427870 0.064040 -0.064548
N26   N     N_R   0.096270 0.572130 0.064040 -0.067179
N27   N     N_R   0.908680 0.369840 0.995800 -0.097541
N28   N     N_R   0.421680 0.867580 0.153120 -0.054901
N29   N     N_R   0.421680 0.132420 0.153120 -0.026362
N30   N     N_R   0.921680 0.367580 0.153120 -0.054920
N31   N     N_R   0.921680 0.632420 0.153120 -0.026360
N32   N     N_R   0.403730 0.921770 0.935950 -0.111893
Ni1   Ni    Ni4+2 0.500000 0.131190 0.000000 0.299223
Ni2   Ni    Ni4+2 0.500000 0.868810 0.000000 0.273116
Ni3   Ni    Ni4+2 0.000000 0.631190 0.000000 0.299235
Ni4   Ni    Ni4+2 0.000000 0.368810 0.000000 0.273108
Ni5   Ni    Ni4+2 0.488650 1.000000 0.862740 0.290071
Ni6   Ni    Ni4+2 0.988650 0.500000 0.862740 0.290060
Ni7   Ni    Ni4+2 0.511350 0.000000 0.137260 0.254935
Ni8   Ni    Ni4+2 0.011350 0.500000 0.137260 0.254988
O1    O     O_2   0.319109 0.111234 0.554972 -0.549113
O2    O     O_R   0.385694 0.345434 0.350030 -0.723092
O3    O     O_2   0.508046 0.697469 0.262148 -0.624688
O4    O     O_R   0.492505 0.618369 0.389718 -0.725402
O5    O     O_2   0.953925 0.733426 0.275607 -0.617304
O6    O     O_R   0.885727 0.845425 0.350059 -0.723089
O7    O     O_2   0.007931 0.197353 0.262146 -0.624769
O8    O     O_R   0.992615 0.118479 0.389722 -0.725491
O9    O     O_2   0.877366 0.823965 0.544354 -0.553388
O10   O     O_R   0.771058 0.906358 0.597341 -0.744054
O11   O     O_2   0.925283 0.164491 0.599507 -0.499092
O12   O     O_R   0.449005 0.144723 0.412504 -0.738749
O13   O     O_R   0.832122 0.072425 0.638252 -0.788217
O14   O     O_2   0.377351 0.323998 0.544331 -0.553272
O15   O     O_R   0.271016 0.406367 0.597356 -0.744104
O16   O     O_2   0.425307 0.664472 0.599466 -0.499181
O17   O     O_R   0.332104 0.572430 0.638287 -0.788226
O18   O     O_2   0.436441 0.821145 0.533730 -0.525580
O19   O     O_R   0.518958 0.835253 0.351592 -0.813527
O20   O     O_2   0.819132 0.611329 0.555129 -0.548972
O21   O     O_R   0.948986 0.644446 0.412215 -0.739116
O22   O     O_2   0.936444 0.321157 0.533704 -0.525550
O23   O     O_R   0.018975 0.335226 0.351558 -0.813649
O24   O     O_2   0.453921 0.233432 0.275632 -0.617414

loop_
_geom_bond_atom_site_label_1
_geom_bond_atom_site_label_2
_ccdc_geom_bond_type
H53   O10   S    
N8    Ni8   S    
C17   C32   S    
C99   O11   D    
C43   H16   S    
N2    Ni5   S    
C100  O14   D    
C76   N9    A    
N14   Ni2   S    
C13   C69   A    
C83   H33   S    
N27   Ni4   S    
C65   C75   A    
H48   O23   S    
N7    N31   A    
C25   C31   S    
C42   C73   A    
Br6   C47   S    
C57   C90   A    
C79   H43   S    
C33   C47   S    
N5    N29   A    
C26   H3    S    
C22   C93   S    
Br3   C15   S    
C42   H15   S    
C80   N13   A    
C43   N30   A    
C21   C37   S    
C34   C39   S    
C46   N22   A    
C66   N8    A    
C56   C69   S    
C36   C40   S    
H57   O17   S    
C81   N14   A    
N10   Ni2   S    
C91   O18   D    
C84   N17   A    
C64   N6    A    
C13   N12   A    
C54   C71   S    
N6    N28   A    
Br20  C12   S    
N1    Ni1   S    
C38   C99   S    
C93   O23   S    
C21   C92   S    
C80   H30   S    
C27   H8    S    
N11   N26   A    
C32   C45   S    
N25   Ni8   S    
C86   N19   A    
N15   Ni1   S    
C14   C18   S    
C89   O1    D    
C84   H35   S    
C2    C46   A    
C91   O19   S    
C9    C84   A    
C35   C71   A    
C23   H60   S    
N20   Ni6   S    
N24   Ni7   S    
C33   C38   S    
N19   Ni5   S    
C23   H5    S    
C95   O4    S    
C30   C75   S    
C40   H59   S    
C55   C70   S    
C99   O13   S    
N16   N21   A    
C64   H24   S    
C24   N23   A    
Br24  C10   S    
C88   H39   S    
C15   C34   S    
N26   Ni8   S    
C22   C97   S    
C39   H58   S    
Br9   C54   S    
N3    N27   A    
Br23  C35   S    
C60   C67   A    
Br16  C61   S    
C16   H12   S    
C68   H42   S    
C87   N20   A    
N16   Ni4   S    
C6    C32   S    
C31   C74   S    
N31   Ni3   S    
C34   C48   S    
C25   C47   S    
C41   N28   A    
H55   O15   S    
C5    C68   A    
C63   C73   A    
H51   O6    S    
C8    C34   S    
C19   C39   S    
C53   C55   D    
H46   O19   S    
C20   C91   S    
C76   C90   A    
C53   H21   S    
N29   Ni1   S    
C12   C17   S    
C94   O2    S    
N15   N18   A    
C52   C90   S    
Br28  C17   S    
C42   N29   A    
C12   C30   S    
C25   H6    S    
C18   C33   S    
C3    O16   D    
C20   C29   S    
C92   O21   S    
N5    Ni7   S    
C52   C54   D    
H49   O2    S    
C1    C67   A    
C50   H18   S    
C5    C51   S    
C19   C94   S    
C62   N4    A    
Br4   C16   S    
C41   H14   S    
C29   C72   S    
C4    C50   S    
N17   Ni3   S    
C16   C36   S    
C21   C30   S    
C65   N7    A    
C82   N15   A    
C17   H23   S    
N6    Ni7   S    
Br13  C58   S    
C52   H20   S    
C60   N2    A    
C41   C72   A    
N4    N23   A    
H50   O4    S    
Br12  C13   S    
C97   O7    D    
N8    N30   A    
N22   Ni7   S    
C15   H1    S    
C66   H26   S    
N23   Ni3   S    
C81   H31   S    
C8    C83   A    
Br1   C1    S    
C61   N3    A    
C19   C28   S    
C10   C28   S    
C7    C33   S    
C23   C30   S    
C59   N32   A    
C20   C40   S    
C87   H38   S    
C22   C38   S    
N13   N25   A    
Br7   C48   S    
C7    C82   A    
Br19  C11   S    
C5    C80   A    
C96   O5    D    
N7    Ni8   S    
C77   N10   A    
C43   C74   A    
C61   C71   A    
C32   C37   S    
N3    Ni6   S    
N14   N19   A    
Br2   C18   S    
C27   C49   S    
Br8   C49   S    
N12   N32   A    
C26   C48   S    
Br10  C55   S    
N11   Ni3   S    
N21   Ni6   S    
C22   C31   S    
C8    C88   A    
C57   N24   A    
H44   O12   S    
C9    C36   S    
C82   H32   S    
N4    Ni6   S    
C64   C72   A    
C86   H37   S    
Br22  C24   S    
N17   N20   A    
N1    N2    A    
C100  O15   S    
C44   N31   A    
C38   H56   S    
C37   H45   S    
N18   Ni5   S    
C3    C40   S    
Br17  C62   S    
C23   C45   S    
C88   N21   A    
C83   N16   A    
C28   C73   S    
C63   H22   S    
C51   H19   S    
C4    C79   A    
Br14  C59   S    
C26   C28   S    
N30   Ni4   S    
C11   C16   S    
C9    C87   A    
C44   C75   A    
Br11  C56   S    
C6    C86   A    
C78   H29   S    
N9    Ni1   S    
C20   C95   S    
N12   Ni2   S    
C85   N18   A    
C2    C53   S    
C65   H25   S    
Br18  C10   S    
C96   O6    S    
C10   C15   S    
C2    C77   A    
C97   O8    S    
C39   C100  S    
C37   C98   S    
C85   H36   S    
C21   C96   S    
Br27  C14   S    
Br26  C12   S    
C93   O22   D    
C79   N26   A    
C45   H9    S    
C63   N5    A    
C26   H7    S    
C24   C70   A    
N32   Ni5   S    
C7    C85   A    
C1    N1    A    
C48   H11   S    
C89   O12   S    
C76   H27   S    
Br5   C45   S    
C46   H40   S    
N10   N22   A    
C57   H41   S    
C78   N11   A    
N28   Ni2   S    
H47   O21   S    
C58   C67   S    
C68   N25   A    
C94   O24   D    
Br21  C14   S    
C47   H10   S    
C98   O10   S    
C50   C56   D    
C19   C89   S    
C77   H28   S    
C95   O3    D    
H52   O8    S    
C49   H13   S    
C36   C49   S    
C27   H4    S    
C18   H34   S    
C14   C31   S    
N9    N24   A    
C6    C81   A    
C3    O17   S    
C4    C78   A    
C25   H2    S    
C92   O20   D    
N13   Ni4   S    
C35   N27   A    
C27   C29   S    
C98   O9    D    
H54   O13   S    
C62   C70   A    
C51   C58   D    
Br25  C11   S    
C44   H17   S    
C66   C74   A    
Br15  C60   S    
C59   C69   A    
C11   C29   S    
