data_mof_unit_1136.cif
_audit_creation_date              2012-12-10T18:54:20-0500
_audit_creation_method            fapswitch 2.2
_symmetry_space_group_name_H-M    P1
_symmetry_Int_Tables_number       1
_space_group_crystal_system       triclinic
_cell_length_a                    10.52399
_cell_length_b                    10.008241
_cell_length_c                    23.258829
_cell_angle_alpha                 89.540878
_cell_angle_beta                  92.181197
_cell_angle_gamma                 89.990291
_cell_volume                      2447.92020641

loop_
_atom_site_label
_atom_site_type_symbol
_atom_type_description
_atom_site_fract_x
_atom_site_fract_y
_atom_site_fract_z
_atom_type_partial_charge
C1    C     C_R   0.260800 0.499961 0.499734 0.842794
C2    C     C_R   0.739174 0.499912 0.500077 0.880173
C3    C     C_R   0.552176 0.567425 0.233888 -0.227623
C4    C     C_R   0.411181 0.607248 0.760727 -0.209066
C5    C     C_R   0.575811 0.563281 0.293842 0.491351
C6    C     C_R   0.428871 0.614480 0.701569 0.488648
C7    C     C_R   0.483151 0.504966 0.327913 -0.117001
C8    C     C_R   0.460934 0.497246 0.671652 -0.153739
C9    C     C_R   0.369206 0.456840 0.303498 -0.337600
C10   C     C_R   0.454188 0.373397 0.700101 -0.302045
C11   C     C_R   0.350206 0.454478 0.244328 -0.128850
C12   C     C_R   0.431886 0.366558 0.758279 -0.120413
C13   C     C_R   0.442823 0.507389 0.209279 0.261875
C14   C     C_R   0.415432 0.483713 0.789135 0.256892
C15   C     C_R   0.069804 0.499348 0.552403 -0.251383
C16   C     C_R   0.930130 0.497176 0.447362 -0.237169
C17   C     C_R   0.939338 0.499599 0.552400 -0.162289
C18   C     C_R   0.060632 0.497632 0.447295 -0.187137
C19   C     C_R   0.871599 0.499452 0.499918 0.018779
C20   C     C_R   0.128381 0.499634 0.499811 0.028717
C21   C     C_R   0.590492 0.070977 0.531196 -0.022642
C22   C     C_R   0.412705 0.928411 0.467054 -0.020131
C23   C     C_R   0.411203 0.071766 0.467787 -0.016396
C24   C     C_R   0.591099 0.927763 0.530866 -0.003652
C25   C     C_R   0.499272 0.501026 0.389783 0.927623
C26   C     C_R   0.491205 0.499633 0.610379 0.885855
C27   C     C_R   0.520061 0.432428 0.880074 0.496899
C28   C     C_R   0.325920 0.542446 0.118663 0.490456
C29   C     C_R   0.307565 0.517188 0.877536 0.506240
C30   C     C_R   0.524705 0.427118 0.121055 0.502971
C31   C     C_R   0.306797 0.516244 0.937573 -0.023986
C32   C     C_R   0.522493 0.421341 0.061272 -0.021032
C33   C     C_R   0.414410 0.468359 0.969185 -0.031518
C34   C     C_R   0.415846 0.471105 0.029713 -0.032654
C35   C     C_R   0.521235 0.419847 0.940376 -0.066544
C36   C     C_R   0.311407 0.524401 0.058672 -0.060142
C37   C     C_R   0.199945 0.559817 0.966258 -0.250180
C38   C     C_R   0.624785 0.366481 0.032914 -0.218077
C39   C     C_R   0.199401 0.561597 0.026352 0.003288
C40   C     C_R   0.625689 0.364516 0.973047 -0.006579
H1    H     H_    0.114663 0.589709 0.941836 0.188832
H2    H     H_    0.705340 0.324691 0.057366 0.184857
H3    H     H_    0.618922 0.613701 0.205695 0.137904
H4    H     H_    0.395987 0.697905 0.784658 0.160223
H5    H     H_    0.294558 0.423069 0.330671 0.177402
H6    H     H_    0.465744 0.281150 0.677572 0.179675
H7    H     H_    0.264279 0.410426 0.225728 0.155804
H8    H     H_    0.431822 0.270352 0.779953 0.146063
H9    H     H_    0.124601 0.498463 0.592790 0.121263
H10   H     H_    0.874976 0.494506 0.407147 0.156657
H11   H     H_    0.891176 0.499667 0.592776 0.149870
H12   H     H_    0.108701 0.495813 0.406900 0.139463
N1    N     N_R   0.413613 0.477426 0.850393 -0.340143
N2    N     N_R   0.430430 0.492309 0.148252 -0.336195
N3    N     N_R   0.500000 0.857200 0.500000 -0.117026
N4    N     N_R   0.500000 0.142800 0.500000 -0.121165
O1    O     O_R   0.316770 0.614620 0.500000 -0.624147
O2    O     O_R   0.683230 0.385380 0.500000 -0.618176
O3    O     O_R   0.683230 0.614620 0.500000 -0.607434
O4    O     O_R   0.316770 0.385380 0.500000 -0.620011
O5    O     O_R   0.499970 0.614690 0.416160 -0.595698
O6    O     O_R   0.500030 0.385310 0.583840 -0.624933
O7    O     O_R   0.500030 0.614690 0.583840 -0.569625
O8    O     O_R   0.499970 0.385310 0.416160 -0.623926
O9    O     O_2   0.625163 0.404410 0.850967 -0.555441
O10   O     O_2   0.239892 0.613910 0.147018 -0.569663
O11   O     O_2   0.203651 0.557945 0.846371 -0.579810
O12   O     O_2   0.620810 0.368565 0.152055 -0.603585
Zn1   Zn    Zn3+2 0.500000 0.653120 0.500000 0.974924
Zn2   Zn    Zn3+2 0.500000 0.346880 0.500000 0.946692
C41   C     C_R   0.076414 0.590165 0.052960 0.185634
C42   C     C_R   0.010125 0.709159 0.039840 -0.149808
C43   C     C_R   0.891548 0.732668 0.063026 -0.136203
C44   C     C_R   0.838244 0.637723 0.099315 -0.103214
C45   C     C_R   0.903284 0.518949 0.112378 -0.150557
C46   C     C_R   0.021224 0.494437 0.088884 -0.112504
H13   H     H_    0.050224 0.783461 0.011689 0.131271
H14   H     H_    0.840895 0.824460 0.052786 0.137635
H15   H     H_    0.746432 0.656033 0.117141 0.131007
H16   H     H_    0.862177 0.445448 0.140480 0.175173
H17   H     H_    0.069567 0.400929 0.098586 0.120561
C47   C     C_R   0.734806 0.297092 0.947265 0.188767
C48   C     C_R   0.857463 0.351815 0.953266 -0.140404
C49   C     C_R   0.960896 0.285752 0.930337 -0.118839
C50   C     C_R   0.942633 0.164777 0.901562 -0.106971
C51   C     C_R   0.820961 0.109274 0.895850 -0.141932
C52   C     C_R   0.717298 0.174747 0.918840 -0.089819
H18   H     H_    0.872638 0.445484 0.975484 0.139222
H19   H     H_    0.055281 0.327966 0.934939 0.146729
H20   H     H_    0.022829 0.113850 0.883849 0.130739
H21   H     H_    0.807046 0.015306 0.873771 0.133408
H22   H     H_    0.623531 0.130474 0.914522 0.116818
O13   O     O_3   0.682584 0.620379 0.321117 -0.621739
C53   C     C_3   0.793048 0.604858 0.289217 -0.350669
H23   H     H_    0.797024 0.682494 0.254943 0.181915
H24   H     H_    0.800926 0.502670 0.271017 0.176311
H25   H     H_    0.877112 0.620022 0.318521 0.179438
O14   O     O_3   0.419332 0.737031 0.674181 -0.625224
C54   C     C_3   0.290602 0.760797 0.658466 -0.314731
H26   H     H_    0.231184 0.766206 0.696959 0.164993
H27   H     H_    0.253018 0.683527 0.628229 0.157841
H28   H     H_    0.283299 0.858598 0.635783 0.184729
C55   C     C_R   0.689975 0.139699 0.566373 0.195969
C56   C     C_R   0.811204 0.158611 0.544469 -0.115868
C57   C     C_R   0.913268 0.196556 0.580919 -0.149049
C58   C     C_R   0.894690 0.218229 0.639269 -0.128627
C59   C     C_R   0.774822 0.197581 0.661566 -0.135692
C60   C     C_R   0.673803 0.155222 0.625454 -0.142151
H29   H     H_    0.827041 0.139238 0.499615 0.108188
H30   H     H_    0.006741 0.209329 0.563929 0.139147
H31   H     H_    0.973635 0.248699 0.667332 0.138905
H32   H     H_    0.761255 0.209785 0.707121 0.157679
H33   H     H_    0.585180 0.126135 0.643785 0.110222
C61   C     C_R   0.324375 0.857970 0.426677 0.182926
C62   C     C_R   0.361530 0.832654 0.370433 -0.128577
C63   C     C_R   0.273494 0.784646 0.329132 -0.134259
C64   C     C_R   0.146967 0.765369 0.343190 -0.127090
C65   C     C_R   0.108307 0.794027 0.398594 -0.151736
C66   C     C_R   0.196748 0.839627 0.440307 -0.109650
H34   H     H_    0.458255 0.852219 0.358402 0.145139
H35   H     H_    0.302946 0.764496 0.285966 0.166719
H36   H     H_    0.078814 0.729897 0.310876 0.135459
H37   H     H_    0.009715 0.781522 0.409162 0.147359
H38   H     H_    0.165573 0.864436 0.482688 0.103633
C67   C     C_R   0.310690 0.140471 0.432779 0.193868
C68   C     C_R   0.190070 0.156467 0.455684 -0.128803
C69   C     C_R   0.084518 0.186107 0.419571 -0.146301
C70   C     C_R   0.097778 0.197040 0.360235 -0.129243
C71   C     C_R   0.216774 0.178439 0.336957 -0.163452
C72   C     C_R   0.323411 0.152748 0.373088 -0.136419
H39   H     H_    0.177238 0.140401 0.501182 0.111234
H40   H     H_    0.991979 0.198193 0.437430 0.137721
H41   H     H_    0.015626 0.218378 0.332264 0.134897
H42   H     H_    0.226546 0.184118 0.290852 0.143805
H43   H     H_    0.414310 0.134305 0.354297 0.135632
C73   C     C_R   0.696778 0.857789 0.562239 0.176850
C74   C     C_R   0.689220 0.831896 0.621321 -0.117923
C75   C     C_R   0.796348 0.789632 0.653838 -0.150813
C76   C     C_R   0.913372 0.778185 0.627995 -0.130972
C77   C     C_R   0.922932 0.807716 0.569522 -0.141070
C78   C     C_R   0.815097 0.846323 0.536571 -0.121727
H44   H     H_    0.602562 0.852547 0.642722 0.190365
H45   H     H_    0.789485 0.770015 0.699441 0.149887
H46   H     H_    0.996753 0.747273 0.653316 0.126720
H47   H     H_    0.013881 0.800060 0.549760 0.132829
H48   H     H_    0.824417 0.871715 0.491565 0.117324

loop_
_geom_bond_atom_site_label_1
_geom_bond_atom_site_label_2
_ccdc_geom_bond_type
C38   C40   A    
C57   H30   S    
C9    H5    S    
O13   C53   S    
C8    C26   S    
C59   H32   S    
C11   H7    S    
C72   H43   S    
C64   H36   S    
C26   O7    A    
C70   C71   A    
C17   H11   S    
C61   C62   A    
C18   H12   S    
C23   N4    A    
C66   H38   S    
C69   H40   S    
C24   N3    A    
C30   N2    A    
C3    H3    S    
C68   C69   A    
C6    O14   S    
C16   H10   S    
C38   H2    S    
C51   H21   S    
C41   C46   A    
C58   C59   A    
C47   C52   A    
C63   C64   A    
O6    Zn2   S    
C15   C17   A    
C43   C44   A    
C65   C66   A    
C17   C19   A    
C29   O11   S    
C67   C72   A    
O7    Zn1   S    
C10   H6    S    
C43   H14   S    
C31   C33   A    
C55   C60   A    
O8    Zn2   S    
C45   H16   S    
C34   C36   A    
C61   C66   A    
C3    C13   A    
C12   H8    S    
C23   C67   S    
C24   C73   S    
C48   H18   S    
C52   H22   S    
C29   C31   A    
C56   C57   A    
C58   H31   S    
C15   C20   A    
C76   C77   A    
C74   H44   S    
C44   C45   A    
C40   C47   S    
C49   C50   A    
C4    C6    A    
C63   H35   S    
C1    O4    A    
C5    C7    A    
C28   N2    A    
C51   C52   A    
O2    Zn2   S    
C6    C8    A    
C4    H4    S    
C53   H25   S    
C27   C35   A    
C50   C51   A    
C47   C48   A    
C31   C37   A    
C25   O8    A    
C32   C34   A    
C60   H33   S    
C77   H47   S    
C28   O10   S    
C45   C46   A    
C42   H13   S    
C27   O9    S    
C1    O1    A    
C76   H46   S    
C48   C49   A    
O4    Zn2   S    
C59   C60   A    
C54   H28   S    
C27   N1    A    
C33   C34   A    
C25   O5    A    
C77   C78   A    
C53   H24   S    
C9    C11   A    
N3    Zn1   S    
C10   C12   A    
C78   H48   S    
O3    Zn1   S    
C16   C18   A    
C54   H27   S    
C12   C14   A    
C62   H34   S    
C32   C38   A    
C44   H15   S    
C67   C68   A    
C49   H19   S    
C69   C70   A    
C71   C72   A    
C57   C58   A    
O5    Zn1   S    
C7    C9    A    
C1    C20   S    
C2    C19   S    
C2    O3    A    
C36   C39   A    
C42   C43   A    
C3    C5    A    
C46   H17   S    
C21   N4    A    
C5    O13   S    
C50   H20   S    
C2    O2    A    
C22   N3    A    
C74   C75   A    
C13   N2    S    
N4    Zn2   S    
C7    C25   S    
C54   H26   S    
C75   H45   S    
C35   C40   A    
C26   O6    A    
C41   C42   A    
C37   C39   A    
C4    C14   A    
C64   C65   A    
C30   C32   A    
C11   C13   A    
C56   H29   S    
C29   N1    A    
C68   H39   S    
C16   C19   A    
C33   C35   A    
C73   C78   A    
C18   C20   A    
C65   H37   S    
C15   H9    S    
C37   H1    S    
C53   H23   S    
C75   C76   A    
C71   H42   S    
C21   C55   S    
C22   C61   S    
C14   N1    S    
C28   C36   A    
C8    C10   A    
O14   C54   S    
C21   C24   A    
C55   C56   A    
C39   C41   S    
C22   C23   A    
C73   C74   A    
O1    Zn1   S    
C70   H41   S    
C30   O12   S    
C62   C63   A    
