data_mof_unit_2568.cif
_audit_creation_date              2012-12-10T19:46:54-0500
_audit_creation_method            fapswitch 2.2
_symmetry_space_group_name_H-M    P1
_symmetry_Int_Tables_number       1
_space_group_crystal_system       triclinic
_cell_length_a                    10.882836
_cell_length_b                    10.890472
_cell_length_c                    13.125717
_cell_angle_alpha                 90.439335
_cell_angle_beta                  89.981851
_cell_angle_gamma                 90.231099
_cell_volume                      1555.59130056

loop_
_atom_site_label
_atom_site_type_symbol
_atom_type_description
_atom_site_fract_x
_atom_site_fract_y
_atom_site_fract_z
_atom_type_partial_charge
C1    C     C_R   0.491603 0.259676 0.499431 0.851524
C2    C     C_R   0.508404 0.740324 0.500570 0.851588
C3    C     C_R   0.872849 0.493888 0.500595 -0.064589
C4    C     C_R   0.127153 0.506134 0.499407 -0.064583
C5    C     C_R   0.939209 0.445959 0.583469 0.053137
C6    C     C_R   0.060792 0.554079 0.416540 0.053102
C7    C     C_R   0.272987 0.224663 0.215016 -0.119933
C8    C     C_R   0.726609 0.775412 0.785318 -0.120044
C9    C     C_R   0.313446 0.174729 0.306819 -0.095555
C10   C     C_R   0.686367 0.825357 0.693450 -0.095778
C11   C     C_R   0.427515 0.115100 0.311643 0.102564
C12   C     C_R   0.572259 0.884887 0.688425 0.102587
C13   C     C_R   0.499682 0.104967 0.223241 -0.144602
C14   C     C_R   0.499824 0.894891 0.776685 -0.144369
C15   C     C_R   0.459058 0.155571 0.131679 -0.146432
C16   C     C_R   0.540229 0.844277 0.868309 -0.146458
C17   C     C_R   0.345796 0.215387 0.127586 -0.119892
C18   C     C_R   0.653541 0.784577 0.872607 -0.119871
C19   C     C_R   0.481248 0.932601 0.410599 -0.181551
C20   C     C_R   0.518774 0.067401 0.589404 -0.181493
C21   C     C_R   0.509477 0.873059 0.501572 -0.063344
C22   C     C_R   0.490536 0.126940 0.498434 -0.063416
C23   C     C_R   0.259662 0.505594 0.499875 0.862628
C24   C     C_R   0.740339 0.494418 0.500125 0.862617
C25   C     C_R   0.531030 0.940993 0.591875 0.015534
C26   C     C_R   0.468947 0.059005 0.408139 0.015595
C27   C     C_1   0.500015 0.500066 0.173585 0.161529
C28   C     C_1   0.499980 0.499930 0.826414 0.161588
C29   C     C_1   0.500003 0.500040 0.050683 -0.100720
C30   C     C_1   0.499987 0.499952 0.949317 -0.100765
C31   C     C_R   0.227023 0.790371 0.254864 -0.166905
C32   C     C_R   0.772946 0.209794 0.745248 -0.166930
C33   C     C_R   0.172051 0.734550 0.339271 0.399482
C34   C     C_R   0.827964 0.265535 0.660825 0.399488
C35   C     C_R   0.120654 0.615890 0.329311 0.045922
C36   C     C_R   0.879341 0.384209 0.670724 0.045903
C37   C     C_R   0.124610 0.555643 0.234429 -0.195253
C38   C     C_R   0.875314 0.444558 0.765559 -0.195199
C39   C     C_R   0.181428 0.611305 0.151118 -0.134822
C40   C     C_R   0.818459 0.388970 0.848888 -0.134854
C41   C     C_R   0.232688 0.728506 0.161353 -0.177751
C42   C     C_R   0.767221 0.271752 0.838715 -0.177739
C43   C     C_R   0.933726 0.546144 0.417653 -0.212758
C44   C     C_R   0.066276 0.453881 0.582350 -0.212713
Cu1   Cu    Cu3+1 0.499990 0.499990 0.592680 0.998263
Cu2   Cu    Cu3+1 0.500010 0.500010 0.407320 0.998246
H1    H     H_    0.276052 0.771817 0.096593 0.142538
H2    H     H_    0.723820 0.228504 0.903487 0.142581
H3    H     H_    0.587391 0.058419 0.225457 0.137595
H4    H     H_    0.412070 0.941346 0.774309 0.137659
H5    H     H_    0.515234 0.148196 0.063847 0.128760
H6    H     H_    0.483844 0.851553 0.936030 0.128712
H7    H     H_    0.464658 0.880047 0.341478 0.148292
H8    H     H_    0.535353 0.119954 0.658527 0.148316
H9    H     H_    0.083963 0.465380 0.225263 0.135407
H10   H     H_    0.915922 0.534845 0.774671 0.135438
H11   H     H_    0.185264 0.563749 0.078475 0.139136
H12   H     H_    0.814566 0.436603 0.921494 0.139132
H13   H     H_    0.882013 0.584168 0.354750 0.153296
H14   H     H_    0.117986 0.415862 0.645256 0.153294
H15   H     H_    0.314370 0.254372 0.056651 0.129467
H16   H     H_    0.684796 0.745586 0.943593 0.129485
H17   H     H_    0.184860 0.269850 0.211513 0.126233
H18   H     H_    0.814767 0.730298 0.788982 0.126202
H19   H     H_    0.255895 0.181934 0.373939 0.135431
H20   H     H_    0.744115 0.818241 0.626440 0.135559
N1    N     N_1   0.500030 0.500030 0.268070 -0.133391
N2    N     N_1   0.499970 0.499970 0.731930 -0.133374
O1    O     O_R   0.499980 0.319630 0.578260 -0.587772
O2    O     O_R   0.500020 0.680370 0.421740 -0.587779
O3    O     O_R   0.500000 0.319650 0.421740 -0.565113
O4    O     O_R   0.500000 0.680350 0.578260 -0.565104
O5    O     O_R   0.319630 0.500000 0.578260 -0.583132
O6    O     O_R   0.680370 0.500000 0.421740 -0.583143
O7    O     O_R   0.319650 0.500020 0.421740 -0.582272
O8    O     O_R   0.680350 0.499980 0.578260 -0.582254
H21   H     H_    0.264780 0.882153 0.261423 0.158851
H22   H     H_    0.735191 0.118006 0.738735 0.158801
Cl1   Cl    Cl    0.166369 0.816413 0.455347 -0.649928
Cl2   Cl    Cl    0.833706 0.183569 0.544802 -0.649902

loop_
_geom_bond_atom_site_label_1
_geom_bond_atom_site_label_2
_ccdc_geom_bond_type
C27   C29   S    
C39   C41   A    
Cu1   Cu2   S    
C3    C43   A    
C1    O3    A    
Cu1   O8    S    
C28   N2    T    
C23   O5    A    
C20   C25   A    
C39   H11   S    
C5    C36   S    
C6    C35   S    
Cu1   O5    S    
C19   C26   A    
C17   H15   S    
C7    C17   A    
C31   C33   A    
C15   H5    S    
C43   H13   S    
C34   Cl2   S    
C19   H7    S    
C40   C42   A    
C1    C22   S    
Cu1   O4    S    
C3    C24   S    
C2    C21   S    
C2    O4    A    
Cu2   O7    S    
C31   H21   S    
C10   H20   S    
C40   H12   S    
Cu1   O1    S    
C20   H8    S    
C23   O7    A    
C4    C23   S    
C24   O8    A    
C4    C44   A    
C11   C26   S    
C1    O1    A    
C32   C34   A    
C29   C30   T    
Cu1   N2    S    
C8    C18   A    
C41   H1    S    
C16   C18   A    
C42   H2    S    
C9    C11   A    
C7    H17   S    
Cu2   O3    S    
C10   C12   A    
C8    H18   S    
C13   H3    S    
C4    C6    A    
C5    C44   A    
C20   C22   A    
C6    C43   A    
C13   C15   A    
C14   C16   A    
Cu2   O6    S    
C35   C37   A    
C15   C17   A    
C21   C25   A    
C31   C41   A    
C19   C21   A    
C33   Cl1   S    
C16   H6    S    
C12   C14   A    
C3    C5    A    
C12   C25   S    
C36   C38   A    
Cu2   N1    S    
C37   C39   A    
C38   C40   A    
C11   C13   A    
C24   O6    A    
C14   H4    S    
C44   H14   S    
C28   C30   S    
C33   C35   A    
C34   C36   A    
C9    H19   S    
Cu2   O2    S    
C27   N1    T    
C32   H22   S    
C37   H9    S    
C7    C9    A    
C38   H10   S    
C8    C10   A    
C22   C26   A    
C32   C42   A    
C18   H16   S    
C2    O2    A    
