data_mof_unit_927.cif
_audit_creation_date              2012-12-10T18:35:17-0500
_audit_creation_method            fapswitch 2.2
_symmetry_space_group_name_H-M    P1
_symmetry_Int_Tables_number       1
_space_group_crystal_system       triclinic
_cell_length_a                    14.878777
_cell_length_b                    15.224528
_cell_length_c                    16.606143
_cell_angle_alpha                 91.192155
_cell_angle_beta                  98.253365
_cell_angle_gamma                 97.358517
_cell_volume                      3689.09883501

loop_
_atom_site_label
_atom_site_type_symbol
_atom_type_description
_atom_site_fract_x
_atom_site_fract_y
_atom_site_fract_z
_atom_type_partial_charge
C1    C     C_R   0.557092 0.663027 0.508361 0.863256
C2    C     C_R   0.482289 0.186129 0.458672 -0.137697
C3    C     C_R   0.567900 0.898972 0.443083 0.046817
C4    C     C_R   0.466581 0.103817 0.416293 0.055496
C5    C     C_R   0.660889 0.931767 0.471524 0.022788
C6    C     C_R   0.378929 0.074681 0.372437 -0.043288
C7    C     C_R   0.508575 0.956675 0.406232 -0.202018
C8    C     C_R   0.535344 0.047791 0.420751 -0.182320
C9    C     C_R   0.630226 0.079935 0.434632 0.413655
C10   C     C_R   0.424242 0.928340 0.354839 0.446910
C11   C     C_R   0.694240 0.021181 0.462302 0.336874
C12   C     C_R   0.444102 0.336777 0.483019 0.830179
C13   C     C_R   0.360685 0.988546 0.336253 0.319611
C14   C     C_R   0.186132 0.671266 0.415256 0.335962
C15   C     C_R   0.832074 0.385713 0.646162 0.361579
C16   C     C_R   0.512228 0.498230 0.349609 0.866228
C17   C     C_R   0.489373 0.505858 0.650829 0.857993
C18   C     C_R   0.259485 0.622954 0.407757 0.403713
C19   C     C_R   0.742958 0.388441 0.604809 0.409608
C20   C     C_R   0.205096 0.515788 0.497250 0.486924
C21   C     C_R   0.799110 0.499824 0.518489 0.478950
C22   C     C_R   0.126624 0.559047 0.503632 -0.214508
C23   C     C_R   0.592981 0.755724 0.498415 -0.085946
C24   C     C_R   0.891239 0.498662 0.556992 -0.200966
C25   C     C_R   0.115625 0.636131 0.458785 -0.201015
C26   C     C_R   0.907652 0.436848 0.618803 -0.217826
C27   C     C_R   0.056142 0.524838 0.548933 0.057974
C28   C     C_R   0.968135 0.551635 0.531781 0.057184
C29   C     C_R   0.960935 0.631539 0.492079 -0.307304
C30   C     C_R   0.071447 0.467198 0.612570 -0.264455
C31   C     C_R   0.034439 0.675944 0.458176 0.571151
C32   C     C_R   0.999291 0.422656 0.647036 0.554304
C33   C     C_R   0.527325 0.516525 0.267791 -0.099906
C34   C     C_R   0.416655 0.244741 0.450205 -0.099082
C35   C     C_R   0.491740 0.531643 0.735525 -0.083836
C36   C     C_R   0.513441 0.599928 0.239063 -0.209691
C37   C     C_R   0.574390 0.573453 0.778440 -0.226149
C38   C     C_R   0.534273 0.622802 0.163175 -0.238806
C39   C     C_R   0.577600 0.606307 0.856940 -0.240533
C40   C     C_R   0.567236 0.561389 0.114843 0.096061
C41   C     C_R   0.499164 0.594095 0.895065 0.116041
C42   C     C_R   0.581560 0.477057 0.143793 0.524954
C43   C     C_R   0.415035 0.552968 0.852576 0.503319
C44   C     C_R   0.564182 0.456194 0.221825 -0.344469
C45   C     C_R   0.719660 0.874006 0.508628 -0.140541
C46   C     C_R   0.411458 0.524474 0.770961 -0.332504
C47   C     C_2   0.577178 0.580919 0.031019 -0.249927
C48   C     C_2   0.508294 0.610610 0.982860 -0.220086
C49   C     C_3   0.645502 0.174221 0.330577 -0.327101
C50   C     C_3   0.467104 0.840021 0.258213 -0.328375
C51   C     C_3   0.998011 0.818346 0.463128 -0.300826
C52   C     C_3   0.045544 0.288233 0.676994 -0.300930
C53   C     C_3   0.769379 0.495997 0.378616 0.156481
C54   C     C_3   0.858711 0.499822 0.342242 -0.430620
C55   C     C_3   0.844056 0.446933 0.261267 -0.927180
C56   C     C_R   0.313034 0.133458 0.363363 -0.154702
C57   C     C_3   0.190933 0.368561 0.462835 0.113746
C58   C     C_3   0.088272 0.345160 0.433208 -0.426490
C59   C     C_3   0.071767 0.276497 0.362392 -0.979148
C60   C     C_3   0.635195 0.325665 0.683056 0.197268
C61   C     C_3   0.639000 0.240143 0.729589 -0.364326
C62   C     C_3   0.597338 0.246044 0.808072 -1.005865
C63   C     C_3   0.280210 0.639531 0.273938 0.170352
C64   C     C_3   0.253955 0.541893 0.244199 -0.427673
C65   C     C_3   0.211640 0.534565 0.154616 -0.970855
C66   C     C_3   0.232204 0.817878 0.439855 -0.115455
C67   C     C_R   0.685994 0.786759 0.521704 -0.209854
C68   C     C_3   0.860434 0.369536 0.783635 -0.227282
C69   C     C_3   0.539543 0.367997 0.043244 0.075733
C70   C     C_3   0.502826 0.282174 0.080999 -0.357550
C71   C     C_3   0.428585 0.226710 0.021261 -0.974861
C72   C     C_3   0.288463 0.457916 0.878658 0.063426
C73   C     C_3   0.233236 0.438464 0.948487 -0.322109
C74   C     C_3   0.172179 0.349390 0.934275 -0.966718
C75   C     C_3   0.821357 0.129042 0.508173 0.176507
C76   C     C_3   0.864376 0.184976 0.444400 -0.285438
C77   C     C_3   0.859632 0.283090 0.457873 -0.961378
C78   C     C_R   0.333333 0.218759 0.399213 -0.235621
C79   C     C_3   0.285859 0.984263 0.206646 0.095408
C80   C     C_3   0.192035 0.963163 0.154368 -0.297220
C81   C     C_3   0.196059 0.987930 0.066244 -0.991558
C82   C     C_R   0.534824 0.811680 0.458922 -0.185042
H1    H     H_    0.488870 0.647999 0.276553 0.181818
H2    H     H_    0.523662 0.687858 0.141595 0.147524
H3    H     H_    0.546427 0.204933 0.498518 0.214492
H4    H     H_    0.462946 0.787360 0.442708 0.215386
H5    H     H_    0.285092 0.264643 0.383884 0.140295
H6    H     H_    0.732655 0.743887 0.550746 0.161800
H7    H     H_    0.791467 0.896405 0.529460 0.170814
H8    H     H_    0.246655 0.114704 0.326864 0.169369
H9    H     H_    0.571705 0.174069 0.307191 0.173065
H10   H     H_    0.681841 0.238914 0.316082 0.185445
H11   H     H_    0.673451 0.121365 0.298213 0.154913
H12   H     H_    0.636324 0.582696 0.750592 0.158926
H13   H     H_    0.484229 0.903737 0.228358 0.128944
H14   H     H_    0.434454 0.791117 0.209011 0.167212
H15   H     H_    0.531117 0.816535 0.287372 0.186365
H16   H     H_    0.036496 0.822618 0.526150 0.129326
H17   H     H_    0.923017 0.809137 0.464596 0.163863
H18   H     H_    0.015155 0.882971 0.435567 0.202484
H19   H     H_    0.110464 0.301960 0.650915 0.155445
H20   H     H_    0.990141 0.253887 0.630674 0.169013
H21   H     H_    0.057525 0.242206 0.727149 0.188821
H22   H     H_    0.719772 0.523898 0.333195 0.190866
H23   H     H_    0.898732 0.661489 0.488174 0.206664
H24   H     H_    0.740535 0.425772 0.386120 0.134557
H25   H     H_    0.884412 0.569850 0.331896 0.257064
H26   H     H_    0.911309 0.472055 0.384606 0.224461
H27   H     H_    0.818036 0.376514 0.269670 0.259669
H28   H     H_    0.910152 0.449604 0.237127 0.270110
H29   H     H_    0.794173 0.475313 0.216180 0.286689
H30   H     H_    0.216735 0.307502 0.486621 0.169083
H31   H     H_    0.226040 0.389272 0.410003 0.145676
H32   H     H_    0.054346 0.318159 0.484318 0.236649
H33   H     H_    0.058141 0.405032 0.411816 0.226522
H34   H     H_    0.140193 0.458382 0.639099 0.201776
H35   H     H_    0.108772 0.301294 0.312119 0.262944
H36   H     H_    0.997699 0.263507 0.338145 0.276340
H37   H     H_    0.095685 0.213353 0.382990 0.262858
H38   H     H_    0.561471 0.331260 0.665183 0.157417
H39   H     H_    0.665055 0.384807 0.723191 0.106759
H40   H     H_    0.600279 0.183667 0.690424 0.214986
H41   H     H_    0.710703 0.226436 0.744902 0.267236
H42   H     H_    0.636309 0.300866 0.849008 0.264770
H43   H     H_    0.600091 0.182932 0.840092 0.274883
H44   H     H_    0.524637 0.257762 0.794265 0.261085
H45   H     H_    0.347164 0.495847 0.735527 0.156144
H46   H     H_    0.329872 0.670948 0.236056 0.165273
H47   H     H_    0.219588 0.675610 0.262162 0.182985
H48   H     H_    0.315597 0.507363 0.251055 0.255496
H49   H     H_    0.203726 0.507735 0.280487 0.201161
H50   H     H_    0.148537 0.567233 0.145447 0.272611
H51   H     H_    0.193294 0.463602 0.134876 0.269750
H52   H     H_    0.261287 0.566093 0.116423 0.268848
H53   H     H_    0.306700 0.812582 0.450450 0.145362
H54   H     H_    0.204349 0.813319 0.498629 0.106260
H55   H     H_    0.223046 0.884414 0.416897 0.203385
H56   H     H_    0.577654 0.392745 0.245833 0.148601
H57   H     H_    0.894939 0.326962 0.828336 0.198022
H58   H     H_    0.795069 0.380194 0.804254 0.121895
H59   H     H_    0.905229 0.434347 0.785984 0.166848
H60   H     H_    0.566053 0.350598 0.986567 0.169505
H61   H     H_    0.482378 0.407618 0.024319 0.135125
H62   H     H_    0.559915 0.242745 0.098876 0.228648
H63   H     H_    0.473232 0.298185 0.136374 0.212034
H64   H     H_    0.370308 0.264639 0.003582 0.265828
H65   H     H_    0.402981 0.165318 0.050403 0.262238
H66   H     H_    0.456665 0.207922 0.965812 0.269099
H67   H     H_    0.449495 0.628693 0.008280 0.193691
H68   H     H_    0.334524 0.405715 0.876501 0.124147
H69   H     H_    0.240195 0.455170 0.820639 0.168199
H70   H     H_    0.281132 0.437597 0.006307 0.219125
H71   H     H_    0.189601 0.491641 0.954368 0.239738
H72   H     H_    0.121782 0.349875 0.878064 0.293292
H73   H     H_    0.134243 0.336753 0.986675 0.263077
H74   H     H_    0.214214 0.294994 0.928382 0.258832
H75   H     H_    0.876093 0.122517 0.559873 0.109491
H76   H     H_    0.769381 0.161082 0.536122 0.185562
H77   H     H_    0.937013 0.173760 0.446833 0.191543
H78   H     H_    0.630499 0.552658 0.004872 0.186413
H79   H     H_    0.829227 0.163954 0.382191 0.251284
H80   H     H_    0.788503 0.295747 0.461122 0.301182
H81   H     H_    0.884290 0.320003 0.406903 0.260964
H82   H     H_    0.903977 0.306928 0.514965 0.252048
H83   H     H_    0.334640 0.945709 0.181189 0.152749
H84   H     H_    0.309675 0.056466 0.203515 0.117692
H85   H     H_    0.167723 0.891141 0.155938 0.240854
H86   H     H_    0.142289 0.000651 0.179577 0.221840
H87   H     H_    0.218710 0.060055 0.063140 0.266045
H88   H     H_    0.126947 0.971823 0.029906 0.271661
H89   H     H_    0.642284 0.638650 0.889102 0.157622
H90   H     H_    0.244334 0.950084 0.039381 0.266135
N1    N     N_R   0.271750 0.551950 0.454510 -0.207076
N2    N     N_R   0.728250 0.448050 0.545490 -0.200806
O1    O     O_R   0.615140 0.606020 0.522930 -0.586208
O2    O     O_3   0.405933 0.845534 0.315442 -0.570935
O3    O     O_3   0.022319 0.750984 0.413874 -0.551777
O4    O     O_3   0.019744 0.366130 0.709349 -0.594066
O5    O     O_3   0.780026 0.549860 0.451034 -0.635217
O6    O     O_3   0.210649 0.432835 0.527847 -0.645215
O7    O     O_3   0.674556 0.318792 0.610891 -0.619579
O8    O     O_3   0.322774 0.649201 0.356561 -0.583362
O9    O     O_3   0.185336 0.753289 0.381187 -0.537360
O10   O     O_3   0.844981 0.324934 0.706150 -0.573966
O11   O     O_3   0.613615 0.415191 0.096760 -0.668316
O12   O     O_R   0.384860 0.393980 0.477070 -0.608828
O13   O     O_3   0.338164 0.543874 0.892069 -0.664430
O14   O     O_3   0.789269 0.043491 0.473307 -0.674685
O15   O     O_3   0.278192 0.960404 0.287367 -0.613543
O16   O     O_R   0.468580 0.639400 0.493740 -0.588254
O17   O     O_R   0.531420 0.360600 0.506260 -0.569775
O18   O     O_R   0.581950 0.481350 0.400520 -0.607407
O19   O     O_R   0.418050 0.518650 0.599480 -0.576706
O20   O     O_R   0.435380 0.514730 0.371330 -0.589264
O21   O     O_R   0.564620 0.485270 0.628670 -0.648622
O22   O     O_3   0.660261 0.166011 0.415930 -0.614679
Zn1   Zn    Zn3+2 0.597860 0.477710 0.519490 0.973647
Zn2   Zn    Zn3+2 0.402140 0.522290 0.480510 0.984335

loop_
_geom_bond_atom_site_label_1
_geom_bond_atom_site_label_2
_ccdc_geom_bond_type
C78   H5    S    
C25   C31   A    
C40   C47   S    
C71   H65   S    
C66   O9    S    
C76   H77   S    
C26   C32   A    
C23   C82   A    
C7    C10   A    
C57   O6    S    
C73   C74   S    
C14   C18   A    
C17   O19   A    
C75   O14   S    
C4    C8    A    
C32   O4    S    
C19   O7    S    
C62   H42   S    
C14   O9    S    
C9    O22   S    
C56   C78   A    
C7    C8    A    
C39   C41   A    
C30   H34   S    
C53   C54   S    
C15   C19   A    
C52   H20   S    
C67   H6    S    
C54   H25   S    
C31   O3    S    
C28   C29   A    
C35   C37   A    
C24   C26   A    
C5    C11   A    
C3    C7    A    
C77   H80   S    
C52   H21   S    
C50   H13   S    
C57   H30   S    
C18   O8    S    
C53   H22   S    
O19   Zn2   S    
C60   O7    S    
C33   C36   A    
C13   O15   S    
C74   H72   S    
C2    H3    S    
C50   O2    S    
C81   H90   S    
C23   C67   A    
O1    Zn1   S    
C39   H89   S    
C16   O18   A    
C53   H24   S    
C68   O10   S    
C47   C48   D    
C8    C9    A    
N2    Zn1   S    
C22   C25   A    
C45   C67   A    
C59   H37   S    
C70   C71   S    
C81   H87   S    
C37   H12   S    
C45   H7    S    
C80   H85   S    
C63   H46   S    
O16   Zn2   S    
C38   H2    S    
C1    O16   A    
C2    C34   A    
C77   H82   S    
C40   C42   A    
C71   H66   S    
C79   H84   S    
C63   O8    S    
C48   H67   S    
C55   H27   S    
C27   C30   A    
C51   H17   S    
C41   C43   A    
C29   H23   S    
C76   H79   S    
C61   C62   S    
C42   C44   A    
C49   H9    S    
C53   O5    S    
C47   H78   S    
C10   O2    S    
C52   H19   S    
C63   C64   S    
C77   H81   S    
C24   C28   A    
C46   H45   S    
C16   O20   A    
C76   C77   S    
C4    C6    A    
C6    C56   A    
C62   H44   S    
C72   C73   S    
C15   C26   A    
C57   H31   S    
C69   H60   S    
C82   H4    S    
C5    C45   A    
C11   O14   S    
C60   C61   S    
C2    C4    A    
C75   C76   S    
C72   O13   S    
C16   C33   S    
C20   O6    S    
C20   N1    A    
C64   H49   S    
C43   O13   S    
C66   H53   S    
C29   C31   A    
C72   H69   S    
C12   O12   A    
C15   O10   S    
C3    C82   A    
C74   H74   S    
C68   H59   S    
C70   H63   S    
O18   Zn1   S    
C79   H83   S    
C9    C11   A    
C60   H39   S    
C66   H54   S    
C42   O11   S    
C64   H48   S    
C1    C23   S    
C59   H36   S    
C72   H68   S    
C22   C27   A    
C55   H28   S    
C58   H33   S    
C17   O21   A    
C59   H35   S    
C49   H10   S    
C12   C34   S    
C69   O11   S    
C65   H50   S    
C75   H76   S    
C51   H18   S    
C12   O17   A    
C54   C55   S    
C1    O1    A    
C50   H15   S    
C44   H56   S    
C55   H29   S    
N1    Zn2   S    
C33   C44   A    
O12   Zn2   S    
O17   Zn1   S    
C20   C22   A    
C80   C81   S    
C3    C5    A    
C10   C13   A    
C62   H43   S    
C49   O22   S    
C69   H61   S    
C17   C35   S    
C70   H62   S    
C50   H14   S    
C54   H26   S    
C61   H41   S    
C64   C65   S    
C36   C38   A    
C58   C59   S    
C19   N2    A    
C73   H70   S    
C34   C78   A    
C6    C13   A    
C30   C32   A    
C75   H75   S    
C57   C58   S    
O20   Zn2   S    
C66   H55   S    
C38   C40   A    
C51   H16   S    
C56   H8    S    
C41   C48   S    
C74   H73   S    
C60   H38   S    
C65   H52   S    
C63   H47   S    
C14   C25   A    
C81   H88   S    
C69   C70   S    
C43   C46   A    
C52   O4    S    
C68   H58   S    
C79   C80   S    
C18   N1    A    
C21   O5    S    
C71   H64   S    
C37   C39   A    
C21   N2    A    
C79   O15   S    
C21   C24   A    
C73   H71   S    
C27   C28   A    
C58   H32   S    
C61   H40   S    
C68   H57   S    
C36   H1    S    
C49   H11   S    
C51   O3    S    
C35   C46   A    
C80   H86   S    
C65   H51   S    
O21   Zn1   S    
