data_mof_unit_4839.cif
_audit_creation_date              2012-12-10T18:04:02-0500
_audit_creation_method            fapswitch 2.2
_symmetry_space_group_name_H-M    P1
_symmetry_Int_Tables_number       1
_space_group_crystal_system       triclinic
_cell_length_a                    10.822684
_cell_length_b                    9.529875
_cell_length_c                    10.848065
_cell_angle_alpha                 90.327356
_cell_angle_beta                  89.964054
_cell_angle_gamma                 90.015369
_cell_volume                      1118.83816409

loop_
_atom_site_label
_atom_site_type_symbol
_atom_type_description
_atom_site_fract_x
_atom_site_fract_y
_atom_site_fract_z
_atom_type_partial_charge
C1    C     C_R   0.262113 0.499969 0.499537 0.767678
C2    C     C_R   0.737899 0.499993 0.500027 0.790516
C3    C     C_R   0.400481 0.073957 0.457201 0.007149
C4    C     C_R   0.599912 0.074564 0.541724 0.009959
C5    C     C_R   0.400302 0.925464 0.457754 -0.016355
C6    C     C_R   0.600144 0.926029 0.541109 -0.046460
C7    C     C_R   0.499131 0.499314 0.262443 0.874514
C8    C     C_R   0.503019 0.500124 0.737614 0.886420
C9    C     C_R   0.446971 0.609656 0.063973 -0.053966
C10   C     C_R   0.456793 0.613060 0.937532 -0.015542
C11   C     C_R   0.492874 0.495419 0.129420 -0.323528
C12   C     C_R   0.501128 0.498092 0.870900 -0.300845
C13   C     C_R   0.531080 0.374889 0.063844 0.492553
C14   C     C_R   0.533428 0.375574 0.935463 0.492997
C15   C     C_3   0.489800 0.766369 0.937838 -0.181374
C16   C     C_3   0.471899 0.763709 0.078084 -0.162680
C17   C     C_R   0.063860 0.372545 0.495783 -0.192723
C18   C     C_R   0.936102 0.372558 0.496200 -0.176577
C19   C     C_R   0.871766 0.500073 0.499713 -0.005559
C20   C     C_R   0.128263 0.500048 0.499028 -0.006796
C21   C     C_R   0.936170 0.627615 0.502623 -0.187764
C22   C     C_R   0.063944 0.627602 0.502148 -0.200271
Cu1   Cu    Cu3+1 0.500000 0.640660 0.500000 0.942986
Cu2   Cu    Cu3+1 0.500000 0.359340 0.500000 0.995339
H1    H     H_    0.419132 0.829182 0.887936 0.150744
H2    H     H_    0.556969 0.786140 0.132415 0.175704
H3    H     H_    0.111865 0.272844 0.492976 0.140384
H4    H     H_    0.888037 0.272861 0.493696 0.143920
H5    H     H_    0.888162 0.727309 0.505403 0.144300
H6    H     H_    0.112030 0.727293 0.504509 0.142860
H7    H     H_    0.320673 0.128953 0.422266 0.121186
H8    H     H_    0.679945 0.130154 0.575873 0.120062
H9    H     H_    0.320120 0.869941 0.424146 0.134371
H10   H     H_    0.680509 0.870910 0.574519 0.131100
N1    N     N_R   0.500000 0.852070 0.500000 -0.163214
N2    N     N_R   0.500000 0.147940 0.500000 -0.153716
O1    O     O_R   0.319640 0.618740 0.499990 -0.601686
O2    O     O_R   0.680360 0.618740 0.500010 -0.599889
O3    O     O_R   0.319620 0.381170 0.499990 -0.606742
O4    O     O_R   0.680380 0.381170 0.500010 -0.589981
O5    O     O_R   0.499990 0.618810 0.319660 -0.590716
O6    O     O_R   0.500010 0.618810 0.680340 -0.584266
O7    O     O_R   0.499960 0.381240 0.319650 -0.518733
O8    O     O_R   0.500040 0.381240 0.680350 -0.526566
F1    F     F_    0.575791 0.260545 0.123138 -0.643161
F2    F     F_    0.576763 0.260238 0.875619 -0.664270
C23   C     C_R   0.622228 0.801347 0.902319 0.130608
C24   C     C_R   0.646223 0.928005 0.841449 -0.087865
C25   C     C_R   0.767542 0.967768 0.813915 -0.115180
C26   C     C_R   0.866107 0.880731 0.845653 -0.131437
C27   C     C_R   0.843769 0.754856 0.906929 -0.131067
C28   C     C_R   0.722860 0.715770 0.936401 -0.134956
H11   H     H_    0.570837 0.996593 0.816109 0.176969
H12   H     H_    0.785227 0.066197 0.767957 0.147557
H13   H     H_    0.959844 0.911384 0.823696 0.132578
H14   H     H_    0.920319 0.688215 0.932882 0.137830
H15   H     H_    0.708477 0.619655 0.986904 0.129657
C29   C     C_R   0.362334 0.850704 0.120802 0.125228
C30   C     C_R   0.367946 0.997151 0.107972 -0.127798
C31   C     C_R   0.270031 0.081838 0.147461 -0.122266
C32   C     C_R   0.165338 0.021091 0.200377 -0.150923
C33   C     C_R   0.158531 0.875598 0.214014 -0.185426
C34   C     C_R   0.256548 0.790499 0.175146 -0.105587
H16   H     H_    0.448208 0.045318 0.066419 0.208606
H17   H     H_    0.275500 0.194612 0.137250 0.142209
H18   H     H_    0.089733 0.086796 0.231287 0.140071
H19   H     H_    0.077676 0.828722 0.255740 0.141649
H20   H     H_    0.249446 0.678365 0.188574 0.128182

loop_
_geom_bond_atom_site_label_1
_geom_bond_atom_site_label_2
_ccdc_geom_bond_type
C13   F1    S    
Cu1   Cu2   S    
C4    N2    A    
C2    O4    A    
C23   C28   A    
C1    O1    A    
Cu1   O2    S    
C11   C13   A    
C9    C10   A    
C2    O2    A    
C26   H13   S    
Cu1   O5    S    
C15   C23   S    
C8    C12   S    
C6    H10   S    
C32   C33   A    
C33   C34   A    
C20   C22   A    
C17   C18   A    
C2    C19   S    
C30   C31   A    
C14   F2    S    
C25   H12   S    
Cu2   N2    S    
C21   C22   A    
C3    H7    S    
C7    C11   S    
C9    C11   A    
C8    O8    A    
C30   H16   S    
C4    H8    S    
Cu1   O6    S    
C10   C12   A    
C3    N2    A    
C32   H18   S    
C33   H19   S    
C24   C25   A    
C19   C21   A    
C9    C16   S    
C12   C14   A    
C31   H17   S    
C18   C19   A    
Cu1   N1    S    
C10   C15   S    
C7    O5    A    
C16   H2    S    
C24   H11   S    
Cu2   O8    S    
C15   H1    S    
C28   H15   S    
C1    O3    A    
C27   C28   A    
C17   H3    S    
C23   C24   A    
C5    N1    A    
C17   C20   A    
C18   H4    S    
C6    N1    A    
C4    C6    A    
C27   H14   S    
C29   C34   A    
C25   C26   A    
Cu2   O7    S    
C26   C27   A    
C34   H20   S    
C1    C20   S    
C16   C29   S    
C22   H6    S    
C13   C14   A    
Cu2   O4    S    
C29   C30   A    
Cu1   O1    S    
C21   H5    S    
Cu2   O3    S    
C15   C16   S    
C8    O6    A    
C31   C32   A    
C3    C5    A    
C7    O7    A    
C5    H9    S    
