data_mof_unit_4477.cif
_audit_creation_date              2013-03-05T15:49:06-0500
_audit_creation_method            fapswitch 2.2
_symmetry_space_group_name_H-M    P1
_symmetry_Int_Tables_number       1
_space_group_crystal_system       triclinic
_cell_length_a                    22.221105
_cell_length_b                    7.232066
_cell_length_c                    19.574701
_cell_angle_alpha                 89.945141
_cell_angle_beta                  98.55673
_cell_angle_gamma                 90.092884
_cell_volume                      3110.7224239

loop_
_atom_site_label
_atom_site_type_symbol
_atom_site_description
_atom_site_fract_x
_atom_site_fract_y
_atom_site_fract_z
_atom_type_partial_charge
O1    O     O_R   0.448470 0.506130 0.415700 -0.583218
O2    O     O_R   0.551530 0.006130 0.584300 -0.583191
O3    O     O_R   0.436320 0.174490 0.555800 -0.562576
O4    O     O_R   0.563680 0.674490 0.444200 -0.561241
C1    C     C_R   0.423445 0.343466 0.577713 1.011616
C2    C     C_R   0.576638 0.843721 0.422374 1.011189
O5    O     O_R   0.441350 0.176340 0.414480 -0.585276
O6    O     O_R   0.558650 0.676340 0.585520 -0.584771
O7    O     O_R   0.556600 0.007100 0.441970 -0.564404
O8    O     O_R   0.443400 0.507100 0.558030 -0.563369
C3    C     C_R   0.425721 0.344964 0.390508 0.979458
C4    C     C_R   0.574168 0.845091 0.609563 0.979079
O9    O     O_3   0.537810 0.339550 0.509190 -0.268924
O10   O     O_3   0.462190 0.839550 0.490810 -0.268174
V1    V     V_3+5 0.492990 0.064280 0.498300 1.289580
V2    V     V_3+5 0.507010 0.564280 0.501700 1.290228
C5    C     C_R   0.875323 0.924158 0.698940 -0.144254
C6    C     C_R   0.125030 0.447649 0.301426 -0.143066
H1    H     H_    0.897172 0.921415 0.653347 0.201289
H2    H     H_    0.103419 0.454013 0.347137 0.202259
C7    C     C_R   0.886838 0.939714 0.823158 -0.423751
C8    C     C_R   0.112897 0.438846 0.177077 -0.422624
C9    C     C_R   0.592747 0.808759 0.734840 -0.239011
C10   C     C_R   0.406239 0.298539 0.265816 -0.236585
C11   C     C_R   0.629357 0.790438 0.798314 0.284889
C12   C     C_R   0.369149 0.274961 0.202942 0.284305
C13   C     C_R   0.691724 0.820586 0.804388 -0.099285
C14   C     C_R   0.307031 0.308728 0.196852 -0.100686
C15   C     C_R   0.719489 0.879140 0.747608 0.062159
C16   C     C_R   0.280056 0.376928 0.252780 0.061822
C17   C     C_R   0.682561 0.883286 0.680751 -0.090853
C18   C     C_R   0.317369 0.386358 0.319327 -0.090472
C19   C     C_R   0.783950 0.915740 0.754720 -0.035974
C20   C     C_R   0.215891 0.417990 0.245405 -0.036018
C21   C     C_R   0.811615 0.923015 0.693955 -0.091630
C22   C     C_R   0.188691 0.438011 0.306156 -0.092273
C23   C     C_R   0.775593 0.928331 0.628677 0.178327
C24   C     C_R   0.225085 0.446211 0.371213 0.176734
C25   C     C_R   0.712169 0.911407 0.622255 0.237879
C26   C     C_R   0.288293 0.422914 0.377590 0.237084
C27   C     C_R   0.822493 0.943834 0.819710 0.264638
C28   C     C_R   0.177202 0.438607 0.180102 0.265456
C29   C     C_R   0.913112 0.927064 0.762279 0.279848
C30   C     C_R   0.086896 0.440883 0.238327 0.279483
C31   C     C_R   0.617805 0.851075 0.675289 -0.167176
C32   C     C_R   0.381881 0.349761 0.324885 -0.168225
H3    H     H_    0.544351 0.782437 0.731486 0.143838
H4    H     H_    0.454393 0.268655 0.269259 0.143432
H5    H     H_    0.717918 0.787334 0.853611 0.182683
H6    H     H_    0.280368 0.270660 0.148444 0.182871
C33   C     C_3   0.771720 0.800899 0.302261 0.183989
C34   C     C_3   0.228962 0.299731 0.698454 0.184645
C35   C     C_3   0.795283 0.987776 0.279589 0.121551
C36   C     C_3   0.205644 0.486382 0.721223 0.118358
C37   C     C_1   0.874578 0.942172 0.119537 -0.126088
C38   C     C_1   0.125765 0.442259 0.880787 -0.124496
C39   C     C_1   0.621472 0.851237 0.375560 -0.151113
C40   C     C_1   0.378866 0.350428 0.624812 -0.152110
C41   C     C_3   0.765085 0.733602 0.226903 0.267687
C42   C     C_3   0.235405 0.231748 0.773766 0.271055
C43   C     C_3   0.789282 0.920089 0.203747 -0.303473
C44   C     C_3   0.211427 0.418112 0.797015 -0.304055
C45   C     C_3   0.698117 0.803078 0.213224 -0.295104
C46   C     C_3   0.302476 0.301090 0.787548 -0.295394
C47   C     C_3   0.705470 0.873368 0.289614 -0.211100
C48   C     C_3   0.295278 0.372117 0.711200 -0.211433
C49   C     C_3   0.722916 0.991826 0.191461 0.263456
C50   C     C_3   0.277880 0.489728 0.809406 0.262429
C51   C     C_3   0.729392 0.060755 0.266691 0.186625
C52   C     C_3   0.271571 0.559318 0.734229 0.187303
C53   C     C_1   0.835921 0.934210 0.157172 0.349260
C54   C     C_1   0.164618 0.433324 0.843395 0.350953
C55   C     C_1   0.659219 0.858815 0.336708 0.296330
C56   C     C_1   0.341349 0.357778 0.663923 0.295986
H7    H     H_    0.658814 0.725985 0.185135 0.234800
H8    H     H_    0.341683 0.223825 0.815635 0.235161
O11   O     O_R   0.056650 0.288730 0.942060 -0.563492
O12   O     O_R   0.943350 0.788730 0.057940 -0.582373
O13   O     O_R   0.058660 0.616870 0.085540 -0.594499
O14   O     O_R   0.941340 0.116870 0.914460 -0.575934
C57   C     C_R   0.072493 0.448583 0.110293 1.103233
C58   C     C_R   0.927117 0.948524 0.890021 1.111168
O15   O     O_R   0.063700 0.618520 0.944220 -0.568132
O16   O     O_R   0.936300 0.118520 0.055780 -0.553316
O17   O     O_R   0.948460 0.787610 0.915680 -0.593090
O18   O     O_R   0.051540 0.287610 0.084320 -0.571447
C59   C     C_R   0.079029 0.450375 0.925048 0.990957
C60   C     C_R   0.921064 0.950212 0.075019 0.993087
O19   O     O_3   0.962230 0.453430 0.990860 -0.283807
O20   O     O_3   0.037770 0.953430 0.009140 -0.280909
V3    V     V_3+5 0.007010 0.728750 0.001700 1.311654
V4    V     V_3+5 0.992990 0.228750 0.998300 1.332113
N1    N     N_R   0.978175 0.923884 0.763116 0.243652
O21   O     O_R   0.014334 0.022016 0.807422 -0.373608
O22   O     O_R   0.000889 0.841187 0.713763 -0.270181
N2    N     N_R   0.021851 0.446503 0.237703 0.244059
O23   O     O_R   0.985177 0.352573 0.192471 -0.359297
O24   O     O_R   0.999308 0.530669 0.286922 -0.287095
N3    N     N_R   0.800013 0.695828 0.362050 0.295129
O25   O     O_R   0.857890 0.659100 0.369616 -0.233078
O26   O     O_R   0.767885 0.640362 0.408521 -0.260072
N4    N     N_R   0.200472 0.195911 0.638420 0.295666
O27   O     O_R   0.142642 0.158103 0.631132 -0.237397
O28   O     O_R   0.232155 0.145032 0.590969 -0.261183
N5    N     N_R   0.709563 0.238720 0.290177 0.272057
O29   O     O_R   0.678647 0.352067 0.246896 -0.350148
O30   O     O_R   0.717310 0.276321 0.355834 -0.278811
N6    N     N_R   0.291553 0.737693 0.710966 0.271647
O31   O     O_R   0.322329 0.850911 0.754452 -0.350754
O32   O     O_R   0.283776 0.776393 0.645374 -0.280573
N7    N     N_R   0.694769 0.095533 0.131246 0.293853
O33   O     O_R   0.637169 0.135779 0.124300 -0.293050
O34   O     O_R   0.725785 0.136893 0.081992 -0.275998
N8    N     N_R   0.306121 0.592891 0.869707 0.293915
O35   O     O_R   0.363781 0.632930 0.876747 -0.292647
O36   O     O_R   0.275086 0.634240 0.918887 -0.276218
N9    N     N_R   0.784847 0.556159 0.203121 0.275148
O37   O     O_R   0.818862 0.447276 0.245249 -0.281470
O38   O     O_R   0.773123 0.513941 0.137949 -0.305353
N10   N     N_R   0.215416 0.054073 0.797386 0.275962
O39   O     O_R   0.181557 0.945140 0.755067 -0.283420
O40   O     O_R   0.226926 0.011392 0.862550 -0.304161
I1    I     I_    0.815245 0.969613 0.535857 0.017257
I2    I     I_    0.186328 0.496860 0.464008 0.019138
N11   N     N_R   0.797573 0.002681 0.879808 0.222947
O41   O     O_R   0.813269 0.921421 0.939115 -0.419544
O42   O     O_R   0.760024 0.141546 0.875586 -0.340205
N12   N     N_R   0.202098 0.487170 0.118752 0.221334
O43   O     O_R   0.185634 0.398637 0.061135 -0.417907
O44   O     O_R   0.240380 0.623943 0.120068 -0.337946
I3    I     I_    0.590436 0.708251 0.885604 -0.118402
I4    I     I_    0.406867 0.178481 0.116800 -0.119455
N13   N     N_R   0.679395 0.905293 0.554318 0.200434
O45   O     O_R   0.667702 0.060069 0.521128 -0.364064
O46   O     O_R   0.680422 0.751832 0.519951 -0.381162
N14   N     N_R   0.321087 0.416541 0.445518 0.201301
O47   O     O_R   0.319115 0.263745 0.480190 -0.384311
O48   O     O_R   0.333866 0.571233 0.478394 -0.360555
N15   N     N_R   0.847144 0.086361 0.317214 0.308534
O49   O     O_R   0.845544 0.142669 0.379942 -0.234176
O50   O     O_R   0.895933 0.113725 0.289220 -0.266121
N16   N     N_R   0.153833 0.584510 0.683599 0.309294
O51   O     O_R   0.155862 0.644566 0.621398 -0.231337
O52   O     O_R   0.104182 0.604062 0.710520 -0.265179

loop_
_geom_bond_atom_site_label_1
_geom_bond_atom_site_label_2
_geom_bond_distance
_ccdc_geom_bond_type
O15   C59   1.332620 A    
C45   C47   1.565109 S    
O11   V4    1.965122 S    
O4    V2    1.976031 S    
N1    O21   1.301289 A    
C9    C31   1.398014 A    
C13   C15   1.413364 A    
N7    O33   1.300298 A    
O1    C3    1.335011 A    
O2    C4    1.334453 A    
N12   O43   1.301417 A    
C2    O7    1.339739 A    
N8    O35   1.300296 A    
O17   V3    2.014365 S    
O3    V1    1.978545 S    
C48   C52   1.545241 S    
O5    C3    1.334079 A    
N5    O30   1.300006 A    
C34   N4    1.457493 S    
C1    C40   1.451137 S    
C46   C50   1.554369 S    
C5    C21   1.404470 A    
C21   C23   1.403796 A    
C10   C12   1.386062 A    
N9    O38   1.300050 A    
O10   V1    1.760220 S    
C19   C21   1.418751 A    
C48   C56   1.482455 S    
C15   C19   1.442476 A    
C47   C55   1.482748 S    
N6    O31   1.299621 A    
C42   C44   1.543763 S    
C33   C47   1.548213 S    
C39   C55   1.214296 T    
C37   C60   1.448241 S    
C34   C42   1.539985 S    
C5    H1    1.077771 S    
C7    C29   1.405992 A    
C14   H6    1.075930 S    
C8    C30   1.406303 A    
N10   O40   1.300058 A    
C20   C28   1.438178 A    
C38   C54   1.213920 T    
N2    O24   1.302074 A    
C16   C18   1.437913 A    
O13   V3    2.026145 S    
C57   O18   1.326457 A    
C28   N12   1.437977 S    
C43   C53   1.481994 S    
O6    V2    2.026047 S    
O5    V1    2.026280 S    
C35   C51   1.542192 S    
N1    O22   1.301126 A    
C23   I1    2.154337 S    
C2    C39   1.451440 S    
C35   C43   1.550379 S    
C12   C14   1.389704 A    
C34   C36   1.536682 S    
C33   N3    1.457155 S    
C23   C25   1.401359 A    
C45   C49   1.553960 S    
C41   C43   1.543536 S    
C9    H3    1.084163 S    
C16   C20   1.442926 A    
C10   H4    1.084198 S    
C8    C57   1.473347 S    
C27   N11   1.437800 S    
O14   C58   1.328866 A    
O13   C57   1.329011 A    
C51   N5    1.457828 S    
N14   O47   1.300345 A    
C38   C59   1.449359 S    
C36   C44   1.550305 S    
C49   C51   1.541392 S    
C46   C48   1.565433 S    
O14   V4    2.025910 S    
C5    C29   1.390312 A    
C30   N2    1.444239 S    
C6    C30   1.390884 A    
N13   O45   1.300719 A    
C26   N14   1.418749 S    
C43   C49   1.548703 S    
N3    O25   1.300332 A    
C36   C52   1.541416 S    
O6    C4    1.334643 A    
N2    O23   1.301593 A    
C46   H8    1.109956 S    
C44   C54   1.483185 S    
N7    O34   1.300212 A    
O1    V2    2.012674 S    
O19   V4    1.761316 S    
N4    O28   1.299945 A    
O2    V1    2.012883 S    
C7    C27   1.421693 A    
C49   N7    1.457217 S    
C36   N16   1.456319 S    
N11   O41   1.301375 A    
N16   O52   1.299461 A    
O4    C2    1.340825 A    
C33   C41   1.539803 S    
C11   I3    2.111163 S    
C34   C48   1.547969 S    
N10   O39   1.298774 A    
C40   C56   1.214135 T    
N14   O48   1.300885 A    
N11   O42   1.301394 A    
C25   N13   1.418680 S    
O12   C60   1.331450 A    
N3    O26   1.299872 A    
C35   N15   1.457593 S    
C18   C32   1.446255 A    
O16   C60   1.331837 A    
C4    C31   1.492017 S    
O3    C1    1.340858 A    
N12   O44   1.301358 A    
N8    O36   1.300217 A    
N15   O49   1.299537 A    
O12   V3    1.966597 S    
C11   C13   1.390081 A    
C58   O17   1.327133 A    
O15   V3    1.978665 S    
N5    O29   1.299615 A    
C41   C45   1.556346 S    
C44   C50   1.548798 S    
C42   C46   1.556832 S    
C19   C27   1.438371 A    
C22   C24   1.404555 A    
O7    V1    1.962479 S    
C10   C32   1.398148 A    
C1    O8    1.339326 A    
C15   C17   1.437848 A    
O18   V4    2.014157 S    
N9    O37   1.298709 A    
C24   C26   1.401891 A    
N15   O50   1.300255 A    
O20   V3    1.759528 S    
C8    C28   1.421347 A    
C45   H7    1.109966 S    
C17   C25   1.417255 A    
C47   C51   1.545293 S    
C14   C16   1.413629 A    
C29   N1    1.443644 S    
C20   C22   1.419492 A    
N6    O32   1.300066 A    
C42   N10   1.456129 S    
C6    H2    1.077658 S    
C18   C26   1.417188 A    
C12   I4    2.111226 S    
N4    O27   1.300319 A    
C37   C53   1.213255 T    
C9    C11   1.386510 A    
C7    C58   1.472940 S    
O11   C59   1.330967 A    
C41   N9    1.456070 S    
C17   C31   1.445491 A    
O9    V2    1.762009 S    
N13   O46   1.300340 A    
C50   C52   1.541389 S    
N16   O51   1.299384 A    
C3    C32   1.492619 S    
O8    V2    1.961069 S    
O16   V4    1.976150 S    
C33   C35   1.537337 S    
C6    C22   1.405684 A    
C52   N6    1.458018 S    
C24   I2    2.154786 S    
C13   H5    1.076165 S    
C50   N8    1.457234 S    
