data_mof_unit_4963.cif
_audit_creation_date              2012-12-10T17:31:10-0500
_audit_creation_method            fapswitch 2.2
_symmetry_space_group_name_H-M    P1
_symmetry_Int_Tables_number       1
_space_group_crystal_system       triclinic
_cell_length_a                    11.997178
_cell_length_b                    12.891425
_cell_length_c                    15.55544
_cell_angle_alpha                 87.120022
_cell_angle_beta                  115.848455
_cell_angle_gamma                 93.457776
_cell_volume                      2160.40495532

loop_
_atom_site_label
_atom_site_type_symbol
_atom_type_description
_atom_site_fract_x
_atom_site_fract_y
_atom_site_fract_z
_atom_type_partial_charge
C1    C     C_R   0.477095 0.299451 0.498186 0.899476
C2    C     C_R   0.522897 0.700550 0.501799 0.876254
C3    C     C_R   0.646475 0.514103 0.111718 -0.220731
C4    C     C_R   0.357563 0.525661 0.887542 -0.222711
C5    C     C_R   0.735206 0.521123 0.076437 -0.218419
C6    C     C_R   0.271545 0.541695 0.922735 -0.221246
C7    C     C_R   0.536255 0.811890 0.502335 -0.049483
C8    C     C_R   0.463698 0.188123 0.497586 -0.054428
C9    C     C_R   0.357673 0.029018 0.512608 -0.219415
C10   C     C_R   0.642251 0.970999 0.487268 -0.216415
C11   C     C_R   0.364356 0.136569 0.508427 -0.193703
C12   C     C_R   0.635614 0.863447 0.491518 -0.205209
C13   C     C_R   0.554975 0.132937 0.489142 -0.269334
C14   C     C_R   0.444922 0.867081 0.510694 -0.278095
C15   C     C_R   0.549575 0.026154 0.493895 0.182186
C16   C     C_R   0.450324 0.973864 0.505940 0.184150
C17   C     C_R   0.000308 0.595426 0.407324 -0.335696
C18   C     C_R   0.999567 0.404403 0.592456 -0.329427
C19   C     C_R   0.121764 0.586909 0.417026 0.013370
C20   C     C_R   0.878250 0.413106 0.582963 0.014585
C21   C     C_R   0.162323 0.459163 0.540667 -0.034734
C22   C     C_R   0.837429 0.540536 0.459006 -0.017587
C23   C     C_R   0.576253 0.492618 0.680184 0.925734
C24   C     C_R   0.423089 0.502429 0.319766 0.922700
C25   C     C_R   0.040948 0.465360 0.533718 0.080477
C26   C     C_R   0.958862 0.534435 0.466013 0.088224
C27   C     C_R   0.623769 0.488329 0.783829 -0.096515
C28   C     C_R   0.375321 0.502949 0.216073 -0.098917
C29   C     C_R   0.787009 0.519536 0.942048 -0.200466
C30   C     C_R   0.220634 0.547534 0.057377 -0.202442
C31   C     C_R   0.748323 0.513902 0.843768 -0.291908
C32   C     C_R   0.257995 0.539599 0.155819 -0.289014
C33   C     C_R   0.539916 0.463996 0.822732 0.366030
C34   C     C_R   0.452433 0.470497 0.177295 0.357650
C35   C     C_R   0.572139 0.491308 0.916994 -0.031809
C36   C     C_R   0.426511 0.499586 0.082682 -0.035626
C37   C     C_R   0.699086 0.509947 0.979093 0.139689
C38   C     C_R   0.305100 0.529052 0.020340 0.142164
C39   C     C_R   0.481530 0.503149 0.950202 0.065869
C40   C     C_R   0.518682 0.502294 0.049301 0.064551
H1    H     H_    0.831895 0.534968 0.125301 0.144433
H2    H     H_    0.178877 0.563567 0.873610 0.145795
H3    H     H_    0.847344 0.366118 0.628705 0.130847
H4    H     H_    0.152738 0.633977 0.371364 0.126622
H5    H     H_    0.195651 0.561746 0.184649 0.171106
H6    H     H_    0.815103 0.529674 0.814763 0.174473
H7    H     H_    0.884038 0.536471 0.988214 0.143289
H8    H     H_    0.128417 0.572795 0.010985 0.141736
H9    H     H_    0.678414 0.525174 0.187406 0.191297
H10   H     H_    0.328152 0.538209 0.811618 0.196236
H11   H     H_    0.368555 0.827183 0.520077 0.162963
H12   H     H_    0.631317 0.172841 0.479727 0.169299
H13   H     H_    0.706547 0.820900 0.484927 0.159328
H14   H     H_    0.293475 0.179118 0.515091 0.163917
H15   H     H_    0.773590 0.593664 0.407384 0.122775
H16   H     H_    0.225843 0.405613 0.591894 0.169794
N1    N     N_R   0.799120 0.480200 0.517090 -0.095008
N2    N     N_R   0.200880 0.519800 0.482910 -0.100119
O1    O     O_R   0.580150 0.341050 0.504560 -0.619700
O2    O     O_R   0.419850 0.658950 0.495440 -0.630663
O3    O     O_R   0.388090 0.353760 0.493600 -0.623181
O4    O     O_R   0.611910 0.646240 0.506400 -0.633040
O5    O     O_R   0.650890 0.490020 0.640860 -0.641287
O6    O     O_R   0.349110 0.509980 0.359140 -0.638876
O7    O     O_R   0.458830 0.502730 0.629890 -0.561223
O8    O     O_R   0.541170 0.497270 0.370110 -0.556949
Zn1   Zn    Zn3+2 0.628240 0.491510 0.507320 0.961375
Zn2   Zn    Zn3+2 0.371760 0.508490 0.492680 0.957666
H17   H     H_    0.939382 0.649199 0.354277 0.142186
H18   H     H_    0.060489 0.350578 0.645443 0.152267
O9    O     O_3   0.547251 0.405378 0.231433 -0.768613
H19   H     H_    0.562904 0.361298 0.187733 0.335293
O10   O     O_3   0.431121 0.408225 0.768981 -0.796915
H20   H     H_    0.405114 0.366567 0.812978 0.330937
H21   H     H_    0.281127 0.989168 0.521623 0.140422
H22   H     H_    0.718806 0.010849 0.478265 0.141738

loop_
_geom_bond_atom_site_label_1
_geom_bond_atom_site_label_2
_ccdc_geom_bond_type
C18   H18   S    
C17   H17   S    
C8    C13   A    
C5    C37   A    
C1    C8    S    
C32   H5    S    
C2    C7    S    
C22   N1    A    
C3    H9    S    
C27   C33   A    
O4    Zn1   S    
C29   H7    S    
C17   C26   A    
O6    Zn2   S    
C30   H8    S    
C35   C37   A    
C9    C16   A    
C10   C15   A    
C1    O1    A    
C33   C35   A    
C2    O2    A    
C15   C16   A    
C30   C38   A    
O10   H20   S    
C21   C25   A    
O1    Zn1   S    
C10   H22   S    
C7    C14   A    
C31   H6    S    
C6    C38   A    
C23   C27   S    
C34   C36   A    
C12   H13   S    
C24   O8    A    
C23   O5    A    
O8    Zn1   S    
C28   C34   A    
C24   O6    A    
C18   C25   A    
N1    Zn1   S    
C19   N2    A    
C7    C12   A    
O5    Zn1   S    
C27   C31   A    
C28   C32   A    
C4    C6    A    
C39   C40   A    
C25   C26   A    
C4    H10   S    
C35   C39   A    
C13   H12   S    
C14   H11   S    
C4    C39   A    
C36   C40   A    
O7    Zn2   S    
C9    C11   A    
C11   H14   S    
C10   C12   A    
C33   O10   S    
C3    C40   A    
C13   C15   A    
C22   C26   A    
C14   C16   A    
C20   H3    S    
C19   H4    S    
N2    Zn2   S    
C5    H1    S    
C24   C28   S    
C3    C5    A    
C1    O3    A    
C21   H16   S    
C22   H15   S    
C23   O7    A    
C36   C38   A    
C21   N2    A    
C29   C31   A    
C30   C32   A    
O3    Zn2   S    
C8    C11   A    
C17   C19   A    
C18   C20   A    
O9    H19   S    
O2    Zn2   S    
C6    H2    S    
C29   C37   A    
C9    H21   S    
C20   N1    A    
C34   O9    S    
C2    O4    A    
