data_mof_unit_3524.cif
_audit_creation_date              2012-12-11T20:41:13-0500
_audit_creation_method            fapswitch 2.2
_symmetry_space_group_name_H-M    P1
_symmetry_Int_Tables_number       1
_space_group_crystal_system       triclinic
_cell_length_a                    8.225706
_cell_length_b                    18.824486
_cell_length_c                    26.969419
_cell_angle_alpha                 96.269373
_cell_angle_beta                  92.834064
_cell_angle_gamma                 86.238343
_cell_volume                      4138.38830195

loop_
_atom_site_label
_atom_site_type_symbol
_atom_type_description
_atom_site_fract_x
_atom_site_fract_y
_atom_site_fract_z
_atom_type_partial_charge
Ba1   Ba    Ba6+2 0.852670 0.466460 0.522850 1.677370
Ba2   Ba    Ba6+2 0.337150 0.533490 0.477140 1.690449
C1    C     C_3   0.618412 0.198669 0.650635 0.640225
C2    C     C_3   0.633846 0.271619 0.630632 0.419421
C3    C     C_3   0.527185 0.635802 0.629327 0.288818
C4    C     C_3   0.535299 0.652651 0.685789 -0.335363
C5    C     C_3   0.999264 0.729833 0.345766 0.366208
C6    C     C_3   0.029239 0.756298 0.295975 -0.246059
C7    C     C_3   0.555561 0.723384 0.343253 0.395035
C8    C     C_3   0.481954 0.797684 0.334081 0.274660
C9    C     C_R   0.957719 0.445317 0.174965 0.711339
C10   C     C_R   0.017501 0.569007 0.186658 0.700751
C11   C     C_2   0.768060 0.552580 0.269662 0.383037
C12   C     C_3   0.112268 0.307392 0.655131 0.299282
C13   C     C_3   0.743463 0.573346 0.325554 -0.167916
C14   C     C_1   0.979583 0.490580 0.343003 0.050463
C15   C     C_2   0.018933 0.483325 0.295469 -0.126719
C16   C     C_2   0.910343 0.515113 0.256252 0.150499
C17   C     C_R   0.040525 0.502982 0.104018 -0.108345
C18   C     C_R   0.004475 0.439603 0.124228 -0.172841
C19   C     C_R   0.005388 0.374293 0.092058 0.316650
C20   C     C_R   0.048413 0.567648 0.135630 0.009995
C21   C     C_2   0.852826 0.531253 0.359966 -0.333201
C22   C     C_2   0.350961 0.479915 0.641099 -0.307799
C23   C     C_3   0.091126 0.282715 0.705955 -0.175849
C24   C     C_R   0.129409 0.434386 0.971843 0.072808
C25   C     C_R   0.119879 0.565448 0.979412 0.024651
C26   C     C_R   0.142828 0.498831 0.950114 0.062872
C27   C     C_R   0.184768 0.369810 0.944856 0.003746
C28   C     C_R   0.231169 0.367712 0.895714 -0.023645
C29   C     C_R   0.226258 0.430485 0.871745 -0.041248
C30   C     C_R   0.182870 0.496362 0.898982 -0.080417
C31   C     C_R   0.182487 0.559682 0.875509 -0.034607
C32   C     C_R   0.217469 0.555769 0.824143 0.606226
C33   C     C_R   0.268324 0.428593 0.821527 0.599044
C34   C     C_3   0.178953 0.316809 0.417031 0.304443
C35   C     C_2   0.434542 0.450717 0.727598 -0.062773
C36   C     C_3   0.449000 0.429671 0.672371 -0.010386
C37   C     C_1   0.215162 0.513507 0.658202 0.028136
C38   C     C_2   0.177467 0.516760 0.706199 -0.098270
C39   C     C_2   0.295729 0.486173 0.744364 0.185583
C40   C     C_R   0.071722 0.436511 0.021031 -0.087359
C41   C     C_R   0.072281 0.501811 0.052351 0.022168
C42   C     C_R   0.099862 0.566483 0.031876 0.052953
C43   C     C_R   0.012862 0.375888 0.039913 0.325261
C44   C     C_R   0.085481 0.630105 0.115608 -0.026253
C45   C     C_3   0.183883 0.235877 0.405232 -0.345054
C46   C     C_R   0.119994 0.628409 0.955095 -0.090063
C47   C     C_R   0.148087 0.625406 0.904107 -0.041311
C48   C     C_R   0.108650 0.629826 0.064797 -0.073090
C49   C     C_2   0.407487 0.300063 0.520145 -0.270756
C50   C     C_3   0.324474 0.251660 0.550473 -0.035619
C51   C     C_2   0.357301 0.173032 0.534298 -0.130444
C52   C     C_2   0.486143 0.150701 0.505941 -0.068918
C53   C     C_2   0.578941 0.205718 0.485136 -0.101753
C54   C     C_1   0.528908 0.274397 0.491708 0.050470
C55   C     C_R   0.647061 0.932644 0.489784 0.467064
C56   C     C_3   0.013453 0.683672 0.582899 0.290630
C57   C     C_R   0.540132 0.073400 0.498205 0.493834
C58   C     C_R   0.615249 0.807501 0.509212 -0.105284
C59   C     C_R   0.665682 0.735038 0.506438 0.052448
C60   C     C_R   0.899179 0.756648 0.460618 -0.031371
C61   C     C_R   0.850071 0.829907 0.463099 -0.134770
C62   C     C_R   0.704623 0.855793 0.486635 -0.071581
C63   C     C_R   0.802049 0.709481 0.480047 -0.267202
C64   C     C_3   0.001194 0.764425 0.596326 -0.342357
C65   C     C_3   0.665567 0.381800 0.372769 0.279200
C66   C     C_3   0.657972 0.366341 0.316184 -0.301894
H1    H     H_    0.687129 0.263707 0.593257 0.035742
H2    H     H_    0.267311 0.218717 0.374444 0.135236
H3    H     H_    0.227851 0.209700 0.438637 0.065887
H4    H     H_    0.059664 0.218582 0.393948 0.142758
H5    H     H_    0.891847 0.665130 0.571314 -0.000349
H6    H     H_    0.096826 0.670763 0.551709 0.070132
H7    H     H_    0.912196 0.778901 0.625973 0.148372
H8    H     H_    0.960564 0.791960 0.563251 0.067506
H9    H     H_    0.122334 0.783149 0.609960 0.141062
H10   H     H_    0.791227 0.393887 0.385498 0.003914
H11   H     H_    0.581280 0.428905 0.383205 0.073108
H12   H     H_    0.746973 0.321479 0.304396 0.153730
H13   H     H_    0.687451 0.414371 0.298828 0.063238
H14   H     H_    0.533302 0.351819 0.302895 0.143805
H15   H     H_    0.506840 0.293930 0.625879 -0.209346
H16   H     H_    0.507819 0.175920 0.631514 -0.111035
H17   H     H_    0.399217 0.625986 0.617073 0.019066
H18   H     H_    0.606654 0.586696 0.619684 0.059981
H19   H     H_    0.454004 0.700602 0.696911 0.150223
H20   H     H_    0.495521 0.606612 0.703582 0.069143
H21   H     H_    0.662391 0.662978 0.699097 0.135916
H22   H     H_    0.166448 0.232441 0.710190 0.192660
H23   H     H_    0.973492 0.672350 0.339431 -0.003490
H24   H     H_    0.892427 0.762128 0.361550 -0.105923
H25   H     H_    0.137635 0.726574 0.279180 0.169658
H26   H     H_    0.921011 0.748292 0.270213 0.131305
H27   H     H_    0.051358 0.814259 0.301498 0.114931
H28   H     H_    0.653809 0.709899 0.316431 -0.051317
H29   H     H_    0.609332 0.725570 0.382076 -0.077536
H30   H     H_    0.581573 0.833509 0.329559 -0.022156
H31   H     H_    0.049334 0.361336 0.654245 0.062627
H32   H     H_    0.405570 0.794013 0.298882 0.098713
H33   H     H_    0.132541 0.454691 0.284392 0.125090
H34   H     H_    0.524568 0.428644 0.753434 0.141837
H35   H     H_    0.270733 0.316401 0.876490 0.157363
H36   H     H_    0.198457 0.320652 0.962179 0.145843
H37   H     H_    0.094200 0.680238 0.139217 0.121874
H38   H     H_    0.094000 0.680882 0.974402 0.086690
H39   H     H_    0.244892 0.311233 0.651053 -0.027881
H40   H     H_    0.145377 0.675198 0.887299 0.135297
H41   H     H_    0.061378 0.541947 0.718139 0.118732
H42   H     H_    0.138123 0.679848 0.052425 0.081128
H43   H     H_    0.841634 0.545172 0.399819 0.091578
H44   H     H_    0.382820 0.480755 0.602615 0.079338
H45   H     H_    0.288672 0.135142 0.551007 0.139757
H46   H     H_    0.686333 0.189018 0.463961 0.115354
H47   H     H_    0.508261 0.826009 0.529875 0.110767
H48   H     H_    0.925541 0.866103 0.447455 0.114856
H49   H     H_    0.385090 0.357332 0.529300 0.073995
H50   H     H_    0.127961 0.324905 0.735137 0.117193
H51   H     H_    0.840192 0.653182 0.478304 0.051819
H52   H     H_    0.962264 0.273903 0.711163 0.201007
H53   H     H_    0.303689 0.333480 0.426345 -0.004266
H54   H     H_    0.101350 0.331951 0.449452 0.071707
N1    N     N_R   0.964838 0.509353 0.205196 -0.415344
N2    N     N_R   0.258946 0.490433 0.797363 -0.428592
N3    N     N_R   0.505176 0.955003 0.511907 -0.231415
N4    N     N_R   0.453060 0.023712 0.516104 -0.236453
N5    N     N_R   0.681484 0.051138 0.475559 -0.205936
N6    N     N_R   0.733822 0.982167 0.471361 -0.219723
O1    O     O_2   0.914730 0.537460 0.618690 -0.461958
O2    O     O_3   0.621197 0.321306 0.393588 -0.627046
O3    O     O_3   0.044757 0.258796 0.617529 -0.520962
O4    O     O_2   0.274960 0.462520 0.381280 -0.461942
O5    O     O_3   0.042980 0.462530 0.441480 -0.498864
O6    O     O_3   0.523340 0.590550 0.413420 -0.473430
O7    O     O_3   0.116600 0.348327 0.374934 -0.620183
O8    O     O_3   0.635780 0.584660 0.526290 -0.480370
O9    O     O_3   0.116060 0.626590 0.438450 -0.480232
O10   O     O_2   0.236904 0.752319 0.470195 -0.452910
O11   O     O_3   0.139180 0.738601 0.377049 -0.507263
O12   O     O_3   0.146720 0.537410 0.558510 -0.493522
O13   O     O_3   0.553920 0.415280 0.473710 -0.491956
O14   O     O_2   0.383540 0.672140 0.526840 -0.462054
O15   O     O_3   0.579887 0.694079 0.607380 -0.633534
O16   O     O_2   0.414750 0.533051 0.324500 -0.430628
O17   O     O_3   0.436598 0.672332 0.335102 -0.518726
O18   O     O_2   0.902550 0.394684 0.191637 -0.490343
O19   O     O_2   0.313432 0.371355 0.799309 -0.549104
O20   O     O_2   0.033929 0.623886 0.214550 -0.599277
O21   O     O_2   0.213931 0.610646 0.803651 -0.582220
O22   O     O_3   0.666360 0.409390 0.586570 -0.484234
O23   O     O_2   0.789637 0.456445 0.676991 -0.502746
O24   O     O_3   0.071703 0.651593 0.625086 -0.622284
O25   O     O_3   0.726809 0.319214 0.662763 -0.580482
O26   O     O_2   0.806150 0.327840 0.473120 -0.464013
O27   O     O_3   0.073640 0.373350 0.561550 -0.504014
O28   O     O_2   0.988975 0.244049 0.520400 -0.448382
P1    P     P_3+3 0.084800 0.558370 0.611580 0.995463
P2    P     P_3+3 0.628800 0.338360 0.458800 0.989119
P3    P     P_3+3 0.106416 0.280678 0.560365 1.013040
P4    P     P_3+3 0.104900 0.441570 0.388420 1.002632
P5    P     P_3+3 0.096607 0.719716 0.436827 1.020792
P6    P     P_3+3 0.660964 0.406819 0.650996 0.989197
P7    P     P_3+3 0.568924 0.673787 0.542432 0.957743
P8    P     P_3+3 0.530055 0.589935 0.348645 1.068618
S1    S     S_3+6 0.781501 0.133449 0.634287 -0.016414
O29   O     O_2   0.825143 0.136204 0.581101 -0.309458
O30   O     O_2   0.930294 0.145660 0.667787 -0.232390
O31   O     O_3   0.719862 0.051549 0.640356 -0.447362
H55   H     H_    0.629957 0.044190 0.614866 0.338226
S2    S     S_3+6 0.581537 0.206311 0.716085 0.008361
O32   O     O_2   0.477654 0.273408 0.729848 -0.285654
O33   O     O_2   0.491357 0.143152 0.726867 -0.245882
O34   O     O_3   0.755986 0.209385 0.751275 -0.468192
H56   H     H_    0.784485 0.159373 0.758185 0.387001
O35   O     O_3   0.385842 0.826955 0.373603 -0.666718
H57   H     H_    0.461999 0.843092 0.401653 0.299034
S3    S     S_3+6 0.021331 0.289259 0.116065 0.071209
O36   O     O_2   0.854600 0.268765 0.127333 -0.143195
O37   O     O_2   0.095851 0.232377 0.079120 -0.195057
O38   O     O_3   0.139926 0.292937 0.168834 -0.453296
H58   H     H_    0.243874 0.310669 0.159591 0.329175
S4    S     S_3+6 0.889009 0.317105 0.000050 -0.006638
O39   O     O_2   0.983012 0.247840 0.984244 -0.220689
O40   O     O_2   0.742966 0.301273 0.027422 -0.208852
O41   O     O_3   0.822908 0.356170 0.948929 -0.529919
H59   H     H_    0.755953 0.320543 0.929059 0.378202
S5    S     S_3+6 0.635348 0.590848 0.223678 -0.069771
O42   O     O_2   0.682941 0.665630 0.219591 -0.312621
O43   O     O_2   0.649975 0.547722 0.173637 -0.290399
O44   O     O_3   0.438723 0.594473 0.238342 -0.490084
H60   H     H_    0.380486 0.624300 0.214235 0.363063

loop_
_geom_bond_atom_site_label_1
_geom_bond_atom_site_label_2
_ccdc_geom_bond_type
C25   C46   A    
C66   H12   S    
O9    P5    S    
C53   C54   D    
C23   H52   S    
O44   H60   S    
C11   S5    S    
C14   P4    S    
C17   C18   A    
C22   H44   S    
C23   H50   S    
C55   N6    A    
O1    P1    D    
C12   H31   S    
S1    O29   D    
O34   H56   S    
O38   H58   S    
C57   N4    A    
C6    H27   S    
C56   H6    S    
C23   H22   S    
O4    P4    D    
C11   C16   D    
C66   H13   S    
C39   N2    S    
C33   N2    Am   
O26   P2    D    
Ba1   O1    S    
C55   N3    A    
C3    C4    S    
C3    O15   S    
C60   P5    S    
S2    O32   D    
C5    H24   S    
C57   N5    A    
C44   H37   S    
C10   C20   A    
C48   H42   S    
C22   C37   D    
C4    H20   S    
C34   C45   S    
C8    H30   S    
C49   C54   D    
Ba1   O27   S    
C15   H33   S    
S4    O39   D    
S5    O44   S    
C54   P2    S    
C52   C53   S    
C25   C42   A    
C56   C64   S    
C46   H38   S    
O35   H57   S    
C51   H45   S    
C14   C15   D    
S3    O37   D    
C17   C41   A    
C28   H35   S    
Ba2   O4    S    
Ba1   O8    S    
C7    C8    S    
C16   N1    S    
C12   O3    S    
C3    H17   S    
C13   C21   S    
S3    O38   S    
C50   P3    S    
C19   S3    S    
C2    O25   S    
C64   H8    S    
S1    O30   D    
O16   P8    D    
C53   H46   S    
C65   H10   S    
Ba1   O5    S    
O15   P7    S    
C2    H1    S    
C32   O21   D    
C56   O24   S    
C43   S4    S    
C31   C32   A    
C47   H40   S    
C19   C43   A    
C52   C57   S    
O22   P6    S    
C9    C18   A    
Ba2   O5    S    
C2    H15   S    
O27   P3    S    
C49   C50   S    
O31   H55   S    
C13   P8    S    
O11   P5    S    
C17   C20   A    
C65   H11   S    
C5    C6    S    
C37   C38   D    
C51   C52   D    
Ba2   O8    S    
C4    H19   S    
C65   C66   S    
C27   H36   S    
C58   C59   A    
C40   C43   A    
C34   H54   S    
C41   C42   A    
C45   H2    S    
C35   C36   S    
O12   P1    S    
C22   C36   S    
C29   C30   A    
C26   C30   A    
C28   C29   A    
O23   P6    D    
C5    H23   S    
C60   C61   A    
C15   C16   S    
C63   H51   S    
C6    H26   S    
Ba1   O22   S    
C9    O18   D    
C33   O19   D    
C8    H32   S    
C7    H28   S    
C45   H3    S    
Ba1   O12   S    
C7    H29   S    
C61   H48   S    
C38   C39   S    
C20   C44   A    
S1    O31   S    
C11   C13   S    
N3    N4    A    
Ba2   O14   S    
C29   C33   A    
C65   O2    S    
C40   C41   A    
C3    H18   S    
N5    N6    A    
C34   O7    S    
C12   H39   S    
O14   P7    D    
C50   C51   S    
C1    S1    S    
C55   C62   S    
C42   C48   A    
C8    O35   S    
C64   H9    S    
O24   P1    S    
O3    P3    S    
C32   N2    Am   
O7    P4    S    
C60   C63   A    
O8    P7    S    
C59   P7    S    
Ba2   O9    S    
O28   P3    D    
C9    N1    Am   
C6    H25   S    
Ba2   O6    S    
C1    S2    S    
C38   H41   S    
O17   P8    S    
C14   C21   D    
C4    H21   S    
C21   H43   S    
C44   C48   A    
C24   C26   A    
C58   C62   A    
O25   P6    S    
O2    P2    S    
O5    P4    S    
Ba2   O12   S    
C30   C31   A    
C10   O20   D    
Ba1   P1    S    
C34   H53   S    
C66   H14   S    
S5    O42   D    
C12   C23   S    
C5    O11   S    
Ba1   P2    S    
O41   H59   S    
C35   H34   S    
C10   N1    Am   
S2    O33   D    
C46   C47   A    
C64   H7    S    
Ba1   Ba2   S    
C7    O17   S    
C49   H49   S    
O6    P8    S    
O10   P5    D    
C24   C40   A    
C35   C39   D    
Ba1   O26   S    
S4    O40   D    
C45   H4    S    
S5    O43   D    
Ba1   O13   S    
C27   C28   A    
C61   C62   A    
C59   C63   A    
O13   P2    S    
C36   P6    S    
C18   C19   A    
C24   C27   A    
Ba2   P4    S    
S3    O36   D    
C1    H16   S    
Ba2   O13   S    
C58   H47   S    
C31   C47   A    
S4    O41   S    
C37   P1    S    
C1    C2    S    
C56   H5    S    
C25   C26   A    
S2    O34   S    
