data_mof_unit_2660.cif
_audit_creation_date              2013-03-05T16:04:11-0500
_audit_creation_method            fapswitch 2.2
_symmetry_space_group_name_H-M    P1
_symmetry_Int_Tables_number       1
_space_group_crystal_system       triclinic
_cell_length_a                    19.511629
_cell_length_b                    6.924867
_cell_length_c                    17.704767
_cell_angle_alpha                 89.998483
_cell_angle_beta                  109.039397
_cell_angle_gamma                 90.002461
_cell_volume                      2261.32147723

loop_
_atom_site_label
_atom_site_type_symbol
_atom_site_description
_atom_site_fract_x
_atom_site_fract_y
_atom_site_fract_z
_atom_type_partial_charge
O1    O     O_R   0.561710 0.369960 0.440200 -0.590820
O2    O     O_R   0.061710 0.630040 0.940200 -0.596442
O3    O     O_R   0.412630 0.033330 0.406330 -0.603335
O4    O     O_R   0.912630 0.966670 0.906330 -0.605049
O5    O     O_R   0.438290 0.869790 0.559800 -0.602674
O6    O     O_R   0.938290 0.130210 0.059800 -0.602476
C1    C     C_R   0.384571 0.202809 0.383701 0.954006
C2    C     C_R   0.884576 0.797186 0.883690 0.953020
O7    O     O_R   0.559570 0.039810 0.430640 -0.596264
O8    O     O_R   0.059570 0.960190 0.930640 -0.590816
O9    O     O_R   0.586280 0.876320 0.584290 -0.561054
O10   O     O_R   0.086280 0.123680 0.084290 -0.559384
C3    C     C_R   0.580923 0.209029 0.415387 1.014503
C4    C     C_R   0.081074 0.790976 0.915532 1.012370
O11   O     O_R   0.413720 0.363440 0.415710 -0.601940
O12   O     O_R   0.913720 0.636560 0.915710 -0.600272
O13   O     O_3   0.508590 0.205630 0.550380 -0.260437
O14   O     O_3   0.008590 0.794370 0.050380 -0.259551
V1    V     V_3+5 0.498410 0.928130 0.490650 1.182334
V2    V     V_3+5 0.998410 0.071870 0.990650 1.184216
O15   O     O_R   0.587370 0.546990 0.593670 -0.572231
O16   O     O_R   0.087370 0.453010 0.093670 -0.573764
C5    C     C_R   0.616444 0.716697 0.615293 0.996903
C6    C     C_R   0.116436 0.283302 0.115307 0.995683
O17   O     O_R   0.440430 0.540520 0.569360 -0.604588
O18   O     O_R   0.940430 0.459480 0.069360 -0.605113
C7    C     C_R   0.418972 0.709300 0.584572 0.909717
C8    C     C_R   0.918829 0.290687 0.084437 0.909889
V3    V     V_3+5 0.501590 0.428960 0.509350 1.187280
V4    V     V_3+5 0.001590 0.571040 0.009350 1.185926
O19   O     O_3   0.491410 0.701330 0.449620 -0.286777
O20   O     O_3   0.991410 0.298670 0.949620 -0.286018
C9    C     C_R   0.314461 0.906747 0.715344 -0.142013
C10   C     C_R   0.785933 0.095890 0.182201 -0.151135
H1    H     H_    0.310231 0.043269 0.743244 0.106493
H2    H     H_    0.757147 0.961926 0.181434 0.102505
C11   C     C_R   0.360773 0.895369 0.669479 -0.157398
C12   C     C_R   0.832784 0.107099 0.136991 -0.150596
H3    H     H_    0.389804 0.023933 0.662601 0.130859
H4    H     H_    0.839187 0.980817 0.103814 0.127066
C13   C     C_R   0.370266 0.720162 0.633930 -0.125428
C14   C     C_R   0.869803 0.279458 0.133479 -0.127721
C15   C     C_R   0.331903 0.556755 0.645077 -0.157783
C16   C     C_R   0.859031 0.440139 0.176834 -0.162360
H5    H     H_    0.337360 0.419947 0.617927 0.123943
H6    H     H_    0.886902 0.574915 0.175868 0.130462
C17   C     C_R   0.284704 0.568734 0.689961 -0.144787
C18   C     C_R   0.812896 0.428206 0.223000 -0.139511
H7    H     H_    0.254708 0.440769 0.695141 0.099016
H8    H     H_    0.807552 0.553849 0.256999 0.105845
C19   C     C_R   0.275331 0.743885 0.726050 0.115322
C20   C     C_R   0.775348 0.255999 0.226214 0.116454
C21   C     C_R   0.214926 0.596845 0.818967 -0.140015
C22   C     C_R   0.685676 0.406028 0.284803 -0.134320
H9    H     H_    0.244022 0.463223 0.820159 0.111022
H10   H     H_    0.689683 0.542208 0.256545 0.099751
C23   C     C_R   0.167868 0.607972 0.863929 -0.104938
C24   C     C_R   0.639150 0.394698 0.330417 -0.138962
H11   H     H_    0.161648 0.481980 0.897370 0.138128
H12   H     H_    0.609739 0.522984 0.336766 0.128920
C25   C     C_R   0.130385 0.779880 0.866834 -0.137691
C26   C     C_R   0.629896 0.219839 0.366348 -0.149451
C27   C     C_R   0.141022 0.940305 0.823267 -0.122919
C28   C     C_R   0.668816 0.056812 0.355973 -0.076728
H13   H     H_    0.112849 0.074779 0.823836 0.124332
H14   H     H_    0.663630 0.920372 0.383543 0.137215
C29   C     C_R   0.187349 0.928420 0.777327 -0.132633
C30   C     C_R   0.716213 0.068755 0.311321 -0.138786
C31   C     C_R   0.225258 0.756561 0.774595 0.103251
C32   C     C_R   0.725258 0.243484 0.274741 0.102090
C33   C     C_R   0.760868 0.653990 0.818159 0.166986
C34   C     C_R   0.260833 0.345866 0.318209 0.167025
C35   C     C_R   0.815137 0.785323 0.816979 -0.243855
C36   C     C_R   0.315123 0.214643 0.317007 -0.243340
C37   C     C_R   0.800799 0.906107 0.749723 -0.281734
C38   C     C_R   0.300779 0.093861 0.249753 -0.282352
C39   C     C_R   0.737499 0.881618 0.682644 0.386229
C40   C     C_R   0.237472 0.118328 0.182682 0.384748
C41   C     C_R   0.685384 0.737099 0.682954 -0.373746
C42   C     C_R   0.185367 0.262878 0.182983 -0.373936
C43   C     C_R   0.697488 0.632476 0.753794 0.121356
C44   C     C_R   0.197459 0.367391 0.253847 0.122057
C45   C     C_3   0.694615 0.420634 0.768225 -0.427969
C46   C     C_3   0.194509 0.579157 0.268387 -0.428007
C47   C     C_3   0.764132 0.444527 0.838642 -0.463907
C48   C     C_3   0.264028 0.555238 0.338812 -0.464280
H15   H     H_    0.702067 0.332423 0.719266 0.243113
H16   H     H_    0.201945 0.667615 0.219483 0.242918
H17   H     H_    0.647138 0.380431 0.786479 0.180537
H18   H     H_    0.147009 0.619077 0.286647 0.180475
H19   H     H_    0.811444 0.370019 0.829802 0.213089
H20   H     H_    0.311322 0.629976 0.330029 0.213129
H21   H     H_    0.756595 0.418430 0.897383 0.178148
H22   H     H_    0.256470 0.581007 0.397565 0.178002
N1    N     N_R   0.731414 0.989458 0.611731 0.221244
O21   O     O_R   0.777828 0.959570 0.574363 -0.410078
O22   O     O_R   0.690232 0.141623 0.594189 -0.422401
N2    N     N_R   0.231350 0.010348 0.111800 0.222474
O23   O     O_R   0.190222 0.858060 0.094378 -0.422851
O24   O     O_R   0.277725 0.040186 0.074372 -0.405907
H23   H     H_    0.192506 0.053766 0.743073 0.097856
H24   H     H_    0.746582 0.941112 0.306659 0.104448
H25   H     H_    0.840813 0.011975 0.746959 0.163098
H26   H     H_    0.340789 0.987994 0.246984 0.163092

loop_
_geom_bond_atom_site_label_1
_geom_bond_atom_site_label_2
_geom_bond_distance
_ccdc_geom_bond_type
C24   C26   1.406554 A    
C45   H15   1.108105 S    
C27   H13   1.083095 S    
C38   H26   1.083655 S    
O13   V3    1.695091 S    
C21   H9    1.082213 S    
N1    O21   1.300613 A    
O4    C2    1.301757 A    
V1    O19   1.717066 S    
C47   H19   1.112281 S    
C17   H7    1.082208 S    
O9    V1    1.990545 S    
C14   C16   1.405989 A    
C28   C30   1.401433 A    
C38   C40   1.416889 A    
C12   C14   1.406912 A    
O3    C1    1.301748 A    
V2    O20   1.717042 S    
C40   C42   1.428014 A    
C23   H11   1.083204 S    
O12   V4    2.009828 S    
C8    C14   1.488916 S    
C25   C27   1.405898 A    
O7    C3    1.301157 A    
C26   C28   1.405712 A    
C48   H22   1.111618 S    
O13   V1    2.171069 S    
O5    C7    1.295133 A    
C47   H21   1.111593 S    
C6    C42   1.487669 S    
O6    C8    1.295195 A    
C3    C26   1.487875 S    
C16   H6    1.083107 S    
C40   N2    1.431979 S    
O3    V1    1.982551 S    
O14   V4    1.695116 S    
V4    O20   2.139688 S    
C10   H2    1.082230 S    
C18   H8    1.082212 S    
C21   C31   1.408661 A    
C2    O12   1.292929 A    
C33   C47   1.491455 S    
C37   H25   1.083655 S    
C13   C15   1.405703 A    
C46   H18   1.111487 S    
O18   C8    1.299420 A    
C43   C45   1.493245 S    
O7    V1    1.994505 S    
O11   V3    2.009814 S    
C1    C36   1.480956 S    
C27   C29   1.401805 A    
C39   C41   1.427982 A    
O17   V3    1.994243 S    
C45   H17   1.111483 S    
C22   H10   1.082232 S    
C42   C44   1.400159 A    
O8    C4    1.301517 A    
O8    V2    1.994566 S    
C33   C35   1.401117 A    
C21   C23   1.399845 A    
C17   C19   1.410364 A    
C1    O11   1.292922 A    
C4    C25   1.488705 S    
O15   V3    2.016866 S    
C39   N1    1.432036 S    
C9    C11   1.400306 A    
C9    C19   1.408939 A    
C29   C31   1.410396 A    
C28   H14   1.083232 S    
C37   C39   1.416901 A    
C7    C13   1.488054 S    
C22   C32   1.408913 A    
O10   V2    1.990534 S    
O1    V3    1.994713 S    
C15   H5    1.083204 S    
C36   C38   1.406524 A    
C34   C36   1.401089 A    
C45   C47   1.522555 S    
O18   V4    1.994184 S    
C44   C46   1.493239 S    
O15   C5    1.306804 A    
O16   C6    1.306821 A    
O1    C3    1.297289 A    
C35   C37   1.406548 A    
C29   H23   1.082187 S    
C41   C43   1.400140 A    
C22   C24   1.400253 A    
O16   V4    2.016892 S    
C10   C12   1.399902 A    
C10   C20   1.408628 A    
C46   H16   1.108093 S    
C30   H24   1.082221 S    
C34   C48   1.491400 S    
N1    O22   1.299879 A    
C23   C25   1.406866 A    
O5    V1    1.993747 S    
O17   C7    1.299035 A    
O6    V2    1.993782 S    
O10   C6    1.287926 A    
N2    O24   1.300659 A    
O2    V4    1.994678 S    
C11   H3    1.083175 S    
C48   H20   1.112281 S    
C12   H4    1.083184 S    
C15   C17   1.401403 A    
O9    C5    1.287929 A    
C2    C35   1.481006 S    
C9    H1    1.082221 S    
O14   V2    2.171035 S    
C11   C13   1.406631 A    
O2    C4    1.297352 A    
C20   C32   1.499556 S    
O4    V2    1.982528 S    
C18   C20   1.410379 A    
V3    O19   2.139655 S    
N2    O23   1.299880 A    
C30   C32   1.410370 A    
C46   C48   1.522670 S    
C19   C31   1.499605 S    
C5    C41   1.487636 S    
C24   H12   1.083176 S    
C34   C44   1.389401 A    
C16   C18   1.401865 A    
C33   C43   1.389482 A    
