data_mof_unit_841.cif
_audit_creation_date              2012-12-10T17:37:50-0500
_audit_creation_method            fapswitch 2.2
_symmetry_space_group_name_H-M    P1
_symmetry_Int_Tables_number       1
_space_group_crystal_system       triclinic
_cell_length_a                    12.31923
_cell_length_b                    13.212344
_cell_length_c                    17.321076
_cell_angle_alpha                 105.041015
_cell_angle_beta                  74.669309
_cell_angle_gamma                 116.688795
_cell_volume                      2396.64574069

loop_
_atom_site_label
_atom_site_type_symbol
_atom_type_description
_atom_site_fract_x
_atom_site_fract_y
_atom_site_fract_z
_atom_type_partial_charge
C1    C     C_R   0.144553 0.713518 0.507124 0.777744
C2    C     C_R   0.894288 0.535268 0.797692 -0.192792
C3    C     C_R   0.918283 0.477632 0.154237 -0.145001
C4    C     C_R   0.915777 0.485801 0.235937 -0.201510
C5    C     C_R   0.117800 0.481716 0.204511 -0.177935
C6    C     C_R   0.122335 0.474625 0.121714 0.024959
C7    C     C_R   0.021248 0.473394 0.096791 0.094269
C8    C     C_2   0.982792 0.532820 0.987975 -0.217669
C9    C     C_2   0.021280 0.467023 0.011109 -0.248458
C10   C     C_R   0.015537 0.488285 0.261612 -0.076804
C11   C     C_R   0.734262 0.976461 0.390957 -0.187057
C12   C     C_R   0.988721 0.505278 0.652289 0.788685
C13   C     C_R   0.774553 0.164970 0.470917 -0.050042
C14   C     C_R   0.179090 0.915862 0.560229 -0.186712
C15   C     C_R   0.256371 0.031181 0.575932 -0.143946
C16   C     C_R   0.382300 0.068371 0.547128 -0.180751
C17   C     C_R   0.433427 0.990527 0.498851 0.079983
C18   C     C_R   0.352092 0.875486 0.474932 0.079636
C19   C     C_R   0.562446 0.023328 0.472770 0.073731
C20   C     C_R   0.607113 0.944939 0.417180 0.163081
C21   C     C_R   0.524432 0.837022 0.386871 -0.234165
C22   C     C_R   0.398800 0.803312 0.414311 -0.194244
C23   C     C_R   0.855907 0.286367 0.487932 0.803874
C24   C     C_R   0.648791 0.131581 0.500919 -0.251322
C25   C     C_R   0.817738 0.086431 0.417274 -0.192656
C26   C     C_R   0.225913 0.836505 0.511656 -0.101850
C27   C     C_R   0.641348 0.673905 0.629819 -0.298591
C28   C     C_R   0.250388 0.352362 0.389696 0.079355
C29   C     C_R   0.349166 0.320222 0.365982 -0.242409
C30   C     C_R   0.448828 0.375823 0.407421 -0.195645
C31   C     C_R   0.450958 0.464906 0.473598 -0.006127
C32   C     C_R   0.347273 0.494744 0.495779 0.288608
C33   C     C_R   0.551343 0.525194 0.518656 -0.036389
C34   C     C_R   0.011825 0.495338 0.347745 0.794547
C35   C     C_R   0.545504 0.613484 0.584520 0.177209
C36   C     C_R   0.443996 0.641063 0.605098 -0.285666
C37   C     C_R   0.347288 0.583027 0.561926 -0.191614
C38   C     C_R   0.658053 0.502262 0.501693 0.018028
C39   C     C_R   0.743185 0.647018 0.610108 0.068897
C40   C     C_R   0.987475 0.513891 0.738294 -0.031191
C41   C     C_R   0.082201 0.503547 0.761684 -0.208890
C42   C     C_R   0.082413 0.511863 0.843019 -0.147353
C43   C     C_R   0.987072 0.529369 0.902191 0.188082
C44   C     C_R   0.894594 0.543548 0.879414 -0.163895
Cu1   Cu    Cu3+1 0.900140 0.524980 0.518800 0.936933
Cu2   Cu    Cu3+1 0.099860 0.475020 0.481200 0.926462
H1    H     H_    0.156626 0.489407 0.717296 0.159265
H2    H     H_    0.915132 0.111379 0.393248 0.148988
H3    H     H_    0.556970 0.778191 0.341705 0.151052
H4    H     H_    0.768833 0.917087 0.348357 0.136204
H5    H     H_    0.620878 0.192756 0.545868 0.148633
H6    H     H_    0.082676 0.888427 0.587825 0.152123
H7    H     H_    0.436370 0.159055 0.562211 0.130008
H8    H     H_    0.218974 0.091806 0.612841 0.143127
H9    H     H_    0.339156 0.721019 0.385480 0.178070
H10   H     H_    0.817496 0.693404 0.644798 0.120321
H11   H     H_    0.835006 0.488886 0.278844 0.154854
H12   H     H_    0.438907 0.708402 0.655530 0.155082
H13   H     H_    0.637442 0.741537 0.680236 0.138267
H14   H     H_    0.670408 0.436864 0.452673 0.121581
H15   H     H_    0.173454 0.308592 0.357216 0.127039
H16   H     H_    0.522642 0.347341 0.386474 0.135666
H17   H     H_    0.348453 0.251874 0.315291 0.149793
H18   H     H_    0.273991 0.610483 0.583091 0.207654
H19   H     H_    0.195038 0.483968 0.224725 0.190914
H20   H     H_    0.055371 0.408729 0.966424 0.143791
H21   H     H_    0.821391 0.558555 0.924717 0.133812
H22   H     H_    0.838839 0.473685 0.135789 0.142173
H23   H     H_    0.821032 0.544940 0.781109 0.154187
H24   H     H_    0.945203 0.588662 0.032816 0.152731
H25   H     H_    0.157682 0.505326 0.859433 0.124163
N1    N     N_R   0.749710 0.562810 0.547300 -0.180209
N2    N     N_R   0.249640 0.437820 0.453210 -0.209019
O1    O     O_R   0.025490 0.682370 0.523640 -0.579097
O2    O     O_R   0.194150 0.640180 0.491890 -0.604718
O3    O     O_R   0.905900 0.523560 0.631310 -0.586368
O4    O     O_R   0.074570 0.481370 0.599560 -0.603012
O5    O     O_R   0.805850 0.359820 0.508110 -0.587284
O6    O     O_R   0.974510 0.317630 0.476360 -0.585939
O7    O     O_R   0.925430 0.518630 0.400440 -0.584846
O8    O     O_R   0.094100 0.476440 0.368690 -0.598898
C45   C     C_2   0.234555 0.473109 0.063090 0.330623
H26   H     H_    0.245953 0.479354 0.000051 0.066059
O9    O     O_2   0.316970 0.465643 0.084751 -0.550188

loop_
_geom_bond_atom_site_label_1
_geom_bond_atom_site_label_2
_ccdc_geom_bond_type
C29   H17   S    
C6    C45   S    
C41   C42   A    
C35   C36   A    
C18   C26   A    
C8    C43   S    
C21   H3    S    
Cu1   Cu2   S    
Cu1   O3    S    
C5    C6    A    
C1    O1    A    
C36   C37   A    
C3    H22   S    
C36   H12   S    
Cu2   O6    S    
C11   C25   A    
C15   C16   A    
C13   C23   S    
C9    H20   S    
C34   O7    A    
C16   H7    S    
C14   H6    S    
C19   C20   A    
C2    C44   A    
C16   C17   A    
C4    H11   S    
C39   N1    A    
C31   C33   A    
Cu1   O5    S    
C34   O8    A    
C2    H23   S    
C28   H15   S    
C24   H5    S    
C21   C22   A    
Cu1   N1    S    
C13   C25   A    
C28   N2    A    
Cu2   O2    S    
C38   N1    A    
C11   C20   A    
C1    O2    A    
C15   H8    S    
C5    H19   S    
C27   C39   A    
C32   N2    A    
C8    C9    D    
C27   C35   A    
C13   C24   A    
Cu1   O1    S    
C12   C40   S    
C43   C44   A    
C29   C30   A    
Cu2   O8    S    
C39   H10   S    
C12   O4    A    
C17   C18   A    
C41   H1    S    
C10   C34   S    
C32   C37   A    
C14   C26   A    
C25   H2    S    
C6    C7    A    
C38   H14   S    
C40   C41   A    
C45   O9    D    
C12   O3    A    
C1    C26   S    
C42   C43   A    
C4    C10   A    
C3    C4    A    
C37   H18   S    
C7    C9    S    
C28   C29   A    
C18   C22   A    
C8    H24   S    
C31   C32   A    
Cu2   O4    S    
C22   H9    S    
C3    C7    A    
C33   C38   A    
C30   H16   S    
C19   C24   A    
C5    C10   A    
C11   H4    S    
C27   H13   S    
C30   C31   A    
C42   H25   S    
C33   C35   A    
Cu1   O7    S    
C23   O5    A    
C17   C19   A    
C2    C40   A    
C20   C21   A    
C45   H26   S    
C14   C15   A    
C44   H21   S    
C23   O6    A    
Cu2   N2    S    
