data_mof_unit_1790.cif
_audit_creation_date              2012-12-11T16:06:31-0500
_audit_creation_method            fapswitch 2.2
_symmetry_space_group_name_H-M    P1
_symmetry_Int_Tables_number       1
_space_group_crystal_system       triclinic
_cell_length_a                    7.201016
_cell_length_b                    14.459391
_cell_length_c                    15.790102
_cell_angle_alpha                 90.000127
_cell_angle_beta                  90.000321
_cell_angle_gamma                 90.0
_cell_volume                      1644.10183126

loop_
_atom_site_label
_atom_site_type_symbol
_atom_type_description
_atom_site_fract_x
_atom_site_fract_y
_atom_site_fract_z
_atom_type_partial_charge
O1    O     O_R   0.388780 0.834790 0.412340 -0.536123
O2    O     O_R   0.111220 0.165210 0.912340 -0.536125
O3    O     O_R   0.888780 0.665210 0.587660 -0.536123
O4    O     O_R   0.611220 0.334790 0.087660 -0.536125
O5    O     O_R   0.059040 0.845930 0.587040 -0.548376
O6    O     O_R   0.440960 0.154070 0.087040 -0.548379
O7    O     O_R   0.559040 0.654070 0.412960 -0.548377
O8    O     O_R   0.940960 0.345930 0.912960 -0.548379
C1    C     C_R   0.228051 0.867977 0.615384 0.706356
C2    C     C_R   0.271949 0.132022 0.115384 0.706352
C3    C     C_R   0.728051 0.632022 0.384616 0.706353
C4    C     C_R   0.771949 0.367978 0.884616 0.706357
O9    O     O_R   0.059070 0.845930 0.412970 -0.539620
O10   O     O_R   0.440930 0.154070 0.912970 -0.539618
O11   O     O_R   0.559070 0.654070 0.587030 -0.539620
O12   O     O_R   0.940930 0.345930 0.087030 -0.539619
O13   O     O_R   0.888760 0.665210 0.412340 -0.536631
O14   O     O_R   0.611240 0.334790 0.912340 -0.536627
O15   O     O_R   0.388760 0.834790 0.587660 -0.536632
O16   O     O_R   0.111240 0.165210 0.087660 -0.536628
C5    C     C_R   0.227685 0.868003 0.384686 0.671058
C6    C     C_R   0.272314 0.131997 0.884686 0.671060
C7    C     C_R   0.727686 0.631997 0.615314 0.671060
C8    C     C_R   0.772315 0.368003 0.115314 0.671057
O17   O     O_3   0.222280 0.690700 0.500000 -0.377000
O18   O     O_3   0.277720 0.309300 0.000000 -0.377000
O19   O     O_3   0.722280 0.809300 0.500000 -0.377000
O20   O     O_3   0.777720 0.190700 0.000000 -0.377000
V1    V     V_3+5 0.947430 0.761000 0.500000 1.408996
V2    V     V_3+5 0.552570 0.239000 0.000000 1.408997
V3    V     V_3+5 0.447430 0.739000 0.500000 1.408993
V4    V     V_3+5 0.052570 0.261000 0.000000 1.408997
C9    C     C_3   0.833127 0.604034 0.766272 -0.307537
C10   C     C_3   0.666911 0.395961 0.266277 -0.307556
C11   C     C_3   0.333114 0.895964 0.233726 -0.307541
C12   C     C_3   0.166911 0.104039 0.733723 -0.307556
H1    H     H_    0.975473 0.628115 0.749914 0.181117
H2    H     H_    0.524570 0.371864 0.249926 0.181116
H3    H     H_    0.475458 0.871876 0.250082 0.181117
H4    H     H_    0.024569 0.128134 0.750072 0.181117
H5    H     H_    0.753490 0.665627 0.787878 0.162692
H6    H     H_    0.746579 0.334377 0.287881 0.162694
H7    H     H_    0.253464 0.834374 0.212119 0.162692
H8    H     H_    0.246578 0.165624 0.712120 0.162694
C13   C     C_3   0.845433 0.532419 0.839587 -0.443891
C14   C     C_3   0.654594 0.467578 0.339589 -0.443895
C15   C     C_3   0.345428 0.967580 0.160413 -0.443893
C16   C     C_3   0.154600 0.032423 0.660409 -0.443894
H9    H     H_    0.771050 0.559592 0.896133 0.165964
H10   H     H_    0.728989 0.440413 0.396135 0.165964
H11   H     H_    0.271046 0.940410 0.103865 0.165963
H12   H     H_    0.229003 0.059588 0.603865 0.165964
H13   H     H_    0.993427 0.522885 0.857914 0.153952
H14   H     H_    0.506602 0.477104 0.357919 0.153952
H15   H     H_    0.493422 0.977113 0.142088 0.153952
H16   H     H_    0.006609 0.022898 0.642075 0.153952
H17   H     H_    0.994651 0.496509 0.640206 0.107815
H18   H     H_    0.505312 0.503472 0.140223 0.107818
H19   H     H_    0.494665 0.003485 0.359788 0.107815
H20   H     H_    0.005312 0.996528 0.859777 0.107819
H21   H     H_    0.015661 0.393434 0.749204 0.044588
H22   H     H_    0.484317 0.606555 0.249214 0.044589
H23   H     H_    0.515665 0.106566 0.250795 0.044587
H24   H     H_    0.984311 0.893450 0.750782 0.044591
C17   C     C_3   0.852324 0.475170 0.659519 -0.354402
C18   C     C_3   0.647641 0.524822 0.159524 -0.354392
C19   C     C_3   0.352336 0.024827 0.340480 -0.354395
C20   C     C_3   0.147640 0.975178 0.840476 -0.354397
C21   C     C_3   0.541895 0.527611 0.713713 -0.322377
C22   C     C_3   0.958103 0.472405 0.213700 -0.322378
C23   C     C_3   0.041895 0.972395 0.286291 -0.322377
C24   C     C_3   0.458103 0.027594 0.786302 -0.322376
C25   C     C_3   0.738206 0.561377 0.686891 0.028158
C26   C     C_3   0.761795 0.438624 0.186890 0.028171
C27   C     C_3   0.238205 0.938623 0.313110 0.028166
C28   C     C_3   0.261794 0.061376 0.813110 0.028171
H25   H     H_    0.470044 0.495343 0.658719 0.150666
H26   H     H_    0.029922 0.504681 0.158703 0.150664
H27   H     H_    0.970056 0.004667 0.341285 0.150666
H28   H     H_    0.529923 0.995320 0.841300 0.150662
H29   H     H_    0.456006 0.587431 0.734624 0.167874
H30   H     H_    0.044020 0.412593 0.234604 0.167873
H31   H     H_    0.955994 0.912577 0.265383 0.167871
H32   H     H_    0.544020 0.087406 0.765397 0.167875
C29   C     C_3   0.760026 0.438303 0.812680 0.018747
C30   C     C_3   0.739973 0.561698 0.312679 0.018749
C31   C     C_3   0.260027 0.061697 0.187321 0.018747
C32   C     C_3   0.239974 0.938302 0.687321 0.018750
C33   C     C_3   0.866632 0.403698 0.733017 0.512370
C34   C     C_3   0.633342 0.596296 0.233021 0.512370
C35   C     C_3   0.366637 0.096301 0.266982 0.512369
C36   C     C_3   0.133337 0.903705 0.766977 0.512369
C37   C     C_3   0.554339 0.456578 0.786505 -0.289303
C38   C     C_3   0.945658 0.543435 0.286495 -0.289293
C39   C     C_3   0.054339 0.043424 0.213497 -0.289293
C40   C     C_3   0.445658 0.956563 0.713508 -0.289300
H33   H     H_    0.474499 0.483041 0.841814 0.139771
H34   H     H_    0.025513 0.516974 0.341800 0.139774
H35   H     H_    0.974498 0.016960 0.158188 0.139771
H36   H     H_    0.525519 0.983021 0.658204 0.139775
H37   H     H_    0.487175 0.390914 0.766096 0.180736
H38   H     H_    0.012803 0.609103 0.266087 0.180735
H39   H     H_    0.987178 0.109090 0.233903 0.180735
H40   H     H_    0.512798 0.890894 0.733919 0.180735
H41   H     H_    0.786154 0.442583 0.603248 0.167834
H42   H     H_    0.713778 0.557411 0.103246 0.167827
H43   H     H_    0.286179 0.057415 0.396754 0.167830
H44   H     H_    0.213779 0.942587 0.896752 0.167829
F1    F     F_    0.796585 0.319077 0.706763 -0.713437
F2    F     F_    0.703370 0.680917 0.206762 -0.713440
F3    F     F_    0.296591 0.180921 0.293238 -0.713437
F4    F     F_    0.203356 0.819081 0.793237 -0.713440

loop_
_geom_bond_atom_site_label_1
_geom_bond_atom_site_label_2
_ccdc_geom_bond_type
O17   V3    S    
C32   C40   S    
O1    C5    A    
C31   C35   S    
O19   V1    S    
C9    C13   S    
C21   H25   S    
C10   H6    S    
C6    C28   S    
C24   C28   S    
C11   C15   S    
C23   H27   S    
C19   C27   S    
C17   C25   S    
C18   C34   S    
O18   V4    S    
C11   C27   S    
C4    C29   S    
O9    V1    S    
C22   C38   S    
O10   V2    S    
C16   H12   S    
C21   C37   S    
C1    C32   S    
O4    C8    A    
C39   H35   S    
C22   H26   S    
C38   H34   S    
C3    C30   S    
C18   C26   S    
C33   F1    S    
O1    V3    S    
O13   V1    S    
O2    V4    S    
C35   F3    S    
O3    V1    S    
C22   C26   S    
C30   C38   S    
H19   C19   S    
C7    C25   S    
O3    C7    A    
C1    O15   A    
C32   C36   S    
C39   H39   S    
C31   C39   S    
O2    C6    A    
C16   C32   S    
C21   C25   S    
C10   C14   S    
C11   H7    S    
C23   H31   S    
O11   C7    A    
C15   H15   S    
O15   V3    S    
O12   C8    A    
C29   C37   S    
C18   H42   S    
C17   H41   S    
H21   C33   S    
O7    C3    A    
O5    V1    S    
C2    C31   S    
O7    V3    S    
O8    V4    S    
C12   H4    S    
C30   C34   S    
C37   H37   S    
C29   C33   S    
C36   F4    S    
C15   H11   S    
C9    H1    S    
C15   C31   S    
C11   H3    S    
O5    C1    A    
C13   H9    S    
O8    C4    A    
C14   H14   S    
C19   C35   S    
O9    C5    A    
H20   C20   S    
C24   H32   S    
C10   C26   S    
O14   V2    S    
C9    C25   S    
O6    V2    S    
C40   H40   S    
C12   H8    S    
C20   C28   S    
H24   C36   S    
H23   C35   S    
C37   H33   S    
H18   C18   S    
O16   V4    S    
C16   H16   S    
C5    C27   S    
C3    O13   A    
C10   H2    S    
H17   C17   S    
O6    C2    A    
C8    C26   S    
O11   V3    S    
C17   C33   S    
O12   V4    S    
C14   H10   S    
C13   C29   S    
C9    H5    S    
O10   C6    A    
O20   V2    S    
H22   C34   S    
C24   H28   S    
C23   C27   S    
C19   H43   S    
C2    O16   A    
C40   H36   S    
C20   C36   S    
C12   C16   S    
C22   H30   S    
C21   H29   S    
C13   H13   S    
C24   C40   S    
C12   C28   S    
C23   C39   S    
C38   H38   S    
C4    O14   A    
C34   F2    S    
C20   H44   S    
O4    V2    S    
C14   C30   S    
