data_mof_unit_1117.cif
_audit_creation_date              2012-10-26T21:33:16-0400
_audit_creation_method            fapswitch 2.2
_symmetry_space_group_name_H-M    P1
_symmetry_Int_Tables_number       1
_space_group_crystal_system       triclinic
_cell_length_a                    28.26059
_cell_length_b                    18.470193
_cell_length_c                    17.07748
_cell_angle_alpha                 90.288498
_cell_angle_beta                  59.958088
_cell_angle_gamma                 90.466442
_cell_volume                      7716.29539004

loop_
_atom_site_label
_atom_site_type_symbol
_atom_type_description
_atom_site_fract_x
_atom_site_fract_y
_atom_site_fract_z
_atom_type_partial_charge
C1    C     C_R   0.703524 0.273496 0.674739 0.898055
C2    C     C_R   0.079861 0.498882 0.561215 0.067281
C3    C     C_R   0.193786 0.214183 0.898464 0.024075
C4    C     C_R   0.077891 0.094137 0.929638 0.934424
C5    C     C_R   0.931685 0.894397 0.060648 0.845747
C6    C     C_R   0.922095 0.093978 0.070471 0.932183
C7    C     C_R   0.068668 0.894800 0.938774 0.844649
C8    C     C_R   0.577850 0.594553 0.930113 0.934434
C9    C     C_R   0.431626 0.394401 0.060661 0.856726
C10   C     C_R   0.421988 0.594071 0.070199 0.933312
C11   C     C_R   0.568958 0.394982 0.938567 0.854891
C12   C     C_R   0.522579 0.120049 0.579346 0.108940
C13   C     C_R   0.406043 0.998896 0.481921 0.067780
C14   C     C_R   0.477263 0.879931 0.421258 0.102785
C15   C     C_R   0.427474 0.117400 0.564688 0.103915
C16   C     C_R   0.572413 0.882641 0.435741 0.100720
C17   C     C_R   0.021129 0.627184 0.585439 0.104146
C18   C     C_R   0.959872 0.371455 0.478328 0.102480
C19   C     C_R   0.927343 0.624719 0.566506 0.097861
C20   C     C_R   0.038305 0.368227 0.533019 0.099654
C21   C     C_R   0.485326 0.177441 0.613519 -0.204552
C22   C     C_R   0.514480 0.822497 0.387188 -0.185983
C23   C     C_R   0.437975 0.175894 0.606825 -0.195486
C24   C     C_R   0.593855 0.001140 0.518485 0.068180
C25   C     C_R   0.561875 0.824096 0.393737 -0.186674
C26   C     C_R   0.988716 0.689239 0.604762 -0.200798
C27   C     C_R   0.984913 0.305993 0.477606 -0.188178
C28   C     C_R   0.941562 0.687567 0.597162 -0.192050
C29   C     C_R   0.022249 0.303898 0.508449 -0.187547
C30   C     C_R   0.464077 0.059100 0.531385 0.031964
C31   C     C_R   0.535794 0.940925 0.469103 0.032729
C32   C     C_R   0.511367 0.060086 0.539574 0.030016
C33   C     C_R   0.488493 0.939923 0.460959 0.029707
C34   C     C_R   0.959304 0.562546 0.547455 0.033339
C35   C     C_R   0.077878 0.367819 0.558628 -0.237792
C36   C     C_R   0.015093 0.434076 0.530542 0.032070
C37   C     C_R   0.004840 0.563029 0.560591 0.032615
C38   C     C_R   0.973361 0.435019 0.508535 0.029912
C39   C     C_R   0.945157 0.499311 0.517123 -0.050100
C40   C     C_R   0.033001 0.498698 0.551566 -0.050774
C41   C     C_R   0.452811 0.999226 0.491605 -0.050010
C42   C     C_R   0.547064 0.000801 0.508870 -0.049884
C43   C     C_R   0.888055 0.435949 0.467483 0.061115
C44   C     C_R   0.102085 0.565118 0.570214 0.059080
C45   C     C_R   0.105037 0.432769 0.559367 0.054651
C46   C     C_R   0.881686 0.623060 0.554880 -0.242343
C47   C     C_R   0.871047 0.563049 0.512958 0.052493
C48   C     C_R   0.392215 0.936730 0.448884 0.063173
C49   C     C_R   0.607688 0.063296 0.551526 0.063191
C50   C     C_R   0.627686 0.939794 0.493338 0.052438
C51   C     C_R   0.372242 0.060266 0.506957 0.049986
C52   C     C_R   0.840503 0.436107 0.458066 -0.111034
C53   C     C_R   0.155607 0.564923 0.559812 -0.120862
C54   C     C_R   0.156816 0.434547 0.555420 -0.109480
C55   C     C_R   0.830730 0.563203 0.485448 -0.108507
C56   C     C_R   0.341456 0.935892 0.450007 -0.116599
C57   C     C_R   0.920767 0.373852 0.451314 -0.234464
C58   C     C_R   0.658483 0.064142 0.550281 -0.125052
C59   C     C_R   0.669377 0.937947 0.517135 -0.105370
C60   C     C_R   0.330566 0.062086 0.483105 -0.113732
C61   C     C_R   0.816364 0.500356 0.458753 -0.305869
C62   C     C_R   0.180107 0.499942 0.558032 -0.299689
C63   C     C_R   0.315364 0.999900 0.456495 -0.297066
C64   C     C_R   0.684582 0.000123 0.543766 -0.296682
C65   C     C_3   0.589507 0.214126 0.070830 -0.746554
C66   C     C_3   0.305941 0.543224 0.059288 -0.747034
C67   C     C_3   0.409326 0.213082 0.927026 -0.753640
C68   C     C_R   0.069680 0.628206 0.589500 -0.244879
C69   C     C_3   0.691934 0.547343 0.945817 -0.748525
C70   C     C_3   0.089646 0.712391 0.069256 -0.736955
C71   C     C_3   0.807042 0.026699 0.092735 -0.753469
C72   C     C_3   0.907335 0.711522 0.930449 -0.740224
C73   C     C_3   0.192600 0.027538 0.906083 -0.751318
C74   C     C_R   0.618633 0.883268 0.445777 -0.242176
C75   C     C_R   0.381306 0.116824 0.554482 -0.243474
C76   C     C_R   0.429099 0.878241 0.416382 -0.238322
C77   C     C_R   0.300240 0.735442 0.323523 0.892963
C78   C     C_R   0.570777 0.121759 0.584140 -0.241156
C79   C     C_R   0.720191 0.274498 0.956487 -0.103538
C80   C     C_R   0.280606 0.744502 0.047353 -0.083587
C81   C     C_R   0.279961 0.274933 0.043443 -0.103229
C82   C     C_R   0.718273 0.749150 0.953307 -0.078431
C83   C     C_R   0.219812 0.776874 0.957394 -0.110796
C84   C     C_R   0.778914 0.237975 0.048711 -0.108648
C85   C     C_R   0.778985 0.780374 0.043679 -0.109867
C86   C     C_R   0.221288 0.239445 0.950815 -0.106007
C87   C     C_R   0.769911 0.235860 0.913338 -0.235223
C88   C     C_R   0.296661 0.273331 0.324997 0.921609
C89   C     C_R   0.229955 0.780300 0.092394 -0.248171
C90   C     C_R   0.229713 0.236779 0.086440 -0.235892
C91   C     C_R   0.769849 0.783205 0.907896 -0.251371
C92   C     C_R   0.271057 0.741909 0.912650 -0.238512
C93   C     C_R   0.729922 0.277826 0.091650 -0.228116
C94   C     C_R   0.726326 0.748401 0.089197 -0.240612
C95   C     C_R   0.270636 0.279211 0.908159 -0.233339
C96   C     C_R   0.801690 0.225238 0.954344 0.421884
C97   C     C_R   0.203088 0.803280 0.046419 0.481407
C98   C     C_R   0.197995 0.226723 0.045180 0.422298
C99   C     C_R   0.699568 0.735988 0.676622 0.904980
C100  C     C_R   0.796887 0.805863 0.954001 0.479805
C101  C     C_R   0.303476 0.733602 0.952726 0.485944
C102  C     C_R   0.704476 0.302653 0.044182 0.486652
C103  C     C_R   0.694257 0.740481 0.048383 0.485384
C104  C     C_R   0.296154 0.303635 0.955992 0.486313
C105  C     C_R   0.631012 0.306626 0.955268 0.207766
C106  C     C_R   0.343818 0.658593 0.069357 0.188086
C107  C     C_R   0.369627 0.304942 0.044098 0.209433
C108  C     C_R   0.655414 0.661566 0.931624 0.188019
C109  C     C_R   0.130372 0.806382 0.955517 0.206689
C110  C     C_R   0.203482 0.773520 0.674801 0.899907
C111  C     C_R   0.839761 0.150173 0.077142 0.203297
C112  C     C_R   0.869326 0.805874 0.044493 0.208105
C113  C     C_R   0.160641 0.150823 0.921913 0.202551
C114  C     C_R   0.608592 0.337013 0.904431 -0.158317
C115  C     C_R   0.377858 0.645496 0.107644 -0.136505
C116  C     C_R   0.392398 0.335445 0.094592 -0.161980
C117  C     C_R   0.621774 0.646784 0.892897 -0.140857
C118  C     C_R   0.108083 0.836682 0.904589 -0.156121
C119  C     C_R   0.876882 0.143366 0.110197 -0.110520
C120  C     C_R   0.892391 0.835648 0.094765 -0.160959
C121  C     C_R   0.800310 0.235589 0.323455 0.897776
C122  C     C_R   0.123205 0.143740 0.889647 -0.113369
C123  C     C_R   0.630791 0.320938 0.814563 -0.281332
C124  C     C_R   0.368258 0.680173 0.185368 -0.293180
C125  C     C_R   0.370302 0.319327 0.184481 -0.272463
C126  C     C_R   0.631559 0.680576 0.814797 -0.290900
C127  C     C_R   0.130425 0.820712 0.814653 -0.280945
C128  C     C_R   0.868990 0.181299 0.184934 -0.305078
C129  C     C_R   0.870296 0.819504 0.184598 -0.271307
C130  C     C_R   0.130865 0.181629 0.815291 -0.304948
C131  C     C_R   0.681041 0.289336 0.769711 -0.060082
C132  C     C_R   0.796580 0.773558 0.325043 0.896942
C133  C     C_R   0.324924 0.726060 0.226730 -0.062015
C134  C     C_R   0.319468 0.288509 0.229821 -0.068446
C135  C     C_R   0.674855 0.727124 0.773364 -0.059275
C136  C     C_R   0.180800 0.789429 0.769910 -0.061646
C137  C     C_R   0.824855 0.225780 0.226672 -0.067316
C138  C     C_R   0.819254 0.789342 0.229987 -0.062431
C139  C     C_R   0.175147 0.226457 0.773363 -0.059844
C140  C     C_R   0.711337 0.277910 0.813983 -0.239126
C141  C     C_R   0.299617 0.752743 0.179151 -0.229796
C142  C     C_R   0.288914 0.277368 0.185747 -0.240330
C143  C     C_R   0.199535 0.236045 0.676707 0.883751
C144  C     C_R   0.700091 0.755108 0.820905 -0.238838
C145  C     C_R   0.211031 0.778638 0.814415 -0.236956
C146  C     C_R   0.798583 0.249752 0.179417 -0.204964
C147  C     C_R   0.788416 0.779644 0.186134 -0.244255
C148  C     C_R   0.201816 0.250814 0.820244 -0.213848
C149  C     C_R   0.690982 0.129610 0.535783 0.903296
C150  C     C_R   0.308990 0.870422 0.464347 0.876746
C151  C     C_R   0.303157 0.127763 0.482937 0.918284
C152  C     C_R   0.696796 0.872250 0.517209 0.891129
C153  C     C_R   0.190808 0.629564 0.536219 0.903690
C154  C     C_R   0.901814 0.499695 0.498213 0.064641
C155  C     C_R   0.808471 0.370953 0.467257 0.878571
C156  C     C_R   0.803399 0.628013 0.482625 0.919934
C157  C     C_R   0.191578 0.370814 0.533736 0.888660
C158  C     C_R   0.687142 0.286378 0.908785 0.073878
C159  C     C_R   0.309231 0.719729 0.097887 0.067169
C160  C     C_R   0.313219 0.285559 0.090901 0.075673
C161  C     C_R   0.690053 0.723089 0.902579 0.065145
C162  C     C_R   0.186694 0.787268 0.909399 0.076812
C163  C     C_R   0.806664 0.213157 0.100777 0.025235
C164  C     C_R   0.812569 0.788510 0.091187 0.081653
H1    H     H_    0.040253 0.252581 0.509453 0.143666
H2    H     H_    0.220309 0.500343 0.551421 0.198754
H3    H     H_    0.280379 0.000283 0.446464 0.197765
H4    H     H_    0.719586 0.999731 0.553744 0.197766
H5    H     H_    0.085956 0.315856 0.577499 0.183122
H6    H     H_    0.854640 0.668748 0.581382 0.182622
H7    H     H_    0.916914 0.326710 0.417204 0.174158
H8    H     H_    0.080659 0.677902 0.610313 0.170485
H9    H     H_    0.647739 0.840097 0.413863 0.170092
H10   H     H_    0.352240 0.160056 0.586249 0.176693
H11   H     H_    0.421729 0.832392 0.384076 0.161957
H12   H     H_    0.917126 0.736070 0.612707 0.147658
H13   H     H_    0.578176 0.167609 0.616413 0.161567
H14   H     H_    0.786531 0.215166 0.845567 0.179152
H15   H     H_    0.211589 0.794324 0.163098 0.179369
H16   H     H_    0.212768 0.215880 0.154092 0.178964
H17   H     H_    0.788912 0.795833 0.836725 0.173909
H18   H     H_    0.288729 0.722981 0.844020 0.177975
H19   H     H_    0.711828 0.293544 0.161753 0.175846
H20   H     H_    0.707433 0.731354 0.158625 0.171760
H21   H     H_    0.288992 0.294982 0.838079 0.170177
H22   H     H_    0.610442 0.337414 0.778012 0.188026
H23   H     H_    0.974360 0.256188 0.455965 0.144926
H24   H     H_    0.390914 0.665702 0.218791 0.186477
H25   H     H_    0.390985 0.335738 0.220823 0.189174
H26   H     H_    0.609091 0.664960 0.781141 0.190258
H27   H     H_    0.110102 0.837073 0.778020 0.188013
H28   H     H_    0.893347 0.170015 0.216323 0.187272
H29   H     H_    0.891224 0.835278 0.220758 0.189480
H30   H     H_    0.106223 0.170074 0.784249 0.187809
H31   H     H_    0.753588 0.262864 0.772982 0.163107
H32   H     H_    0.270302 0.795915 0.208976 0.158549
H33   H     H_    0.246385 0.262993 0.226932 0.161757
H34   H     H_    0.999812 0.738996 0.625629 0.147226
H35   H     H_    0.729623 0.798518 0.790946 0.158953
H36   H     H_    0.253301 0.764004 0.773176 0.162198
H37   H     H_    0.769789 0.293585 0.207870 0.156775
H38   H     H_    0.745924 0.765666 0.227884 0.151457
H39   H     H_    0.230828 0.294892 0.791870 0.156831
H40   H     H_    0.668320 0.387906 0.036021 0.332150
H41   H     H_    0.379103 0.736405 0.923145 0.327441
H42   H     H_    0.333577 0.388199 0.965006 0.333291
H43   H     H_    0.619121 0.743957 0.075306 0.326582
H44   H     H_    0.163376 0.886264 0.043065 0.335747
H45   H     H_    0.589848 0.778927 0.367268 0.150127
H46   H     H_    0.876982 0.218805 0.925946 0.338518
H47   H     H_    0.838872 0.887576 0.956427 0.337282
H48   H     H_    0.122769 0.220524 0.072835 0.338350
H49   H     H_    0.559112 0.316359 0.080311 0.241751
H50   H     H_    0.569231 0.186633 0.037278 0.223318
H51   H     H_    0.629441 0.188105 0.049218 0.248576
H52   H     H_    0.563599 0.207094 0.145146 0.241837
H53   H     H_    0.372595 0.595326 0.951858 0.282274
H54   H     H_    0.297773 0.510972 0.012284 0.242628
H55   H     H_    0.328282 0.509049 0.083346 0.232728
H56   H     H_    0.410003 0.221062 0.633293 0.148643
H57   H     H_    0.266035 0.559622 0.117744 0.246824
H58   H     H_    0.441648 0.314558 0.919194 0.237809
H59   H     H_    0.429234 0.184405 0.959868 0.225383
H60   H     H_    0.368898 0.187854 0.948477 0.250209
H61   H     H_    0.434957 0.206614 0.852553 0.236032
H62   H     H_    0.625538 0.601113 0.051194 0.280514
H63   H     H_    0.698850 0.516109 0.994491 0.242307
H64   H     H_    0.732408 0.563077 0.887924 0.244602
H65   H     H_    0.669843 0.512381 0.921302 0.234396
H66   H     H_    0.057630 0.813788 0.079511 0.239166
H67   H     H_    0.506860 0.776208 0.355732 0.152719
H68   H     H_    0.070504 0.684354 0.034211 0.221897
H69   H     H_    0.129913 0.687672 0.048347 0.250037
H70   H     H_    0.063223 0.704435 0.143315 0.241461
H71   H     H_    0.807973 0.099691 0.002934 0.261674
H72   H     H_    0.798477 0.983308 0.056370 0.227871
H73   H     H_    0.835825 0.004949 0.112949 0.242528
H74   H     H_    0.767941 0.041134 0.154301 0.232809
H75   H     H_    0.942231 0.811665 0.920591 0.235182
H76   H     H_    0.925821 0.682181 0.965141 0.223410
H77   H     H_    0.866354 0.688282 0.951561 0.250943
H78   H     H_    0.492897 0.223672 0.645124 0.146669
H79   H     H_    0.933375 0.703461 0.856303 0.237980
H80   H     H_    0.192423 0.100926 0.995699 0.260396
H81   H     H_    0.200081 0.983951 0.942903 0.228764
H82   H     H_    0.232158 0.041753 0.845050 0.230352
H83   H     H_    0.163930 0.006125 0.884918 0.242175
H84   H     H_    0.783343 0.500591 0.443693 0.195459
N1    N     N_2   0.596282 0.290575 0.049144 -0.266400
N2    N     N_2   0.338110 0.606423 0.012714 -0.279464
N3    N     N_2   0.404001 0.289315 0.949977 -0.267482
N4    N     N_2   0.660277 0.611102 0.990137 -0.280332
N5    N     N_2   0.095224 0.789047 0.048863 -0.266351
N6    N     N_2   0.829988 0.089397 0.034530 -0.267176
N7    N     N_2   0.903963 0.788089 0.951133 -0.267452
N8    N     N_2   0.170220 0.090323 0.964285 -0.266956
O1    O     O_R   0.746490 0.236330 0.638080 -0.632289
O2    O     O_R   0.325830 0.813840 0.483730 -0.632798
O3    O     O_R   0.325830 0.186160 0.483730 -0.634946
O4    O     O_R   0.674170 0.813840 0.516270 -0.640327
O5    O     O_R   0.174170 0.686160 0.516270 -0.628648
O6    O     O_R   0.825830 0.313840 0.483730 -0.642590
O7    O     O_R   0.825830 0.686160 0.483730 -0.639777
O8    O     O_R   0.174170 0.313840 0.516270 -0.648863
O9    O     O_R   0.739960 0.127620 0.525000 -0.619279
O10   O     O_R   0.260040 0.872380 0.475000 -0.627549
O11   O     O_R   0.260040 0.127620 0.475000 -0.624737
O12   O     O_R   0.253510 0.763670 0.361920 -0.626643
O13   O     O_R   0.739960 0.872380 0.525000 -0.633302
O14   O     O_R   0.239960 0.627620 0.525000 -0.619900
O15   O     O_R   0.760040 0.372380 0.475000 -0.625609
O16   O     O_R   0.760040 0.627620 0.475000 -0.622992
O17   O     O_R   0.239960 0.372380 0.525000 -0.629635
O18   O     O_R   0.680700 0.294870 0.629350 -0.636021
O19   O     O_R   0.319300 0.705130 0.370650 -0.629497
O20   O     O_R   0.319300 0.294870 0.370650 -0.623441
O21   O     O_R   0.680700 0.705130 0.629350 -0.624259
O22   O     O_R   0.180700 0.794870 0.629350 -0.636643
O23   O     O_R   0.253510 0.236330 0.361920 -0.629074
O24   O     O_R   0.819300 0.205130 0.370650 -0.625827
O25   O     O_R   0.819300 0.794870 0.370650 -0.626242
O26   O     O_R   0.180700 0.205130 0.629350 -0.632293
O27   O     O_R   0.062020 0.072840 0.007170 -0.580559
O28   O     O_R   0.937980 0.927160 0.992830 -0.619099
O29   O     O_R   0.937980 0.072840 0.992830 -0.581556
O30   O     O_R   0.062020 0.927160 0.007170 -0.619484
O31   O     O_R   0.562020 0.572840 0.007170 -0.625542
O32   O     O_R   0.437980 0.427160 0.992830 -0.626396
O33   O     O_R   0.437980 0.572840 0.992830 -0.625261
O34   O     O_R   0.746490 0.763670 0.638080 -0.645787
O35   O     O_R   0.562020 0.427160 0.007170 -0.627901
O36   O     O_R   0.947860 0.073950 0.109290 -0.625599
O37   O     O_R   0.052140 0.926050 0.890710 -0.624966
O38   O     O_R   0.052140 0.073950 0.890710 -0.626672
O39   O     O_R   0.947860 0.926050 0.109290 -0.622925
O40   O     O_R   0.447860 0.573950 0.109290 -0.613774
O41   O     O_R   0.552140 0.426050 0.890710 -0.620318
O42   O     O_R   0.552140 0.573950 0.890710 -0.612669
O43   O     O_R   0.447860 0.426050 0.109290 -0.618282
O44   O     O_3   0.666802 0.357126 0.084559 -0.751027
O45   O     O_R   0.246490 0.736330 0.638080 -0.630432
O46   O     O_3   0.357803 0.717454 0.895714 -0.776330
O47   O     O_3   0.334475 0.358047 0.916177 -0.753975
O48   O     O_3   0.639375 0.726157 0.104751 -0.787838
O49   O     O_3   0.163033 0.854461 0.089785 -0.742778
O50   O     O_3   0.854700 0.202292 0.899253 -0.767785
O51   O     O_3   0.838298 0.855835 0.910083 -0.746640
O52   O     O_3   0.144698 0.203811 0.099755 -0.767942
O53   O     O_R   0.753510 0.263670 0.361920 -0.627200
O54   O     O_R   0.753510 0.736330 0.361920 -0.641580
O55   O     O_R   0.246490 0.263670 0.638080 -0.646341
O56   O     O_R   0.674170 0.186160 0.516270 -0.625150
Zn1   Zn    Zn3+2 0.792340 0.208750 0.507670 0.953155
Zn2   Zn    Zn3+2 0.494040 0.500000 0.919480 0.954947
Zn3   Zn    Zn3+2 0.005960 0.000000 0.080520 0.981185
Zn4   Zn    Zn3+2 0.994040 0.000000 0.919480 0.977669
Zn5   Zn    Zn3+2 0.207660 0.791250 0.492330 0.953486
Zn6   Zn    Zn3+2 0.207660 0.208750 0.492330 0.948597
Zn7   Zn    Zn3+2 0.792340 0.791250 0.507670 0.945813
Zn8   Zn    Zn3+2 0.292340 0.708750 0.507670 0.959121
Zn9   Zn    Zn3+2 0.707660 0.291250 0.492330 0.957319
Zn10  Zn    Zn3+2 0.707660 0.708750 0.492330 0.954462
Zn11  Zn    Zn3+2 0.292340 0.291250 0.507670 0.950332
Zn12  Zn    Zn3+2 0.505960 0.500000 0.080520 0.952758

loop_
_geom_bond_atom_site_label_1
_geom_bond_atom_site_label_2
_ccdc_geom_bond_type
C15   C75   A    
O33   Zn2   S    
C31   C42   A    
O20   Zn11  S    
O6    Zn1   S    
C149  O9    A    
O36   Zn3   S    
H46   O50   S    
C14   C33   A    
C79   C87   A    
C7    O37   A    
C19   C46   A    
C16   C31   A    
C124  C133  A    
C50   C59   A    
C146  H37   S    
C52   C61   A    
H42   O47   S    
O21   Zn10  S    
C73   H81   S    
O56   Zn9   S    
C34   C37   A    
C4    O27   A    
C49   C78   A    
C131  C140  A    
C13   C51   A    
C44   C53   A    
C113  C122  A    
C79   C102  A    
C91   C100  A    
C117  C126  A    
C119  C128  A    
C132  O25   A    
C58   C64   A    
C72   H79   S    
O31   Zn12  S    
C6    O36   A    
C109  C118  A    
C112  C164  A    
C39   C154  A    
C137  C146  A    
C127  C136  A    
C112  C120  A    
C112  N7    S    
C130  H30   S    
C82   C91   A    
C34   C39   A    
C52   C155  S    
C141  H32   S    
C14   C76   A    
C71   N6    S    
C66   H55   S    
C105  C158  A    
O19   Zn8   S    
C4    C122  S    
C27   H23   S    
C67   H59   S    
C74   H9    S    
O54   Zn10  S    
C81   C90   A    
C8    O42   A    
H75   N7    S    
O16   Zn10  S    
C72   N7    S    
C35   C45   A    
C15   C30   A    
C16   C25   A    
C9    C116  S    
C76   H11   S    
H71   N6    S    
C1    C131  S    
O55   Zn11  S    
C73   H83   S    
C106  C115  A    
C147  C164  A    
H44   O49   S    
C106  N2    S    
C18   C38   A    
C7    O30   A    
C92   H18   S    
C93   H19   S    
C84   C93   A    
C88   O23   A    
O37   Zn4   S    
C86   C95   A    
C61   H84   S    
C2    C40   A    
C64   H4    S    
H80   N8    S    
C85   C164  S    
O22   Zn5   S    
C66   N2    S    
C53   C153  S    
C27   C29   A    
C78   H13   S    
C48   C76   A    
C110  C136  S    
H66   N5    S    
C79   C158  S    
C151  O3    A    
C108  N4    S    
C16   C74   A    
C65   H51   S    
C37   C40   A    
C50   C74   A    
C102  O44   S    
C38   C39   A    
C43   C52   A    
C106  C159  A    
C111  C119  A    
O25   Zn7   S    
C121  C137  S    
C126  H26   S    
C140  C158  A    
C20   C35   A    
C139  C143  S    
C141  C159  A    
C2    C44   A    
C22   C25   A    
C30   C41   A    
H49   N1    S    
C43   C154  A    
C153  O5    A    
H47   O51   S    
C63   H3    S    
C81   C160  S    
C75   H10   S    
O2    Zn8   S    
C8    C117  S    
C11   O41   A    
C2    C45   A    
C24   C50   A    
C90   H16   S    
C139  C148  A    
C120  C129  A    
C71   H74   S    
C6    O29   A    
C124  H24   S    
C127  H27   S    
C46   H6    S    
C128  H28   S    
C70   H69   S    
C69   H65   S    
C73   N8    S    
O13   Zn7   S    
C152  O13   A    
O14   Zn8   S    
C1    O18   A    
C19   C28   A    
C101  O46   S    
C84   C163  S    
C114  C123  A    
C103  O48   S    
C62   H2    S    
C83   C162  S    
C116  C125  A    
C142  H33   S    
C118  C127  A    
C56   C150  S    
C69   H64   S    
C6    C119  S    
C10   O40   A    
C108  C117  A    
O3    Zn11  S    
C143  O55   A    
C108  C161  A    
C97   O49   S    
C77   O12   A    
C14   C22   A    
O26   Zn6   S    
C88   C134  S    
O27   Zn3   S    
C54   C157  S    
O4    Zn10  S    
C99   O21   A    
O35   Zn12  S    
C55   C61   A    
O34   Zn7   S    
O9    Zn1   S    
C26   H34   S    
C140  H31   S    
C107  C116  A    
C43   C57   A    
C121  O53   A    
C110  O45   A    
C51   C60   A    
C125  C134  A    
C149  O56   A    
C144  C161  A    
C5    O28   A    
C24   C42   A    
C153  O14   A    
O11   Zn6   S    
O42   Zn2   S    
C13   C41   A    
C107  C160  A    
C59   C152  S    
O18   Zn9   S    
H62   N4    S    
O41   Zn2   S    
C109  C162  A    
C157  O17   A    
C67   H61   S    
C132  C138  S    
C29   H1    S    
C80   C89   A    
H40   O44   S    
C77   O19   A    
C100  O51   S    
O23   Zn6   S    
C22   H67   S    
O43   Zn12  S    
C99   O34   A    
C150  O10   A    
C11   O35   A    
C3    C86   S    
C94   H20   S    
C66   H57   S    
C130  C139  A    
H43   O48   S    
C1    O1    A    
O17   Zn11  S    
C5    C120  S    
C98   O52   S    
C145  H36   S    
C28   H12   S    
C73   H82   S    
C54   C62   A    
C134  C142  A    
C18   C57   A    
O29   Zn4   S    
O30   Zn3   S    
C99   C135  S    
O7    Zn7   S    
C92   C101  A    
O38   Zn4   S    
C151  O11   A    
C94   C103  A    
C104  O47   S    
C91   H17   S    
C35   H5    S    
O10   Zn5   S    
C95   H21   S    
C46   C47   A    
C17   C68   A    
C115  C124  A    
C123  C131  A    
C4    O38   A    
C80   C159  S    
C93   C102  A    
C155  O15   A    
C156  O16   A    
C47   C154  A    
C133  C141  A    
C107  N3    S    
C33   C41   A    
C123  H22   S    
C36   C38   A    
C105  N1    S    
C65   H50   S    
C66   H54   S    
C87   H14   S    
C68   H8    S    
C144  H35   S    
C109  N5    S    
C67   H60   S    
C86   C98   A    
C70   H68   S    
C9    O43   A    
C20   C36   A    
C157  O8    A    
C83   C97   A    
C32   C42   A    
C132  O54   A    
C60   C151  S    
O8    Zn6   S    
C21   H78   S    
C110  O22   A    
C65   N1    S    
C121  O24   A    
O32   Zn2   S    
C83   C92   A    
C59   C64   A    
C60   C63   A    
C17   C26   A    
C71   H73   S    
C51   C75   A    
C5    O39   A    
C70   H70   S    
C145  C162  A    
O15   Zn9   S    
H48   O52   S    
C84   C96   A    
C11   C114  S    
C69   N4    S    
C96   O50   S    
C155  O6    A    
C129  C138  A    
O24   Zn1   S    
C12   C78   A    
C82   C103  A    
C31   C33   A    
O53   Zn9   S    
C136  C145  A    
C58   C149  S    
H58   N3    S    
C111  N6    S    
C15   C23   A    
C3    C148  A    
C12   C32   A    
C8    O31   A    
C7    C118  S    
C77   C133  S    
C69   H63   S    
C70   N5    S    
C10   O33   A    
C20   C29   A    
O28   Zn4   S    
C55   C156  S    
O5    Zn5   S    
C105  C114  A    
C36   C40   A    
C111  C163  A    
C65   H52   S    
C3    C113  A    
C12   C21   A    
C49   C58   A    
C89   C97   A    
C128  C137  A    
H41   O46   S    
O1    Zn1   S    
C156  O7    A    
C85   C94   A    
C152  O4    A    
C138  C147  A    
O39   Zn3   S    
C87   C96   A    
C72   H76   S    
C23   H56   S    
C56   C63   A    
C17   C37   A    
C71   H72   S    
C25   H45   S    
C135  C144  A    
C45   C54   A    
C44   C68   A    
H53   N2    S    
C95   C104  A    
C47   C55   A    
C24   C49   A    
C48   C56   A    
C143  O26   A    
C9    O32   A    
C72   H77   S    
C147  H38   S    
C18   C27   A    
C142  C160  A    
C19   C34   A    
C126  C135  A    
C13   C48   A    
C129  H29   S    
C82   C161  S    
C146  C163  A    
O45   Zn8   S    
C26   C28   A    
C80   C101  A    
C21   C23   A    
C88   O20   A    
C85   C100  A    
C150  O2    A    
C30   C32   A    
O12   Zn5   S    
C90   C98   A    
C89   H15   S    
C53   C62   A    
O40   Zn12  S    
C113  N8    S    
C125  H25   S    
C122  C130  A    
C10   C115  S    
C148  H39   S    
C57   H7    S    
C81   C104  A    
C67   N3    S    
