data_mof_unit_4264.cif
_audit_creation_date              2012-12-11T17:43:43-0500
_audit_creation_method            fapswitch 2.2
_symmetry_space_group_name_H-M    P1
_symmetry_Int_Tables_number       1
_space_group_crystal_system       triclinic
_cell_length_a                    15.084585
_cell_length_b                    14.976923
_cell_length_c                    16.900885
_cell_angle_alpha                 108.716393
_cell_angle_beta                  105.808004
_cell_angle_gamma                 109.588799
_cell_volume                      3082.65190281

loop_
_atom_site_label
_atom_site_type_symbol
_atom_type_description
_atom_site_fract_x
_atom_site_fract_y
_atom_site_fract_z
_atom_type_partial_charge
C1    C     C_R   0.089201 0.274955 0.026176 -0.117994
C2    C     C_R   0.093790 0.066140 0.940515 -0.245364
C3    C     C_R   0.007080 0.880940 0.907030 0.109551
C4    C     C_R   0.999310 0.070381 0.925695 0.040769
C5    C     C_R   0.099310 0.972084 0.932042 0.104151
C6    C     C_R   0.906111 0.972790 0.883143 0.050331
C7    C     C_R   0.727953 0.919147 0.776533 -0.257654
C8    C     C_R   0.286876 0.050871 0.036897 -0.334867
C9    C     C_R   0.586400 0.874613 0.822154 0.305138
C10   C     C_R   0.389236 0.960583 0.006116 0.365410
C11   C     C_R   0.487292 0.684629 0.353469 -0.150657
C12   C     C_R   0.916096 0.708290 0.915830 -0.125779
C13   C     C_R   0.493021 0.413558 0.719671 -0.155001
C14   C     C_R   0.508240 0.684321 0.277574 0.549691
C15   C     C_R   0.506132 0.432696 0.809795 0.583329
C16   C     C_R   0.936252 0.449030 0.735252 -0.162509
C17   C     C_R   0.061931 0.487247 0.256882 -0.190789
C18   C     C_R   0.525019 0.600365 0.226173 -0.066681
C19   C     C_R   0.550193 0.539392 0.878629 -0.069624
C20   C     C_R   0.525087 0.522583 0.255716 -0.197974
C21   C     C_R   0.578869 0.622920 0.854459 -0.215977
C22   C     C_R   0.505995 0.525582 0.332620 -0.086448
C23   C     C_R   0.027865 0.457608 0.726033 0.129120
C24   C     C_R   0.567542 0.602012 0.764691 -0.097467
C25   C     C_R   0.486278 0.605919 0.380926 -0.203570
C26   C     C_R   0.524291 0.497408 0.697279 -0.231092
C27   C     C_R   0.619399 0.575039 0.126972 -0.216581
C28   C     C_R   0.477046 0.581969 0.986719 -0.213170
C29   C     C_R   0.627901 0.560472 0.043714 0.050158
C30   C     C_R   0.461757 0.585236 0.064921 0.035584
C31   C     C_R   0.556398 0.565499 0.973182 0.026787
C32   C     C_R   0.535747 0.587983 0.138818 0.027048
C33   C     C_R   0.621670 0.877072 0.753929 -0.176236
C34   C     C_R   0.969331 0.429051 0.259462 0.169304
C35   C     C_R   0.379993 0.045055 0.063123 -0.122612
C36   C     C_R   0.956688 0.392233 0.329373 -0.217658
C37   C     C_R   0.034467 0.402944 0.638660 -0.198053
C38   C     C_R   0.128901 0.399921 0.542076 0.135317
C39   C     C_R   0.856656 0.350183 0.416150 0.163254
C40   C     C_R   0.716032 0.220729 0.830726 0.296643
C41   C     C_R   0.238312 0.800156 0.188286 0.319164
C42   C     C_R   0.129448 0.425951 0.630868 0.441538
C43   C     C_R   0.864575 0.371499 0.342352 0.432683
C44   C     C_R   0.942366 0.341609 0.557098 0.451977
C45   C     C_R   0.658547 0.221296 0.751142 0.064728
C46   C     C_R   0.038395 0.383475 0.386313 0.457715
C47   C     C_R   0.943983 0.354282 0.479081 -0.117846
C48   C     C_R   0.038091 0.378479 0.468263 -0.118252
C49   C     C_R   0.548618 0.148181 0.684399 0.115366
C50   C     C_R   0.291477 0.903005 0.362440 0.077769
C51   C     C_R   0.382675 0.095702 0.450055 0.307982
C52   C     C_R   0.399218 0.973072 0.610496 0.291552
C53   C     C_R   0.317847 0.003877 0.366170 -0.197693
C54   C     C_R   0.491602 0.053175 0.685732 -0.203027
C55   C     C_R   0.306041 0.894189 0.444136 -0.261754
C56   C     C_R   0.252236 0.807013 0.275547 0.057495
C57   C     C_R   0.504469 0.166713 0.610721 -0.248512
C58   C     C_R   0.370433 0.983769 0.528968 0.088677
C59   C     C_R   0.417518 0.084153 0.531001 0.078439
C60   C     C_R   0.658607 0.920065 0.913906 -0.227899
C61   C     C_R   0.306267 0.884951 0.919920 -0.371405
C62   C     C_R   0.765267 0.962829 0.937874 0.495361
C63   C     C_R   0.212762 0.891599 0.891555 0.513629
C64   C     C_R   0.300864 0.599159 0.006010 -0.128444
C65   C     C_R   0.736196 0.462508 0.046978 -0.113747
C66   C     C_R   0.800538 0.960180 0.867724 -0.082354
C67   C     C_R   0.359081 0.566849 0.056290 0.108583
C68   C     C_R   0.201719 0.972894 0.952481 0.036063
C69   C     C_R   0.724028 0.311023 0.749339 -0.199282
C70   C     C_R   0.222181 0.703726 0.265599 -0.170688
C71   C     C_R   0.295395 0.500190 0.079787 -0.121768
C72   C     C_R   0.752486 0.564656 0.974490 -0.111050
C73   C     C_R   0.109283 0.531566 0.812718 -0.080817
C74   C     C_R   0.890050 0.399689 0.177055 -0.054459
C75   C     C_R   0.916552 0.193948 0.945616 -0.128906
C76   C     C_R   0.086770 0.793717 0.994039 -0.120982
C77   C     C_R   0.002161 0.175808 0.962554 0.056745
C78   C     C_R   0.707901 0.535714 0.028651 0.053178
C79   C     C_R   0.004379 0.798285 0.938014 0.074409
C80   C     C_3   0.224569 0.399625 0.529547 -0.814540
C81   C     C_3   0.762905 0.342651 0.436695 -0.833017
C82   C     C_3   0.418338 0.202722 0.450038 -1.048936
C83   C     C_3   0.338909 0.874016 0.616221 -1.031892
C84   C     C_3   0.472580 0.821329 0.797880 -1.067412
C85   C     C_3   0.486381 0.950274 0.039246 -1.026800
C86   C     C_3   0.672796 0.175901 0.887563 -1.061033
C87   C     C_3   0.305238 0.883096 0.169591 -1.031877
C88   C     C_R   0.912177 0.879159 0.868456 -0.204117
H1    H     H_    0.169487 0.291548 0.055485 0.095551
H2    H     H_    0.610564 0.704447 0.905650 0.152626
H3    H     H_    0.505212 0.464676 0.354108 0.124654
H4    H     H_    0.591122 0.666844 0.747063 0.141871
H5    H     H_    0.676464 0.573955 0.181439 0.148293
H6    H     H_    0.419517 0.578958 0.929511 0.150957
H7    H     H_    0.857519 0.401880 0.682652 0.150068
H8    H     H_    0.139855 0.512717 0.304795 0.152641
H9    H     H_    0.566916 0.843056 0.682714 0.142454
H10   H     H_    0.443639 0.104163 0.129689 0.136746
H11   H     H_    0.544081 0.241231 0.610687 0.138558
H12   H     H_    0.838955 0.676193 0.863050 0.095689
H13   H     H_    0.276550 0.816922 0.442075 0.147634
H14   H     H_    0.520128 0.035390 0.740991 0.162708
H15   H     H_    0.292478 0.012326 0.304298 0.145477
H16   H     H_    0.632047 0.918418 0.966919 0.167542
H17   H     H_    0.313216 0.819460 0.875759 0.141734
H18   H     H_    0.328853 0.661044 0.985830 0.095639
H19   H     H_    0.712778 0.421829 0.085906 0.116857
H20   H     H_    0.702482 0.347103 0.706449 0.114810
H21   H     H_    0.225918 0.677959 0.318382 0.108300
H22   H     H_    0.317423 0.466709 0.125073 0.103638
H23   H     H_    0.753515 0.914368 0.721985 0.167846
H24   H     H_    0.750440 0.622632 0.950384 0.119482
H25   H     H_    0.191372 0.559758 0.832828 0.158748
H26   H     H_    0.810417 0.339107 0.147497 0.133845
H27   H     H_    0.838069 0.140018 0.895993 0.138824
H28   H     H_    0.166873 0.840942 0.013418 0.119041
H29   H     H_    0.840061 0.807344 0.839584 0.125502
H30   H     H_    0.164643 0.137387 0.963884 0.137456
H31   H     H_    0.546566 0.769876 0.215152 0.319056
H32   H     H_    0.484383 0.368430 0.891395 0.318190
H33   H     H_    0.088567 0.338879 0.294814 0.317276
H34   H     H_    0.279744 0.113686 0.084504 0.154737
H35   H     H_    0.870875 0.251854 0.603456 0.321510
H36   H     H_    0.719145 0.315035 0.265884 0.311882
H37   H     H_    0.277361 0.519602 0.701920 0.319634
H38   H     H_    0.279602 0.399419 0.588303 0.228874
H39   H     H_    0.201787 0.325117 0.468846 0.273763
H40   H     H_    0.266252 0.470311 0.521253 0.254726
H41   H     H_    0.716404 0.372891 0.400557 0.227921
H42   H     H_    0.711290 0.258661 0.416924 0.267516
H43   H     H_    0.788270 0.393066 0.511116 0.248015
H44   H     H_    0.377889 0.195804 0.381075 0.255200
H45   H     H_    0.470588 0.607497 0.440034 0.136061
H46   H     H_    0.401277 0.255571 0.499952 0.251580
H47   H     H_    0.503046 0.239643 0.468737 0.254365
H48   H     H_    0.356633 0.890596 0.689069 0.267683
H49   H     H_    0.254074 0.846072 0.580940 0.265928
H50   H     H_    0.358390 0.810467 0.583824 0.241698
H51   H     H_    0.449524 0.882370 0.828249 0.270197
H52   H     H_    0.425544 0.777487 0.722006 0.261054
H53   H     H_    0.455881 0.762886 0.825784 0.254989
H54   H     H_    0.478844 0.874927 0.990509 0.250463
H55   H     H_    0.553184 0.018599 0.046859 0.259011
H56   H     H_    0.513775 0.481081 0.627251 0.142889
H57   H     H_    0.501642 0.949856 0.107195 0.262965
H58   H     H_    0.904061 0.035290 0.038802 0.319622
H59   H     H_    0.149951 0.765084 0.774116 0.316100
H60   H     H_    0.599687 0.180595 0.882519 0.270047
H61   H     H_    0.660100 0.093000 0.865651 0.252600
H62   H     H_    0.728345 0.222267 0.961582 0.252877
H63   H     H_    0.271540 0.936699 0.161776 0.238384
H64   H     H_    0.384629 0.930944 0.226897 0.272388
H65   H     H_    0.313466 0.844208 0.105896 0.258328
H66   H     H_    0.472818 0.747165 0.392092 0.142008
H67   H     H_    0.456387 0.332751 0.666244 0.144324
H68   H     H_    0.537128 0.457670 0.217568 0.141465
N1    N     N_R   0.055660 0.348550 0.045620 -0.041513
N2    N     N_R   0.185200 0.638170 0.176300 -0.049972
N3    N     N_R   0.201680 0.494570 0.045620 -0.041013
N4    N     N_R   0.798320 0.505430 0.954380 -0.041338
N5    N     N_R   0.068420 0.560530 0.871650 -0.054757
N6    N     N_R   0.931580 0.439470 0.128350 -0.061456
N7    N     N_R   0.948070 0.295860 0.997670 -0.047017
N8    N     N_R   0.051930 0.704140 0.002330 -0.045362
N9    N     N_R   0.944340 0.651450 0.954380 -0.044068
N10   N     N_R   0.960830 0.507850 0.823700 -0.040508
N11   N     N_R   0.039170 0.492150 0.176300 -0.045695
N12   N     N_R   0.811290 0.303410 0.871650 -0.057018
N13   N     N_R   0.188710 0.696590 0.128350 -0.056340
N14   N     N_R   0.205200 0.552990 0.997670 -0.045742
N15   N     N_R   0.794800 0.447010 0.002330 -0.039335
N16   N     N_R   0.814800 0.361830 0.823700 -0.054510
Ni1   Ni    Ni4+2 0.119340 0.493420 0.109960 0.219634
Ni2   Ni    Ni4+2 0.880660 0.506580 0.890040 0.218275
Ni3   Ni    Ni4+2 0.872590 0.372590 0.000000 0.210528
Ni4   Ni    Ni4+2 0.127410 0.627410 0.000000 0.218361
O1    O     O_3   0.511808 0.767084 0.256824 -0.762560
O2    O     O_3   0.472454 0.345260 0.826055 -0.760395
O3    O     O_3   0.118304 0.380407 0.362867 -0.773627
O4    O     O_3   0.851994 0.270552 0.552202 -0.757000
O5    O     O_3   0.784897 0.378378 0.285297 -0.774052
O6    O     O_3   0.220202 0.470956 0.709128 -0.772485
O7    O     O_3   0.830888 0.000488 0.029037 -0.757047
O8    O     O_3   0.130020 0.817279 0.807264 -0.756876

loop_
_geom_bond_atom_site_label_1
_geom_bond_atom_site_label_2
_ccdc_geom_bond_type
H59   O8    S    
N12   Ni3   S    
C72   H24   S    
C10   C85   S    
N3    N14   A    
C27   C29   A    
C1    C77   A    
C14   C18   A    
C76   C79   A    
C19   C31   S    
C85   H55   S    
C2    H30   S    
C6    C88   A    
H33   O3    S    
N14   Ni4   S    
C42   O6    S    
C15   C19   A    
C38   C80   S    
H58   O7    S    
C65   N15   A    
C75   N7    A    
N8    N9    A    
C19   C21   A    
C85   H57   S    
C38   C42   A    
C86   H62   S    
C11   C14   A    
C57   C59   A    
C11   C25   A    
C49   C54   A    
C57   H11   S    
C71   H22   S    
C37   C42   A    
C73   H25   S    
C18   C20   A    
C60   C62   A    
C40   C86   S    
C82   H47   S    
C61   C63   A    
H32   O2    S    
C13   H67   S    
C72   C78   A    
C11   H66   S    
C62   O7    S    
N4    N15   A    
N15   Ni3   S    
C29   C78   S    
C84   H51   S    
N16   Ni2   S    
C3    C79   S    
C22   C25   A    
C73   N5    A    
C22   H3    S    
C87   H65   S    
C36   C46   A    
C10   C35   A    
C63   O8    S    
C35   H10   S    
C25   H45   S    
N1    N7    A    
C67   C71   A    
N5    N10   A    
C44   C47   A    
N11   Ni1   S    
C65   H19   S    
C76   N8    A    
H37   O6    S    
N7    Ni3   S    
C87   H63   S    
C9    C33   A    
C7    C33   A    
C44   O4    S    
N4    Ni2   S    
C23   C73   A    
C5    C68   S    
C26   H56   S    
C24   H4    S    
C69   H20   S    
C52   C54   A    
C51   C59   A    
C21   H2    S    
C40   C45   A    
C41   C87   S    
C46   C48   A    
N10   Ni2   S    
C50   C53   A    
C40   N12   A    
C62   C66   A    
C45   C69   A    
C64   C67   A    
C39   C81   S    
C4    C6    A    
C17   N11   A    
C86   H61   S    
C16   N10   A    
C12   N9    A    
C74   N6    A    
N5    Ni4   S    
C28   H6    S    
C39   C43   A    
N6    Ni3   S    
C80   H40   S    
C58   C59   A    
C23   C37   S    
C41   N13   A    
C43   O5    S    
C50   C56   S    
C70   N2    A    
C8    C35   A    
C82   H46   S    
C52   C83   S    
C2    C4    A    
C41   C56   A    
C70   H21   S    
N2    Ni1   S    
C81   H41   S    
C47   C48   A    
C45   C49   S    
C17   H8    S    
C75   C77   A    
C51   C82   S    
C83   H48   S    
C52   C58   A    
C34   C74   A    
C20   C22   A    
C8    C68   A    
C16   C23   A    
C56   C70   A    
C87   H64   S    
C13   C15   A    
C13   C26   A    
C27   H5    S    
C10   C61   A    
C75   H27   S    
C17   C34   A    
C21   C24   A    
C82   H44   S    
C83   H49   S    
C61   H17   S    
C39   C47   A    
N12   N16   A    
C63   C68   A    
C16   H7    S    
C1    H1    S    
C65   C78   A    
C20   H68   S    
C3    C88   A    
C38   C48   A    
C46   O3    S    
C54   H14   S    
C28   C31   A    
C30   C67   S    
C24   C26   A    
H35   O4    S    
C3    C5    A    
C86   H60   S    
C85   H54   S    
C49   C57   A    
N2    N13   A    
C64   H18   S    
C80   H39   S    
C71   N3    A    
C55   H13   S    
C50   C55   A    
C72   N4    A    
C9    C60   A    
C37   C44   A    
C1    N1    A    
N9    Ni2   S    
H36   O5    S    
C29   C31   A    
C7    C66   A    
C30   C32   A    
C8    H34   S    
C81   H42   S    
C55   C58   A    
C80   H38   S    
C84   H53   S    
C53   H15   S    
C28   C30   A    
C76   H28   S    
N13   Ni4   S    
C7    H23   S    
N8    Ni4   S    
C34   C36   S    
C64   N14   A    
C12   H12   S    
C14   O1    S    
C81   H43   S    
C27   C32   A    
C9    C84   S    
N6    N11   A    
C2    C5    A    
C4    C77   S    
C6    C66   S    
C18   C32   S    
C84   H52   S    
N3    Ni1   S    
C15   O2    S    
C36   C43   A    
H31   O1    S    
C33   H9    S    
C51   C53   A    
C88   H29   S    
C60   H16   S    
C69   N16   A    
C83   H50   S    
N1    Ni1   S    
C12   C79   A    
C74   H26   S    
