data_mof_unit_3980.cif
_audit_creation_date              2012-12-11T15:52:09-0500
_audit_creation_method            fapswitch 2.2
_symmetry_space_group_name_H-M    P1
_symmetry_Int_Tables_number       1
_space_group_crystal_system       triclinic
_cell_length_a                    8.265713
_cell_length_b                    19.085303
_cell_length_c                    18.967479
_cell_angle_alpha                 99.225199
_cell_angle_beta                  94.404689
_cell_angle_gamma                 91.852123
_cell_volume                      2941.73433381

loop_
_atom_site_label
_atom_site_type_symbol
_atom_type_description
_atom_site_fract_x
_atom_site_fract_y
_atom_site_fract_z
_atom_type_partial_charge
Ba1   Ba    Ba6+2 0.152000 0.534910 0.469330 1.641334
Ba2   Ba    Ba6+2 0.658180 0.465080 0.530610 1.653167
C1    C     C_3   0.377962 0.810244 0.254074 -0.007332
C2    C     C_R   0.972861 0.273296 0.479448 0.067844
C3    C     C_R   0.160658 0.180746 0.547294 -0.139209
C4    C     C_3   0.896347 0.728433 0.324648 0.389747
C5    C     C_R   0.218260 0.249823 0.545014 -0.008222
C6    C     C_R   0.658790 0.818337 0.450720 -0.179132
C7    C     C_R   0.593979 0.749687 0.451628 -0.002379
C8    C     C_R   0.863781 0.800762 0.542904 -0.140535
C9    C     C_R   0.825542 0.727075 0.527646 0.053486
C10   C     C_R   0.000213 0.155815 0.521582 0.010513
C11   C     C_R   0.121155 0.296701 0.515285 -0.227944
C12   C     C_3   0.394639 0.744670 0.291267 0.357237
C13   C     C_R   0.788402 0.848531 0.501002 0.003871
C14   C     C_R   0.685726 0.702713 0.484613 -0.243432
C15   C     C_R   0.150348 0.049969 0.618373 -0.102206
C16   C     C_3   0.892022 0.800647 0.300441 -0.380673
C17   C     C_R   0.258247 0.001319 0.639639 -0.049961
C18   C     C_R   0.250761 0.931747 0.602763 0.081022
C19   C     C_R   0.126385 0.910784 0.548380 -0.108556
C20   C     C_R   0.998269 0.955739 0.537630 0.003520
C21   C     C_R   0.031906 0.030042 0.560403 0.036138
C22   C     C_R   0.836978 0.928891 0.511700 -0.009835
C23   C     C_3   0.524387 0.681698 0.651188 0.309841
C24   C     C_R   0.719040 0.981799 0.504931 0.043328
C25   C     C_R   0.768964 0.055926 0.513340 0.007704
C26   C     C_R   0.933487 0.080449 0.531817 -0.026586
C27   C     C_R   0.549504 0.964565 0.493874 -0.062405
C28   C     C_3   0.792043 0.378332 0.309373 0.320794
C29   C     C_R   0.438817 0.014333 0.478769 -0.087113
C30   C     C_R   0.489276 0.084852 0.487050 -0.082641
C31   C     C_R   0.648068 0.105282 0.512571 -0.076655
C32   C     C_R   0.609507 0.530815 0.301630 -0.290066
C33   C     C_R   0.463473 0.493431 0.276372 0.079351
C34   C     C_3   0.599049 0.753906 0.686215 -0.406124
C35   C     C_R   0.411798 0.484517 0.203227 -0.120670
C36   C     C_R   0.506156 0.513173 0.155079 -0.006477
C37   C     C_R   0.656161 0.548863 0.181096 -0.138423
C38   C     C_R   0.708643 0.556240 0.254047 0.005065
C39   C     C_R   0.456353 0.561595 0.040649 -0.084181
C40   C     C_3   0.777074 0.360839 0.227984 -0.399171
C41   C     C_R   0.403056 0.553257 0.968098 -0.115579
C42   C     C_R   0.344794 0.486707 0.930104 0.030575
C43   C     C_R   0.340808 0.427138 0.966321 0.210294
C44   C     C_R   0.391635 0.437096 0.040452 -0.083142
C45   C     C_3   0.986187 0.279169 0.722774 0.329266
C46   C     C_R   0.450415 0.503849 0.077633 0.031717
C47   C     C_R   0.139214 0.447961 0.824023 -0.140396
C48   C     C_R   0.092109 0.442209 0.750561 -0.030709
C49   C     C_R   0.340656 0.505734 0.733815 0.053439
C50   C     C_R   0.390020 0.510750 0.806675 -0.112022
C51   C     C_R   0.291177 0.480752 0.852427 -0.003070
C52   C     C_3   0.016756 0.619245 0.689823 0.312731
C53   C     C_R   0.195809 0.468931 0.705670 -0.271108
C54   C     C_3   0.039553 0.637525 0.771143 -0.403420
C55   C     C_3   0.287446 0.314672 0.354879 0.331821
C56   C     C_3   0.945103 0.203656 0.733645 -0.335585
C57   C     C_3   0.298728 0.235555 0.323364 0.214042
C58   C     C_3   0.355756 0.676944 0.236958 -0.335004
C59   C     C_3   0.205116 0.115013 0.337743 -0.256880
C60   C     C_3   0.530516 0.181563 0.262682 -0.233105
C61   C     C_3   0.439491 0.938516 0.274758 -0.274276
C62   C     C_3   0.362262 0.877918 0.626283 -0.397817
C63   C     C_3   0.284193 0.297041 0.962862 -0.258325
C64   C     C_3   0.425241 0.258772 0.700041 0.363951
C65   C     C_3   0.504032 0.233157 0.765825 -0.340925
C66   C     C_R   0.914529 0.202203 0.479962 -0.117765
H1    H     H_    0.685157 0.316713 0.209696 0.119384
H2    H     H_    0.358137 0.326855 0.408005 0.049768
H3    H     H_    0.253441 0.810974 0.227613 0.075900
H4    H     H_    0.246946 0.228160 0.266419 0.073693
H5    H     H_    0.523587 0.744585 0.311607 -0.030633
H6    H     H_    0.465281 0.806930 0.211914 0.047158
H7    H     H_    0.620543 0.651496 0.623641 0.021184
H8    H     H_    0.424377 0.689160 0.610890 0.057930
H9    H     H_    0.706493 0.747038 0.722931 0.140351
H10   H     H_    0.637679 0.784192 0.644733 0.059686
H11   H     H_    0.509211 0.784434 0.717680 0.122369
H12   H     H_    0.739113 0.407842 0.204536 0.065591
H13   H     H_    0.852020 0.841160 0.343438 0.079026
H14   H     H_    0.040056 0.277450 0.670647 -0.029593
H15   H     H_    0.075969 0.303192 0.767435 -0.030957
H16   H     H_    0.870710 0.174622 0.685978 0.126107
H17   H     H_    0.058691 0.175781 0.742320 0.052328
H18   H     H_    0.876599 0.204320 0.781839 0.110281
H19   H     H_    0.308655 0.227596 0.684824 -0.070842
H20   H     H_    0.401401 0.316207 0.714478 -0.007429
H21   H     H_    0.543198 0.177941 0.751282 0.110218
H22   H     H_    0.415348 0.233893 0.806988 0.046991
H23   H     H_    0.896058 0.344931 0.208586 0.117007
H24   H     H_    0.978566 0.732899 0.374521 0.090095
H25   H     H_    0.610502 0.268490 0.788957 0.147962
H26   H     H_    0.805917 0.183895 0.445930 0.066645
H27   H     H_    0.249012 0.147417 0.566534 0.064567
H28   H     H_    0.601440 0.848786 0.413492 0.093869
H29   H     H_    0.950918 0.819281 0.587858 0.071334
H30   H     H_    0.168149 0.350061 0.514144 0.052919
H31   H     H_    0.642944 0.647909 0.480419 0.067934
H32   H     H_    0.155234 0.102331 0.649994 0.063700
H33   H     H_    0.347430 0.018144 0.684561 0.062446
H34   H     H_    0.133559 0.603362 0.668966 0.008564
H35   H     H_    0.772133 0.712975 0.336193 -0.085732
H36   H     H_    0.124251 0.858013 0.518306 0.126253
H37   H     H_    0.496436 0.913916 0.498437 0.070139
H38   H     H_    0.311843 0.998800 0.464866 0.073687
H39   H     H_    0.403383 0.123949 0.477353 0.104090
H40   H     H_    0.676164 0.159444 0.536080 0.142819
H41   H     H_    0.503801 0.538878 0.827743 0.072952
H42   H     H_    0.406289 0.599375 0.941474 0.072420
H43   H     H_    0.500084 0.613653 0.068253 0.068631
H44   H     H_    0.298824 0.454875 0.183895 0.080446
H45   H     H_    0.924978 0.574551 0.675078 0.067363
H46   H     H_    0.014767 0.817467 0.288061 0.131629
H47   H     H_    0.391329 0.392800 0.069534 0.058709
H48   H     H_    0.057614 0.427665 0.858770 0.090608
H49   H     H_    0.733803 0.568813 0.144605 0.075596
H50   H     H_    0.158323 0.465541 0.649245 0.059818
H51   H     H_    0.651216 0.535856 0.357766 0.070241
H52   H     H_    0.806285 0.797832 0.251921 0.106373
H53   H     H_    0.671945 0.392372 0.327896 0.020732
H54   H     H_    0.880298 0.424226 0.325784 0.059236
H55   H     H_    0.446502 0.671356 0.196438 0.040043
H56   H     H_    0.136343 0.680056 0.787324 0.128159
H57   H     H_    0.359544 0.630323 0.264989 0.126132
H58   H     H_    0.232833 0.677876 0.209190 0.149076
H59   H     H_    0.084214 0.206289 0.362043 0.166302
H60   H     H_    0.329374 0.096103 0.345978 0.120565
H61   H     H_    0.160563 0.101210 0.280233 0.097377
H62   H     H_    0.125212 0.087056 0.369825 0.111566
H63   H     H_    0.512517 0.200459 0.373803 0.231390
H64   H     H_    0.664238 0.178163 0.271360 0.117522
H65   H     H_    0.504232 0.211554 0.217865 0.108878
H66   H     H_    0.474603 0.126989 0.248126 0.083832
H67   H     H_    0.074508 0.590275 0.794766 0.066438
H68   H     H_    0.334074 0.882036 0.345459 0.216871
H69   H     H_    0.477231 0.983531 0.318259 0.115079
H70   H     H_    0.326013 0.951534 0.245199 0.101909
H71   H     H_    0.538120 0.931328 0.237972 0.118725
H72   H     H_    0.289727 0.836898 0.647082 0.124868
H73   H     H_    0.426064 0.851296 0.580945 0.130519
H74   H     H_    0.454945 0.902827 0.669256 0.101943
H75   H     H_    0.329282 0.347731 0.875972 0.190808
H76   H     H_    0.233845 0.250038 0.924209 0.106064
H77   H     H_    0.202703 0.306107 0.007044 0.115739
H78   H     H_    0.924269 0.656161 0.792522 0.120328
H79   H     H_    0.408119 0.285534 0.983720 0.105134
H80   H     H_    0.159118 0.327389 0.360619 -0.044307
N1    N     N_2   0.202397 0.190971 0.361298 -0.452019
N2    N     N_2   0.468949 0.217681 0.327491 -0.390724
N3    N     N_2   0.412640 0.874944 0.305436 -0.425323
N4    N     N_2   0.290803 0.358326 0.926878 -0.433493
O1    O     O_2   0.116570 0.673370 0.549300 -0.450523
O2    O     O_2   0.753998 0.447345 0.743848 -0.474902
O3    O     O_3   0.843748 0.317188 0.723464 -0.561566
O4    O     O_3   0.869340 0.584760 0.542960 -0.494444
O5    O     O_3   0.436600 0.464450 0.413780 -0.487873
O6    O     O_2   0.628980 0.533090 0.672420 -0.456877
O7    O     O_3   0.462036 0.648014 0.704588 -0.645508
O8    O     O_2   0.525111 0.249245 0.505644 -0.507266
O9    O     O_3   0.528093 0.247611 0.643907 -0.564772
O10   O     O_3   0.352540 0.630870 0.419750 -0.460606
O11   O     O_2   0.276212 0.754584 0.483318 -0.501165
O12   O     O_3   0.349999 0.353682 0.306027 -0.657698
O13   O     O_3   0.965147 0.679522 0.662902 -0.640791
O14   O     O_3   0.286142 0.747836 0.345559 -0.587660
O15   O     O_2   0.181320 0.466870 0.327560 -0.464121
O16   O     O_3   0.937730 0.595370 0.381630 -0.487086
O17   O     O_2   0.044864 0.548195 0.253898 -0.478859
O18   O     O_3   0.953149 0.678761 0.270341 -0.594334
O19   O     O_2   0.693730 0.326590 0.450680 -0.437736
O20   O     O_3   0.940960 0.415230 0.456980 -0.498670
O21   O     O_3   0.457750 0.369120 0.580200 -0.453607
O22   O     O_3   0.844631 0.318498 0.337064 -0.641365
O23   O     O_3   0.373690 0.535540 0.586160 -0.478168
O24   O     O_3   0.872560 0.404620 0.618320 -0.462206
P1    P     P_3+3 0.945400 0.662120 0.569160 0.976874
P2    P     P_3+3 0.355390 0.445380 0.336430 0.984077
P3    P     P_3+3 0.911756 0.593466 0.288965 0.959240
P4    P     P_3+3 0.864900 0.337880 0.430780 0.976397
P5    P     P_3+3 0.891984 0.403838 0.710742 0.980866
P6    P     P_3+3 0.380053 0.722324 0.423154 0.939751
P7    P     P_3+3 0.449066 0.556083 0.676129 0.950360
P8    P     P_3+3 0.430758 0.277666 0.569939 0.956537

loop_
_geom_bond_atom_site_label_1
_geom_bond_atom_site_label_2
_ccdc_geom_bond_type
O2    P5    D    
C40   H12   S    
C16   H52   S    
C58   H55   S    
C39   C41   A    
C17   C18   A    
C6    H28   S    
C8    H29   S    
C16   H46   S    
C43   C44   A    
C25   C31   A    
C10   C66   A    
C24   C25   A    
C15   C21   A    
C45   O3    S    
C44   H47   S    
C10   C26   S    
C32   C38   A    
C54   H56   S    
C60   H65   S    
O23   P7    S    
C58   H57   S    
C33   C35   A    
C7    C14   A    
C22   C24   A    
O10   P6    S    
C49   P7    S    
C8    C13   A    
Ba2   O21   S    
C62   H72   S    
C36   C37   A    
C4    H24   S    
C55   C57   S    
C62   H73   S    
Ba1   O15   S    
C52   H45   S    
C65   H21   S    
C16   H13   S    
O13   P1    S    
C32   C33   A    
O4    P1    S    
C45   H14   S    
C11   H30   S    
C1    H6    S    
C35   H44   S    
C7    P6    S    
Ba2   O24   S    
C19   H36   S    
Ba1   P1    S    
C42   C51   S    
Ba1   O23   S    
C28   H54   S    
O21   P8    S    
C6    C7    A    
C30   H39   S    
O14   P6    S    
C23   O7    S    
C9    P1    S    
C41   H42   S    
C45   H15   S    
C55   H2    S    
C63   H79   S    
O6    P7    D    
C36   C46   S    
C59   H61   S    
C57   H4    S    
O20   P4    S    
C33   P2    S    
C64   C65   S    
C19   C20   A    
O11   P6    D    
C61   H69   S    
C27   H37   S    
C31   H40   S    
Ba2   P4    S    
C2    P4    S    
C56   H18   S    
C3    H27   S    
O1    P1    D    
C57   N1    S    
O24   P5    S    
C4    C16   S    
C44   C46   A    
C49   C50   A    
C12   H5    S    
C60   H64   S    
C3    C10   A    
C37   C38   A    
C3    C5    A    
C63   H76   S    
C15   C17   A    
Ba1   O16   S    
C37   H49   S    
C40   H1    S    
C66   H26   S    
C64   O9    S    
C23   H7    S    
C18   C62   S    
Ba1   O4    S    
C1    H3    S    
C41   C42   A    
C35   C36   A    
C56   H16   S    
Ba2   O23   S    
C38   P3    S    
Ba1   P2    S    
C29   C30   A    
C28   H53   S    
Ba2   O6    S    
O15   P2    D    
O17   P3    D    
C14   H31   S    
C4    H35   S    
Ba1   O1    S    
C61   N3    S    
C1    C12   S    
C59   H62   S    
C5    P8    S    
C13   C22   S    
Ba1   O10   S    
C6    C13   A    
C29   H38   S    
C20   C22   A    
O19   P4    D    
C48   P5    S    
C12   O14   S    
C21   C26   A    
C52   O13   S    
C63   H77   S    
C56   H17   S    
O22   P4    S    
C64   H19   S    
C54   H67   S    
O12   P2    S    
C50   C51   A    
C2    C66   A    
C4    O18   S    
C57   N2    S    
C32   H51   S    
H75   N4    S    
Ba2   O4    S    
C60   N2    S    
C61   H71   S    
C52   H34   S    
C42   C43   A    
C34   H11   S    
O3    P5    S    
C52   C54   S    
H68   N3    S    
O16   P3    S    
C12   C58   S    
Ba2   O19   S    
Ba1   O20   S    
C1    N3    S    
C48   C53   A    
O18   P3    S    
C34   H9    S    
C43   N4    S    
C30   C31   A    
C23   H8    S    
C63   N4    S    
C58   H58   S    
C27   C29   A    
C34   H10   S    
H59   N1    S    
C45   C56   S    
C64   H20   S    
C17   H33   S    
C60   H66   S    
C55   O12   S    
C62   H74   S    
C50   H41   S    
O9    P8    S    
Ba2   O5    S    
C47   C51   A    
Ba1   Ba2   S    
Ba1   O5    S    
C61   H70   S    
C39   C46   A    
C28   O22   S    
C59   H60   S    
C49   C53   A    
O5    P2    S    
C65   H22   S    
C54   H78   S    
C15   H32   S    
C9    C14   A    
C8    C9    A    
C23   C34   S    
C5    C11   A    
C47   H48   S    
C18   C19   A    
C24   C27   A    
C47   C48   A    
C39   H43   S    
C55   H80   S    
C25   C26   A    
C65   H25   S    
C20   C21   A    
C28   C40   S    
H63   N2    S    
O7    P7    S    
C59   N1    S    
O8    P8    D    
C40   H23   S    
C2    C11   A    
Ba2   O20   S    
C53   H50   S    
