data_mof_unit_3825.cif
_audit_creation_date              2012-12-10T17:50:41-0500
_audit_creation_method            fapswitch 2.2
_symmetry_space_group_name_H-M    P1
_symmetry_Int_Tables_number       1
_space_group_crystal_system       triclinic
_cell_length_a                    14.748105
_cell_length_b                    14.756597
_cell_length_c                    15.860222
_cell_angle_alpha                 76.223552
_cell_angle_beta                  103.360973
_cell_angle_gamma                 115.539876
_cell_volume                      2992.16134693

loop_
_atom_site_label
_atom_site_type_symbol
_atom_type_description
_atom_site_fract_x
_atom_site_fract_y
_atom_site_fract_z
_atom_type_partial_charge
C1    C     C_R   0.879711 0.311998 0.514972 0.807874
C2    C     C_R   0.119909 0.687744 0.490428 0.833559
C3    C     C_R   0.782125 0.024892 0.564015 -0.019000
C4    C     C_R   0.213670 0.968312 0.503534 -0.037400
C5    C     C_R   0.845809 0.127023 0.541788 -0.207657
C6    C     C_R   0.148880 0.868738 0.489238 -0.172512
C7    C     C_R   0.708816 0.177994 0.534432 -0.222612
C8    C     C_R   0.290846 0.819417 0.527363 -0.199326
C9    C     C_R   0.640325 0.076180 0.552369 0.084482
C10   C     C_R   0.359523 0.918930 0.538599 0.075251
C11   C     C_R   0.678260 0.998681 0.568231 0.070205
C12   C     C_R   0.320388 0.995014 0.524255 0.074137
C13   C     C_R   0.534348 0.049379 0.550566 0.075332
C14   C     C_R   0.466591 0.945361 0.557731 0.078637
C15   C     C_R   0.508057 0.871069 0.581358 -0.163775
C16   C     C_R   0.493215 0.122845 0.539496 -0.201334
C17   C     C_R   0.610758 0.896977 0.584816 -0.164073
C18   C     C_R   0.389070 0.096119 0.527214 -0.142373
C19   C     C_R   0.707874 0.657509 0.340653 -0.150189
C20   C     C_R   0.303363 0.357094 0.662819 -0.157165
C21   C     C_R   0.792378 0.631366 0.369312 0.096721
C22   C     C_R   0.212921 0.373024 0.632283 0.087103
C23   C     C_R   0.999989 0.499816 0.660136 0.820394
C24   C     C_R   0.999980 0.500194 0.339854 0.840751
C25   C     C_R   0.717013 0.517503 0.491409 0.050409
C26   C     C_R   0.281769 0.485584 0.507289 0.033609
C27   C     C_R   0.635356 0.550568 0.471830 -0.007286
C28   C     C_R   0.379107 0.481150 0.538582 -0.027980
C29   C     C_R   0.629886 0.617928 0.392850 0.074985
C30   C     C_R   0.388169 0.415687 0.618507 0.050297
C31   C     C_R   0.557402 0.516450 0.526246 0.014503
C32   C     C_R   0.466684 0.536157 0.493099 0.033056
C33   C     C_R   0.470076 0.612063 0.417594 -0.133540
C34   C     C_R   0.568405 0.467697 0.614324 -0.063413
C35   C     C_R   0.549628 0.649822 0.369172 -0.203915
C36   C     C_R   0.483391 0.414144 0.656595 -0.172744
C37   C     C_3   0.978948 0.405689 0.044594 -0.142533
C38   C     C_3   0.019923 0.594676 0.955032 -0.147430
C39   C     C_3   0.907729 0.436631 0.966148 -0.152973
C40   C     C_3   0.091139 0.563730 0.033479 -0.155939
C41   C     C_1   0.000024 0.499682 0.750000 -0.100935
C42   C     C_1   0.999735 0.500396 0.249914 -0.120258
C43   C     C_3   0.070708 0.469011 0.994168 -0.132679
C44   C     C_3   0.928157 0.531353 0.005484 -0.134070
C45   C     C_3   0.999501 0.499951 0.917243 0.158699
C46   C     C_3   0.999385 0.500404 0.082402 0.158872
C47   C     C_1   0.999791 0.499732 0.825572 -0.036928
C48   C     C_1   0.999527 0.500492 0.174207 -0.034766
C49   C     C_R   0.810665 0.203769 0.529769 -0.077510
C50   C     C_R   0.187310 0.794468 0.499792 -0.085588
Cu1   Cu    Cu3+1 0.081740 0.475690 0.522610 0.989634
Cu2   Cu    Cu3+1 0.918260 0.524310 0.477390 0.993375
N1    N     N_R   0.795440 0.560790 0.443380 -0.227348
N2    N     N_R   0.204560 0.439210 0.556620 -0.232236
O1    O     O_R   0.977900 0.338120 0.529810 -0.571559
O2    O     O_R   0.022100 0.661880 0.470190 -0.565661
O3    O     O_R   0.839850 0.379180 0.491620 -0.595151
O4    O     O_R   0.160150 0.620820 0.508380 -0.575808
O5    O     O_R   0.069010 0.479460 0.640020 -0.563507
O6    O     O_R   0.930990 0.520540 0.359980 -0.567593
O7    O     O_R   0.930960 0.520530 0.601820 -0.570824
O8    O     O_R   0.069040 0.479470 0.398180 -0.582379
H1    H     H_    0.832433 0.384410 0.937236 0.155420
H2    H     H_    0.166429 0.615899 0.062468 0.158601
H3    H     H_    0.264441 0.524526 0.443668 0.155993
H4    H     H_    0.718645 0.456480 0.544142 0.129835
C51   C     C_2   0.126114 0.312664 0.681033 0.934729
O9    O     O_2   0.121335 0.340038 0.746238 -0.560523
O10   O     O_R   0.057578 0.217866 0.659491 -0.781175
H5    H     H_    0.004369 0.181068 0.700241 0.335674
C52   C     C_2   0.874504 0.678821 0.314382 0.940651
O11   O     O_2   0.947737 0.756253 0.331296 -0.562952
O12   O     O_R   0.860938 0.642964 0.236394 -0.755820
H6    H     H_    0.919971 0.683996 0.202091 0.332344
C53   C     C_2   0.701510 0.725928 0.255548 0.847343
O13   O     O_2   0.766986 0.812124 0.244007 -0.540723
O14   O     O_R   0.620279 0.691010 0.189085 -0.746584
H7    H     H_    0.623997 0.744156 0.134559 0.345411
C54   C     C_2   0.308144 0.276847 0.739257 0.847689
O15   O     O_2   0.285651 0.275991 0.809052 -0.551586
O16   O     O_R   0.339621 0.202966 0.730882 -0.716837
H8    H     H_    0.340229 0.152765 0.786938 0.347888
C55   C     C_2   0.404799 0.670018 0.394056 0.843281
O17   O     O_2   0.397388 0.710241 0.449342 -0.584167
O18   O     O_R   0.354010 0.682492 0.308792 -0.724356
H9    H     H_    0.362348 0.643263 0.268720 0.299358
C56   C     C_2   0.668435 0.484882 0.670436 0.813601
O19   O     O_2   0.738511 0.568680 0.662513 -0.578058
O20   O     O_R   0.681419 0.406179 0.734430 -0.764090
H10   H     H_    0.752578 0.427422 0.768633 0.331594
H11   H     H_    0.962125 0.328097 0.082683 0.159216
H12   H     H_    0.036722 0.672252 0.916914 0.157110
H13   H     H_    0.869659 0.556971 0.011475 0.163540
H14   H     H_    0.129215 0.443399 0.988192 0.166935
H15   H     H_    0.635277 0.835170 0.597712 0.195769
H16   H     H_    0.363610 0.157205 0.515308 0.187179
H17   H     H_    0.316446 0.759461 0.537523 0.204675
H18   H     H_    0.684530 0.239485 0.522008 0.153366
H19   H     H_    0.067732 0.848410 0.472679 0.222161
H20   H     H_    0.923850 0.146756 0.535309 0.220380
C57   C     C_2   0.827741 0.948710 0.582460 0.844338
O21   O     O_2   0.883925 0.953798 0.533995 -0.538790
O22   O     O_R   0.810744 0.874353 0.657285 -0.755638
H21   H     H_    0.846826 0.827788 0.662800 0.358985
C58   C     C_2   0.166481 0.041032 0.497528 0.851628
O23   O     O_2   0.094917 0.040894 0.440196 -0.529652
O24   O     O_R   0.200368 0.106250 0.559668 -0.733514
H22   H     H_    0.161292 0.151056 0.549064 0.354240
H23   H     H_    0.462985 0.791154 0.598121 0.170102
H24   H     H_    0.539226 0.202569 0.540046 0.145875
H25   H     H_    0.550286 0.709287 0.313706 0.173261
H26   H     H_    0.493892 0.376004 0.723195 0.194378

loop_
_geom_bond_atom_site_label_1
_geom_bond_atom_site_label_2
_ccdc_geom_bond_type
C21   N1    A    
C56   O19   D    
C57   O21   D    
C7    H18   S    
C27   C29   A    
C18   H16   S    
O12   H6    S    
C15   H23   S    
C8    H17   S    
O16   H8    S    
C16   H24   S    
C19   C53   S    
C22   N2    A    
C20   C30   A    
O18   H9    S    
C23   O5    A    
C58   O24   S    
C21   C52   S    
C19   C21   A    
C25   N1    A    
Cu2   O7    S    
C38   H12   S    
C43   H14   S    
C24   C42   S    
C7    C9    A    
C53   O14   S    
C9    C13   A    
C38   C45   S    
C44   H13   S    
C2    C50   S    
C40   C43   S    
C31   C32   A    
C36   H26   S    
O24   H22   S    
C17   H15   S    
C4    C12   A    
Cu2   O6    S    
Cu1   O1    S    
C39   C45   S    
C3    C57   S    
C57   O22   S    
C13   C14   A    
C5    C49   A    
Cu1   O8    S    
C26   N2    A    
C44   C46   S    
C45   C47   S    
C46   C48   S    
C37   H11   S    
C27   C31   A    
Cu1   Cu2   S    
C28   C32   A    
C7    C49   A    
C4    C6    A    
C10   C14   A    
O20   H10   S    
C54   O16   S    
O14   H7    S    
C51   O9    D    
C51   O10   S    
C37   C43   S    
C40   C46   S    
C53   O13   D    
C38   C44   S    
C1    O3    A    
C33   C55   S    
C55   O17   D    
C5    H20   S    
C24   O6    A    
C41   C47   T    
C31   C34   A    
Cu1   O4    S    
C42   C48   T    
C6    C50   A    
C43   C45   S    
C10   C12   A    
C8    C10   A    
C55   O18   S    
C20   C22   A    
C9    C11   A    
Cu1   O5    S    
C19   C29   A    
C8    C50   A    
C35   H25   S    
Cu2   N1    S    
C52   O12   S    
C58   O23   D    
C15   C17   A    
C11   C17   A    
C24   O8    A    
C20   C54   S    
C26   H3    S    
C25   H4    S    
C3    C5    A    
C40   H2    S    
C2    O4    A    
C39   C44   S    
C25   C27   A    
C39   H1    S    
C4    C58   S    
C29   C35   A    
C26   C28   A    
C23   C41   S    
C30   C36   A    
Cu1   N2    S    
C6    H19   S    
C56   O20   S    
C1    O1    A    
C52   O11   D    
C37   C39   S    
C2    O2    A    
C32   C33   A    
C38   C40   S    
C28   C30   A    
C33   C35   A    
C34   C36   A    
C34   C56   S    
O10   H5    S    
C22   C51   S    
C3    C11   A    
Cu2   O3    S    
C54   O15   D    
C23   O7    A    
C16   C18   A    
C13   C16   A    
C12   C18   A    
O22   H21   S    
C14   C15   A    
C37   C46   S    
C1    C49   S    
Cu2   O2    S    
