data_mof_unit_677.cif
_audit_creation_date              2013-03-05T15:42:27-0500
_audit_creation_method            fapswitch 2.2
_symmetry_space_group_name_H-M    P1
_symmetry_Int_Tables_number       1
_space_group_crystal_system       triclinic
_cell_length_a                    11.014926
_cell_length_b                    11.159542
_cell_length_c                    18.647626
_cell_angle_alpha                 90.908557
_cell_angle_beta                  90.157368
_cell_angle_gamma                 61.380695
_cell_volume                      2011.85443748

loop_
_atom_site_label
_atom_site_type_symbol
_atom_site_description
_atom_site_fract_x
_atom_site_fract_y
_atom_site_fract_z
_atom_type_partial_charge
O1    O     O_R   0.507340 0.255690 0.581430 -0.465989
O2    O     O_R   0.280360 0.527380 0.578910 -0.502673
C1    C     C_R   0.254227 0.637724 0.613714 0.571096
O3    O     O_R   0.260600 0.739610 0.584580 -0.473699
O4    O     O_R   0.532370 0.695050 0.573830 -0.458447
C2    C     C_R   0.656598 0.622776 0.599313 0.572282
O5    O     O_R   0.744850 0.503430 0.576380 -0.403581
O6    O     O_R   0.699080 0.276500 0.571950 -0.436329
C3    C     C_R   0.632096 0.218284 0.598696 0.656412
O7    O     O_R   0.498860 0.256520 0.419860 -0.529845
O8    O     O_R   0.272490 0.528150 0.429140 -0.519779
C4    C     C_R   0.218119 0.648039 0.403699 0.559771
O9    O     O_R   0.252110 0.740440 0.423010 -0.433499
O10   O     O_R   0.524510 0.695820 0.424050 -0.427897
C5    C     C_R   0.641785 0.622653 0.391941 0.541292
O11   O     O_R   0.736370 0.504260 0.414810 -0.538524
O12   O     O_R   0.691220 0.277270 0.422180 -0.512679
C6    C     C_R   0.609373 0.239815 0.391612 0.545777
Cr1   Cr    Cr6+3 0.392940 0.397950 0.502230 1.098410
Cr2   Cr    Cr6+3 0.398400 0.708500 0.501260 1.186030
Cr3   Cr    Cr6+3 0.708640 0.393530 0.496460 1.134435
O13   O     O_3   0.499990 0.499990 0.499980 -0.322641
C7    C     C_3   0.647500 0.828552 0.769222 -0.178449
H1    H     H_    0.714725 0.877200 0.766789 0.037946
H2    H     H_    0.552328 0.897699 0.799669 0.253868
C8    C     C_3   0.608532 0.805909 0.691504 0.212392
H3    H     H_    0.642087 0.858579 0.652777 0.171882
H4    H     H_    0.944465 0.636469 0.780611 0.109835
H5    H     H_    0.857505 0.699513 0.670168 0.110697
C9    C     C_3   0.869048 0.600058 0.767344 -0.298255
C10   C     C_3   0.642468 0.615567 0.805547 0.266595
C11   C     C_3   0.729454 0.689539 0.808063 -0.057220
H6    H     H_    0.696373 0.517593 0.834778 0.201744
C12   C     C_3   0.684418 0.653063 0.673307 -0.018138
C13   C     C_3   0.841435 0.612068 0.686276 0.048098
C14   C     C_3   0.619079 0.590692 0.726809 0.127080
H7    H     H_    0.505864 0.644089 0.718104 0.211557
H8    H     H_    0.914331 0.491920 0.783795 0.196230
C15   C     C_R   0.701135 0.131055 0.816202 -0.014619
C16   C     C_R   0.818030 0.107846 0.773647 0.017549
C17   C     C_R   0.809941 0.102307 0.696795 0.019500
C18   C     C_R   0.576781 0.132563 0.707547 0.159179
C19   C     C_R   0.580700 0.151383 0.780913 -0.101404
C20   C     C_R   0.938219 0.101827 0.804288 -0.078370
C21   C     C_R   0.047746 0.087063 0.761368 -0.158258
C22   C     C_R   0.044219 0.070626 0.687569 -0.035605
C23   C     C_R   0.929292 0.071659 0.654797 0.264901
C24   C     C_R   0.680919 0.134304 0.664535 0.044302
H9    H     H_    0.946287 0.119185 0.860614 0.170601
H10   H     H_    0.491067 0.167741 0.811656 0.182706
H11   H     H_    0.137754 0.085339 0.785820 0.141596
H12   H     H_    0.134047 0.052401 0.656044 0.203641
H13   H     H_    0.253922 0.822155 0.704438 0.200506
C25   C     C_R   0.208051 0.658144 0.842964 0.029455
C26   C     C_R   0.228944 0.537939 0.808146 0.026106
C27   C     C_R   0.227152 0.532958 0.731998 0.020001
C28   C     C_R   0.238423 0.745562 0.731162 -0.147946
C29   C     C_R   0.226601 0.754768 0.804878 -0.068415
C30   C     C_R   0.238398 0.427676 0.848242 -0.086464
C31   C     C_R   0.209971 0.331787 0.816282 -0.135273
C32   C     C_R   0.190169 0.335504 0.743047 -0.050640
C33   C     C_R   0.213656 0.424123 0.700596 -0.029233
C34   C     C_R   0.231156 0.640639 0.692432 -0.003706
H14   H     H_    0.258712 0.420458 0.905298 0.149614
H15   H     H_    0.222222 0.843552 0.831616 0.182775
H16   H     H_    0.204269 0.254247 0.848018 0.131839
H17   H     H_    0.165981 0.261714 0.718405 0.218512
H18   H     H_    0.211089 0.407880 0.644142 0.221448
C35   C     C_R   0.648346 0.663108 0.165937 0.000327
C36   C     C_R   0.744267 0.548165 0.203514 0.016463
C37   C     C_R   0.766201 0.567620 0.275935 -0.061941
C38   C     C_R   0.536579 0.761784 0.279884 0.186699
C39   C     C_R   0.541786 0.768991 0.204867 -0.133576
C40   C     C_R   0.835604 0.423782 0.168592 0.242008
C41   C     C_R   0.964107 0.343931 0.199069 -0.072546
C42   C     C_R   0.996260 0.378419 0.266109 -0.122995
C43   C     C_R   0.897786 0.488157 0.304876 -0.104441
C44   C     C_R   0.653591 0.661510 0.317332 -0.017690
H19   H     H_    0.461653 0.855558 0.177253 0.156307
H20   H     H_    0.034864 0.251264 0.171943 0.121985
H21   H     H_    0.094136 0.317324 0.290826 0.130545
H22   H     H_    0.925235 0.510744 0.357266 0.158263
H23   H     H_    0.777187 0.276656 0.303312 0.145611
C45   C     C_R   0.628462 0.200068 0.165637 0.039185
C46   C     C_R   0.509273 0.217243 0.201700 0.026906
C47   C     C_R   0.519769 0.193268 0.275656 0.005027
C48   C     C_R   0.710358 0.244524 0.276376 -0.163177
C49   C     C_R   0.725908 0.219209 0.203549 -0.125821
C50   C     C_R   0.393283 0.229295 0.164254 0.017639
C51   C     C_R   0.315941 0.174429 0.192654 -0.087834
C52   C     C_R   0.334175 0.134454 0.263440 -0.133217
C53   C     C_R   0.432049 0.147456 0.305812 -0.084476
C54   C     C_R   0.620095 0.213763 0.314511 0.001613
H24   H     H_    0.373366 0.264701 0.109509 0.172279
H25   H     H_    0.820041 0.201913 0.178206 0.150444
H26   H     H_    0.247249 0.157455 0.158226 0.119734
H27   H     H_    0.267771 0.098309 0.285648 0.188381
H28   H     H_    0.443206 0.112926 0.360140 0.206505
H29   H     H_    0.215679 0.459047 0.311947 0.158502
C55   C     C_R   0.062234 0.722178 0.197589 0.012524
C56   C     C_R   0.035047 0.831653 0.247166 -0.011083
C57   C     C_R   0.043912 0.805443 0.321240 0.011401
C58   C     C_R   0.154529 0.563953 0.295476 -0.117744
C59   C     C_R   0.115795 0.589156 0.224351 0.355329
C60   C     C_R   0.018109 0.960588 0.228070 -0.065835
C61   C     C_R   0.010486 0.053169 0.281378 -0.098349
C62   C     C_R   0.989754 0.034949 0.352532 -0.045250
C63   C     C_R   0.998452 0.912778 0.372119 -0.040521
C64   C     C_R   0.126457 0.672353 0.342831 -0.045957
H30   H     H_    0.022889 0.990040 0.174185 0.160158
H31   H     H_    0.015830 0.141804 0.267782 0.083918
H32   H     H_    0.973758 0.112589 0.392488 0.166564
H33   H     H_    0.991512 0.894807 0.428417 0.195080
O14   O     O_R   0.089570 0.825450 0.930590 -0.518806
O15   O     O_R   0.818700 0.054260 0.929860 -0.494685
C65   C     C_R   0.706511 0.094787 0.893418 0.541922
O16   O     O_R   0.606310 0.077010 0.915520 -0.539626
O17   O     O_R   0.646730 0.806540 0.917560 -0.443829
C66   C     C_R   0.755870 0.709149 0.883788 0.564201
O18   O     O_R   0.837290 0.593240 0.915240 -0.500356
O19   O     O_R   0.065320 0.635310 0.931580 -0.529869
C67   C     C_R   0.123994 0.704323 0.908723 0.535381
O20   O     O_R   0.068470 0.828620 0.091850 -0.525730
O21   O     O_R   0.799150 0.057200 0.079350 -0.495494
C68   C     C_R   0.671470 0.115656 0.100342 0.571161
O22   O     O_R   0.585220 0.080180 0.076770 -0.544616
O23   O     O_R   0.627170 0.809480 0.067050 -0.506044
C69   C     C_R   0.693875 0.689012 0.096122 0.588376
O24   O     O_R   0.816200 0.596410 0.076500 -0.456815
O25   O     O_R   0.045770 0.638240 0.081070 -0.415384
C70   C     C_R   0.033582 0.743695 0.120035 0.558730
Cr4   Cr    Cr6+3 0.937880 0.938320 0.007620 1.052633
Cr5   Cr    Cr6+3 0.625560 0.937220 0.994510 1.040521
Cr6   Cr    Cr6+3 0.938080 0.625010 0.001190 1.089188
O26   O     O_3   0.833840 0.833520 0.001110 -0.329036
N1    N     N_R   0.662352 0.447709 0.714732 0.044209
O27   O     O_R   0.788285 0.358953 0.729560 -0.342833
O28   O     O_R   0.567192 0.410511 0.714427 -0.397816
N2    N     N_R   0.943130 0.497367 0.642731 0.073698
O29   O     O_R   0.964205 0.373721 0.651385 -0.296547
O30   O     O_R   0.989397 0.524202 0.584252 -0.357253
N3    N     N_R   0.467270 0.108928 0.679148 0.075828
O31   O     O_R   0.467787 0.069830 0.612883 -0.281219
O32   O     O_R   0.391058 0.086636 0.724200 -0.372131
N4    N     N_R   0.939510 0.031196 0.580493 0.061681
O33   O     O_R   0.883476 0.957836 0.558317 -0.397596
O34   O     O_R   0.020597 0.050755 0.537195 -0.343096
N5    N     N_R   0.407288 0.846410 0.314691 0.074100
O35   O     O_R   0.398047 0.921338 0.370737 -0.354995
O36   O     O_R   0.296145 0.851274 0.288211 -0.361590
N6    N     N_R   0.800473 0.381519 0.101306 0.073751
O37   O     O_R   0.896536 0.289559 0.060349 -0.357340
O38   O     O_R   0.671816 0.430331 0.082228 -0.333768
F1    F     F_    0.467152 0.855191 0.685298 -0.586959
F2    F     F_    0.146460 0.480528 0.180500 -0.640613
F3    F     F_    0.516188 0.692932 0.839829 -0.628359

loop_
_geom_bond_atom_site_label_1
_geom_bond_atom_site_label_2
_geom_bond_distance
_ccdc_geom_bond_type
C20   H9    1.076176 S    
H23   C48   1.080680 S    
C48   C49   1.377017 A    
C23   N4    1.438332 S    
C56   C57   1.409887 A    
C26   C30   1.410679 A    
O20   Cr4   2.096779 S    
C62   H32   1.082082 S    
H29   C58   1.083249 S    
C26   C27   1.420628 A    
O16   Cr5   2.098208 S    
C69   O24   1.293878 A    
C10   F3    1.387734 S    
C51   C52   1.383150 A    
C55   C70   1.478059 S    
C53   H28   1.075296 S    
O4    Cr2   1.953133 S    
C21   C22   1.388358 A    
C9    H8    1.110619 S    
C30   H14   1.082914 S    
O11   Cr3   2.088607 S    
C9    C13   1.536441 S    
C14   H7    1.107546 S    
C60   H30   1.071354 S    
N5    O36   1.295919 A    
C35   C36   1.406716 A    
C10   C14   1.533884 S    
C46   C47   1.402876 A    
O4    C2    1.303863 A    
C5    C44   1.488202 S    
C61   C62   1.381575 A    
C21   H11   1.082012 S    
C5    O11   1.307549 A    
C22   H12   1.082862 S    
C55   C59   1.408415 A    
C65   O16   1.281504 A    
O21   Cr4   1.974117 S    
C12   C13   1.581867 S    
C7    C8    1.561186 S    
C50   H24   1.083939 S    
O17   C66   1.324321 A    
C38   C44   1.428011 A    
O23   Cr5   1.974592 S    
C13   N2    1.466636 S    
C22   C23   1.399323 A    
C8    C12   1.529899 S    
O22   Cr5   2.083911 S    
O6    C3    1.298720 A    
C18   N3    1.449793 S    
C7    H1    1.109579 S    
C10   H6    1.113677 S    
C57   C63   1.406288 A    
C36   C37   1.403004 A    
O19   Cr6   1.957431 S    
C41   H20   1.070604 S    
O18   Cr6   2.067933 S    
O15   Cr4   1.980376 S    
C7    H2    1.109586 S    
C25   C67   1.468204 S    
C49   H25   1.069473 S    
C31   H16   1.082329 S    
C30   C31   1.377690 A    
Cr3   O13   2.020010 S    
O25   Cr6   1.949046 S    
C14   N1    1.443793 S    
C4    C64   1.456849 S    
N4    O34   1.301380 A    
N4    O33   1.301564 A    
C61   H31   1.053542 S    
C56   C60   1.410909 A    
N2    O29   1.297648 A    
O1    Cr1   2.106449 S    
C40   C41   1.387044 A    
O10   Cr2   1.959284 S    
C17   C23   1.423034 A    
Cr1   O13   1.994219 S    
O1    C3    1.272241 A    
C42   C43   1.379347 A    
C35   C69   1.477951 S    
N1    O28   1.299131 A    
C52   C53   1.396114 A    
C46   C50   1.404087 A    
N1    O27   1.293068 A    
C15   C19   1.398558 A    
O5    Cr3   2.071628 S    
O12   Cr3   1.954161 S    
C2    C12   1.481267 S    
C31   C32   1.380518 A    
O14   C67   1.276549 A    
C63   H33   1.081656 S    
C41   C42   1.396156 A    
C36   C40   1.414242 A    
C47   C54   1.425130 A    
C32   H17   1.075984 S    
C29   H15   1.082251 S    
C10   C11   1.535545 S    
O7    Cr1   2.092957 S    
C62   C63   1.375439 A    
O8    Cr1   1.983731 S    
O12   C6    1.289573 A    
C39   H19   1.083476 S    
C27   C34   1.438536 A    
C18   C24   1.409376 A    
C45   C46   1.404379 A    
C35   C39   1.396333 A    
O19   C67   1.296624 A    
C2    O5    1.282809 A    
O17   Cr5   1.962102 S    
C16   C17   1.437805 A    
Cr2   O13   2.042330 S    
C8    H3    1.107543 S    
C68   O22   1.266891 A    
C27   C33   1.410693 A    
C40   N6    1.449120 S    
C8    F1    1.386203 S    
C18   C19   1.384542 A    
C11   C66   1.474959 S    
O23   C69   1.309867 A    
C37   C43   1.399285 A    
N3    O32   1.297283 A    
C20   C21   1.390650 A    
C25   C29   1.394633 A    
C45   C68   1.460704 S    
C25   C26   1.396929 A    
H13   C28   1.077887 S    
O9    Cr2   2.075121 S    
O20   C70   1.299199 A    
O2    Cr1   1.974079 S    
N3    O31   1.303032 A    
O14   Cr4   2.093154 S    
C45   C49   1.381380 A    
C28   C34   1.400597 A    
C38   C39   1.405384 A    
O6    Cr3   1.972117 S    
C42   H21   1.068964 S    
C66   O18   1.315786 A    
C19   H10   1.078824 S    
C51   H26   1.072998 S    
Cr6   O26   2.042885 S    
O3    Cr2   2.080745 S    
C1    C34   1.487618 S    
C60   C61   1.395500 A    
H5    C13   1.117536 S    
C33   H18   1.067993 S    
C58   C64   1.395727 A    
C7    C11   1.560962 S    
H4    C9    1.111503 S    
O2    C1    1.287058 A    
C52   H27   1.076467 S    
C38   N5    1.427769 S    
C9    C11   1.565070 S    
N2    O30   1.303134 A    
C28   C29   1.378695 A    
C43   H22   1.083029 S    
O7    C6    1.255800 A    
Cr4   O26   1.993609 S    
C48   C54   1.396655 A    
C55   C56   1.432523 A    
C17   C24   1.423054 A    
O25   C70   1.323998 A    
C12   C14   1.582288 S    
N5    O35   1.301205 A    
N6    O38   1.302095 A    
C59   F2    1.352814 S    
C32   C33   1.393781 A    
O24   Cr6   2.076395 S    
C15   C16   1.426303 A    
C16   C20   1.412632 A    
C4    O9    1.300176 A    
C3    C24   1.491624 S    
C15   C65   1.495202 S    
C58   C59   1.383479 A    
Cr5   O26   2.019225 S    
C6    C54   1.456160 S    
O10   C5    1.293133 A    
C57   C64   1.384907 A    
C47   C53   1.412981 A    
O15   C65   1.289637 A    
C50   C51   1.376079 A    
N6    O37   1.302087 A    
C37   C44   1.402465 A    
C1    O3    1.299657 A    
O8    C4    1.274635 A    
O21   C68   1.293342 A    
