data_mof_unit_3508.cif
_audit_creation_date              2012-12-11T14:28:26-0500
_audit_creation_method            fapswitch 2.2
_symmetry_space_group_name_H-M    P1
_symmetry_Int_Tables_number       1
_space_group_crystal_system       monoclinic
_cell_length_a                    11.120034
_cell_length_b                    19.572184
_cell_length_c                    18.218729
_cell_angle_alpha                 90.0
_cell_angle_beta                  90.697319
_cell_angle_gamma                 90.0
_cell_volume                      3964.89157954

loop_
_atom_site_label
_atom_site_type_symbol
_atom_type_description
_atom_site_fract_x
_atom_site_fract_y
_atom_site_fract_z
_atom_type_partial_charge
C1    C     C_R   0.318232 0.968370 0.645618 0.566186
C2    C     C_3   0.080440 0.664058 0.012366 -0.127705
C3    C     C_3   0.094746 0.228954 0.968602 -0.018276
C4    C     C_3   0.594747 0.271046 0.468602 -0.018276
C5    C     C_3   0.599100 0.273299 0.033029 -0.011158
C6    C     C_3   0.599100 0.726701 0.533029 -0.011158
C7    C     C_3   0.594746 0.728954 0.968602 -0.018276
C8    C     C_3   0.156675 0.718457 0.518551 -0.146221
C9    C     C_3   0.161190 0.720331 0.984128 -0.153395
C10   C     C_3   0.161191 0.279669 0.484128 -0.153395
C11   C     C_3   0.156675 0.281543 0.018551 -0.146221
C12   C     C_3   0.656675 0.218457 0.518551 -0.146221
C13   C     C_3   0.080439 0.335942 0.512366 -0.127705
C14   C     C_3   0.661191 0.220331 0.984128 -0.153395
C15   C     C_3   0.661191 0.779668 0.484128 -0.153395
C16   C     C_3   0.656675 0.781543 0.018551 -0.146221
C17   C     C_3   0.065135 0.735604 0.578618 0.037197
C18   C     C_3   0.069807 0.737942 0.922661 0.032442
C19   C     C_3   0.069806 0.262058 0.422661 0.032442
C20   C     C_3   0.065135 0.264396 0.078618 0.037197
C21   C     C_3   0.565135 0.235604 0.578618 0.037197
C22   C     C_3   0.569807 0.237942 0.922661 0.032442
C23   C     C_3   0.569806 0.762058 0.422661 0.032442
C24   C     C_3   0.077704 0.338246 0.988777 -0.125180
C25   C     C_3   0.565135 0.764396 0.078618 0.037197
C26   C     C_3   0.999553 0.785464 0.527987 -0.014387
C27   C     C_3   0.005146 0.788350 0.972627 -0.003534
C28   C     C_3   0.005147 0.211649 0.472627 -0.003534
C29   C     C_3   0.999553 0.214536 0.027987 -0.014387
C30   C     C_3   0.499554 0.285464 0.527986 -0.014387
C31   C     C_3   0.505146 0.288351 0.972627 -0.003534
C32   C     C_3   0.505146 0.711649 0.472627 -0.003534
C33   C     C_3   0.499553 0.714536 0.027986 -0.014387
C34   C     C_3   0.921187 0.724761 0.499284 -0.153406
C35   C     C_3   0.577704 0.161754 0.488777 -0.125181
C36   C     C_3   0.924875 0.728491 0.999699 -0.144607
C37   C     C_3   0.924875 0.271509 0.499700 -0.144606
C38   C     C_3   0.921187 0.275239 0.999284 -0.153406
C39   C     C_3   0.421187 0.224761 0.499284 -0.153406
C40   C     C_3   0.424875 0.228490 0.999699 -0.144606
C41   C     C_3   0.424875 0.771509 0.499700 -0.144607
C42   C     C_3   0.421187 0.775239 0.999284 -0.153406
C43   C     C_3   0.988719 0.675209 0.551029 -0.121473
C44   C     C_3   0.991792 0.678283 0.948948 -0.120232
C45   C     C_3   0.991792 0.321717 0.448948 -0.120232
C46   C     C_3   0.580440 0.164058 0.012366 -0.127704
C47   C     C_3   0.988719 0.324791 0.051029 -0.121473
C48   C     C_3   0.488719 0.175209 0.551029 -0.121473
C49   C     C_3   0.491792 0.178283 0.948948 -0.120232
C50   C     C_3   0.491792 0.821717 0.448948 -0.120232
C51   C     C_3   0.488719 0.824791 0.051029 -0.121473
C52   C     C_1   0.178035 0.802465 0.417383 0.254987
C53   C     C_1   0.173117 0.813417 0.084138 0.278781
C54   C     C_1   0.173117 0.186583 0.584138 0.278780
C55   C     C_1   0.178035 0.197535 0.917383 0.254987
C56   C     C_1   0.678035 0.302465 0.417383 0.254987
C57   C     C_3   0.580440 0.835942 0.512366 -0.127704
C58   C     C_1   0.673117 0.313417 0.084138 0.278781
C59   C     C_1   0.673117 0.686583 0.584137 0.278780
C60   C     C_1   0.678035 0.697535 0.917383 0.254987
C61   C     C_1   0.934705 0.842621 0.560833 0.210018
C62   C     C_1   0.947636 0.850195 0.944031 0.236330
C63   C     C_1   0.947636 0.149805 0.444031 0.236330
C64   C     C_1   0.934705 0.157379 0.060833 0.210018
C65   C     C_1   0.434706 0.342621 0.560833 0.210019
C66   C     C_1   0.447635 0.350195 0.944031 0.236330
C67   C     C_1   0.447635 0.649805 0.444031 0.236330
C68   C     C_3   0.577704 0.838246 0.988777 -0.125180
C69   C     C_1   0.434706 0.657379 0.060833 0.210019
C70   C     C_3   0.014906 0.714168 0.440116 0.011591
C71   C     C_3   0.018220 0.716898 0.060277 0.014031
C72   C     C_3   0.018220 0.283102 0.560277 0.014031
C73   C     C_R   0.320696 0.971405 0.850970 0.571710
C74   C     C_3   0.014906 0.285832 0.940116 0.011591
C75   C     C_3   0.514906 0.214168 0.440116 0.011591
C76   C     C_3   0.518220 0.216898 0.060277 0.014031
C77   C     C_3   0.518220 0.783102 0.560277 0.014031
C78   C     C_3   0.514906 0.785832 0.940116 0.011591
C79   C     C_R   0.328859 0.987192 0.417965 -0.009216
C80   C     C_R   0.319335 0.001633 0.071200 -0.006401
C81   C     C_R   0.319335 0.998367 0.571200 -0.006401
C82   C     C_R   0.328859 0.012808 0.917965 -0.009216
C83   C     C_R   0.828859 0.487192 0.417965 -0.009216
C84   C     C_R   0.320696 0.028595 0.350969 0.571710
C85   C     C_R   0.819335 0.501633 0.071200 -0.006401
C86   C     C_R   0.819335 0.498367 0.571200 -0.006401
C87   C     C_R   0.828859 0.512808 0.917965 -0.009216
C88   C     C_R   0.550356 0.985081 0.425959 -0.097145
C89   C     C_R   0.539163 0.985233 0.074977 -0.093443
C90   C     C_R   0.539163 0.014767 0.574977 -0.093443
C91   C     C_R   0.550356 0.014919 0.925959 -0.097145
C92   C     C_R   0.050356 0.485081 0.425959 -0.097145
C93   C     C_R   0.039163 0.485233 0.074977 -0.093443
C94   C     C_R   0.039163 0.514767 0.574977 -0.093443
C95   C     C_R   0.318232 0.031630 0.145618 0.566185
C96   C     C_R   0.050356 0.514919 0.925959 -0.097145
C97   C     C_R   0.655931 0.993642 0.466962 -0.149152
C98   C     C_R   0.649840 0.989295 0.041180 -0.140652
C99   C     C_R   0.649840 0.010705 0.541180 -0.140652
C100  C     C_R   0.655931 0.006358 0.966962 -0.149152
C101  C     C_R   0.155931 0.493642 0.466962 -0.149152
C102  C     C_R   0.149840 0.489295 0.041180 -0.140653
C103  C     C_R   0.149840 0.510705 0.541180 -0.140653
C104  C     C_R   0.155931 0.506358 0.966962 -0.149152
C105  C     C_R   0.431394 0.001294 0.535675 -0.017469
C106  C     C_R   0.818232 0.468370 0.645618 0.566185
C107  C     C_R   0.436702 0.008951 0.959365 -0.017440
C108  C     C_R   0.436702 0.991049 0.459365 -0.017441
C109  C     C_R   0.431394 0.998706 0.035675 -0.017469
C110  C     C_R   0.931394 0.501294 0.535675 -0.017469
C111  C     C_R   0.936702 0.508951 0.959365 -0.017440
C112  C     C_R   0.936702 0.491049 0.459365 -0.017440
C113  C     C_R   0.931394 0.498706 0.035675 -0.017469
C114  C     C_R   0.210304 0.995067 0.528107 -0.029464
C115  C     C_R   0.218350 0.024623 0.953436 -0.032441
C116  C     C_R   0.218350 0.975377 0.453436 -0.032441
C117  C     C_R   0.820696 0.471405 0.850970 0.571710
C118  C     C_R   0.210304 0.004933 0.028107 -0.029464
C119  C     C_R   0.710304 0.495067 0.528107 -0.029464
C120  C     C_R   0.718350 0.524623 0.953436 -0.032441
C121  C     C_R   0.718350 0.475377 0.453436 -0.032441
C122  C     C_R   0.710304 0.504933 0.028107 -0.029464
C123  C     C_R   0.092273 0.009354 0.555385 0.259340
C124  C     C_R   0.110894 0.045074 0.914166 0.254266
C125  C     C_R   0.110894 0.954926 0.414166 0.254266
C126  C     C_R   0.092273 0.990646 0.055385 0.259340
C127  C     C_R   0.592273 0.509354 0.555385 0.259340
C128  C     C_R   0.820696 0.528595 0.350969 0.571710
C129  C     C_R   0.610894 0.545074 0.914166 0.254266
C130  C     C_R   0.610894 0.454926 0.414166 0.254266
C131  C     C_R   0.592273 0.490646 0.055385 0.259340
C132  C     C_R   0.991651 0.993420 0.513488 -0.098969
C133  C     C_R   0.000565 0.038262 0.946523 -0.110287
C134  C     C_R   0.000565 0.961738 0.446523 -0.110286
C135  C     C_R   0.991651 0.006580 0.013489 -0.098969
C136  C     C_R   0.491651 0.493420 0.513488 -0.098969
C137  C     C_R   0.500565 0.538262 0.946523 -0.110286
C138  C     C_R   0.500565 0.461738 0.446523 -0.110286
C139  C     C_R   0.818232 0.531630 0.145618 0.566185
C140  C     C_R   0.491651 0.506580 0.013489 -0.098969
C141  C     C_R   0.126309 0.754809 0.647791 0.527176
C142  C     C_R   0.128305 0.755465 0.853086 0.527997
C143  C     C_R   0.128305 0.244535 0.353086 0.527997
C144  C     C_R   0.126309 0.245191 0.147791 0.527176
C145  C     C_R   0.626309 0.254809 0.647791 0.527176
C146  C     C_R   0.628305 0.255465 0.853086 0.527997
C147  C     C_R   0.628305 0.744535 0.353086 0.527998
C148  C     C_R   0.626309 0.745191 0.147791 0.527176
C149  C     C_R   0.493453 0.789803 0.638230 0.554984
C150  C     C_3   0.077704 0.661754 0.488777 -0.125180
C151  C     C_R   0.492111 0.790824 0.861121 0.560616
C152  C     C_R   0.492111 0.209175 0.361121 0.560616
C153  C     C_R   0.493453 0.210196 0.138230 0.554984
C154  C     C_R   0.993453 0.289804 0.638230 0.554984
C155  C     C_R   0.992111 0.290824 0.861121 0.560616
C156  C     C_R   0.992111 0.709175 0.361121 0.560616
C157  C     C_R   0.993453 0.710196 0.138230 0.554984
C158  C     C_3   0.094746 0.771046 0.468602 -0.018276
C159  C     C_3   0.099100 0.773298 0.033029 -0.011158
C160  C     C_3   0.099100 0.226701 0.533029 -0.011158
Cl1   Cl    Cl    0.100840 0.926277 0.321501 -0.459486
Cl2   Cl    Cl    0.055400 0.948153 0.137690 -0.492042
Cl3   Cl    Cl    0.055400 0.051847 0.637690 -0.492042
Cl4   Cl    Cl    0.100840 0.073722 0.821501 -0.459485
Cl5   Cl    Cl    0.600840 0.426277 0.321501 -0.459486
Cl6   Cl    Cl    0.555400 0.448153 0.137690 -0.492042
Cl7   Cl    Cl    0.555400 0.551847 0.637690 -0.492042
Cl8   Cl    Cl    0.600840 0.573723 0.821501 -0.459486
Cr1   Cr    Cr6+3 0.488160 0.884660 0.750000 1.025275
Cr2   Cr    Cr6+3 0.333410 0.272740 0.250000 1.090381
Cr3   Cr    Cr6+3 0.833410 0.227260 0.750000 1.090381
Cr4   Cr    Cr6+3 0.833410 0.772740 0.250000 1.090381
Cr5   Cr    Cr6+3 0.488160 0.115340 0.250000 1.025275
Cr6   Cr    Cr6+3 0.988160 0.384660 0.750000 1.025274
Cr7   Cr    Cr6+3 0.988160 0.615340 0.250000 1.025275
Cr8   Cr    Cr6+3 0.173480 0.883120 0.750000 1.124594
Cr9   Cr    Cr6+3 0.173480 0.116880 0.250000 1.124594
Cr10  Cr    Cr6+3 0.673480 0.383120 0.750000 1.124594
Cr11  Cr    Cr6+3 0.673480 0.616880 0.250000 1.124594
Cr12  Cr    Cr6+3 0.333410 0.727260 0.750000 1.090381
H1    H     H_    0.247860 0.698939 0.530516 0.145497
H2    H     H_    0.920128 0.053308 0.916873 0.150809
H3    H     H_    0.920128 0.946692 0.416873 0.150809
H4    H     H_    0.904199 0.994855 0.033682 0.158146
H5    H     H_    0.404199 0.505146 0.533681 0.158145
H6    H     H_    0.420128 0.553308 0.916873 0.150810
H7    H     H_    0.420128 0.446692 0.416872 0.150810
H8    H     H_    0.404199 0.494854 0.033682 0.158145
H9    H     H_    0.833286 0.705590 0.481051 0.098839
H10   H     H_    0.837008 0.710470 0.017610 0.096361
H11   H     H_    0.837008 0.289530 0.517610 0.096361
H12   H     H_    0.250958 0.699669 0.972352 0.142807
H13   H     H_    0.833286 0.294409 0.981051 0.098839
H14   H     H_    0.333286 0.205591 0.481051 0.098839
H15   H     H_    0.337008 0.210470 0.017610 0.096361
H16   H     H_    0.337008 0.789531 0.517610 0.096361
H17   H     H_    0.333286 0.794409 0.981051 0.098839
H18   H     H_    0.946326 0.637677 0.587678 0.150045
H19   H     H_    0.952295 0.640276 0.911044 0.155743
H20   H     H_    0.952295 0.359724 0.411044 0.155743
H21   H     H_    0.946326 0.362323 0.087678 0.150045
H22   H     H_    0.446326 0.137677 0.587678 0.150045
H23   H     H_    0.250958 0.300331 0.472352 0.142807
H24   H     H_    0.452295 0.140276 0.911044 0.155743
H25   H     H_    0.452295 0.859724 0.411044 0.155743
H26   H     H_    0.446326 0.862323 0.087678 0.150045
H27   H     H_    0.115168 0.616438 0.463006 0.177638
H28   H     H_    0.115366 0.616811 0.036513 0.180799
H29   H     H_    0.115365 0.383189 0.536513 0.180799
H30   H     H_    0.115168 0.383562 0.963006 0.177638
H31   H     H_    0.615167 0.116438 0.463006 0.177638
H32   H     H_    0.615366 0.116811 0.036513 0.180799
H33   H     H_    0.615366 0.883189 0.536513 0.180799
H34   H     H_    0.247861 0.301061 0.030516 0.145497
H35   H     H_    0.615167 0.883562 0.963006 0.177638
H36   H     H_    0.741327 0.990245 0.440237 0.138784
H37   H     H_    0.729139 0.978033 0.073359 0.151699
H38   H     H_    0.729139 0.021967 0.573359 0.151699
H39   H     H_    0.741327 0.009754 0.940237 0.138784
H40   H     H_    0.241327 0.490245 0.440237 0.138784
H41   H     H_    0.229139 0.478033 0.073359 0.151699
H42   H     H_    0.229139 0.521967 0.573359 0.151699
H43   H     H_    0.241327 0.509755 0.940237 0.138784
H44   H     H_    0.558056 0.971912 0.368493 0.143319
H45   H     H_    0.747860 0.198939 0.530516 0.145497
H46   H     H_    0.538624 0.968786 0.131683 0.143140
H47   H     H_    0.538624 0.031214 0.631683 0.143140
H48   H     H_    0.558056 0.028088 0.868493 0.143318
H49   H     H_    0.058056 0.471912 0.368493 0.143319
H50   H     H_    0.038624 0.468786 0.131683 0.143140
H51   H     H_    0.038624 0.531214 0.631683 0.143140
H52   H     H_    0.058056 0.528088 0.868493 0.143319
H53   H     H_    0.750958 0.199669 0.972352 0.142807
H54   H     H_    0.750958 0.800331 0.472351 0.142807
H55   H     H_    0.747860 0.801061 0.030516 0.145497
H56   H     H_    0.904199 0.005145 0.533681 0.158145
N1    N     N_1   0.247823 0.821648 0.375704 -0.237120
N2    N     N_1   0.899092 0.897139 0.919159 -0.307198
N3    N     N_1   0.899092 0.102861 0.419159 -0.307198
N4    N     N_1   0.879653 0.115247 0.089592 -0.289716
N5    N     N_1   0.379654 0.384754 0.589592 -0.289715
N6    N     N_1   0.399091 0.397139 0.919159 -0.307198
N7    N     N_1   0.399091 0.602861 0.419159 -0.307198
N8    N     N_1   0.379654 0.615246 0.089592 -0.289716
N9    N     N_1   0.233906 0.842076 0.125847 -0.220591
N10   N     N_1   0.233905 0.157924 0.625847 -0.220591
N11   N     N_1   0.247823 0.178351 0.875704 -0.237121
N12   N     N_1   0.747823 0.321648 0.375703 -0.237120
N13   N     N_1   0.733906 0.342076 0.125847 -0.220591
N14   N     N_1   0.733905 0.657924 0.625847 -0.220591
N15   N     N_1   0.747823 0.678352 0.875703 -0.237120
N16   N     N_1   0.879653 0.884753 0.589592 -0.289716
O1    O     O_R   0.575450 0.828820 0.667950 -0.487795
O2    O     O_R   0.416860 0.942890 0.825320 -0.542032
O3    O     O_R   0.416860 0.057110 0.325320 -0.542032
O4    O     O_R   0.416860 0.057110 0.174680 -0.542654
O5    O     O_R   0.916860 0.442890 0.674680 -0.542654
O6    O     O_R   0.916860 0.442890 0.825320 -0.542032
O7    O     O_R   0.916860 0.557110 0.325320 -0.542032
O8    O     O_R   0.916860 0.557110 0.174680 -0.542654
O9    O     O_R   0.213790 0.953680 0.668330 -0.427440
O10   O     O_R   0.213790 0.953680 0.831670 -0.444271
O11   O     O_R   0.213790 0.046320 0.331670 -0.444271
O12   O     O_R   0.575450 0.828820 0.832050 -0.488924
O13   O     O_R   0.213790 0.046320 0.168330 -0.427440
O14   O     O_R   0.713790 0.453680 0.668330 -0.427440
O15   O     O_R   0.713790 0.453680 0.831670 -0.444271
O16   O     O_R   0.713790 0.546320 0.331670 -0.444271
O17   O     O_R   0.713790 0.546320 0.168330 -0.427440
O18   O     O_R   0.121360 0.817890 0.672660 -0.491015
O19   O     O_R   0.121360 0.817890 0.827340 -0.492369
O20   O     O_R   0.121360 0.182110 0.327340 -0.492369
O21   O     O_R   0.121360 0.182110 0.172660 -0.491016
O22   O     O_R   0.621360 0.317890 0.672660 -0.491016
O23   O     O_R   0.575450 0.171180 0.332050 -0.488924
O24   O     O_R   0.621360 0.317890 0.827340 -0.492369
O25   O     O_R   0.621360 0.682110 0.327340 -0.492370
O26   O     O_R   0.621360 0.682110 0.172660 -0.491016
O27   O     O_R   0.206850 0.711370 0.665820 -0.531115
O28   O     O_R   0.206850 0.711370 0.834180 -0.537015
O29   O     O_R   0.206850 0.288630 0.334180 -0.537015
O30   O     O_R   0.206850 0.288630 0.165820 -0.531116
O31   O     O_R   0.706850 0.211370 0.665820 -0.531115
O32   O     O_R   0.706850 0.211370 0.834180 -0.537015
O33   O     O_R   0.706850 0.788630 0.334180 -0.537015
O34   O     O_R   0.575450 0.171180 0.167950 -0.487795
O35   O     O_R   0.706850 0.788630 0.165820 -0.531115
O36   O     O_R   0.457710 0.733190 0.672630 -0.439810
O37   O     O_R   0.457710 0.733190 0.827370 -0.447588
O38   O     O_R   0.457710 0.266810 0.327370 -0.447588
O39   O     O_R   0.457710 0.266810 0.172630 -0.439810
O40   O     O_R   0.957710 0.233190 0.672630 -0.439810
O41   O     O_R   0.957710 0.233190 0.827370 -0.447588
O42   O     O_R   0.957710 0.766810 0.327370 -0.447588
O43   O     O_R   0.957710 0.766810 0.172630 -0.439810
O44   O     O_3   0.331690 0.831680 0.750000 -0.351692
O45   O     O_R   0.075450 0.328820 0.667950 -0.487795
O46   O     O_3   0.331690 0.168320 0.250000 -0.351692
O47   O     O_3   0.831690 0.331680 0.750000 -0.351692
O48   O     O_3   0.831690 0.668320 0.250000 -0.351692
O49   O     O_R   0.075450 0.328820 0.832050 -0.488924
O50   O     O_R   0.075450 0.671180 0.332050 -0.488924
O51   O     O_R   0.075450 0.671180 0.167950 -0.487795
O52   O     O_R   0.416860 0.942890 0.674680 -0.542654

loop_
_geom_bond_atom_site_label_1
_geom_bond_atom_site_label_2
_ccdc_geom_bond_type
C93   H50   S    
C6    C32   S    
C20   C144  S    
C70   C150  S    
C83   C128  S    
Cr6   O5    S    
C51   H26   S    
C45   H20   S    
C139  O17   A    
C124  C133  A    
C86   C110  A    
Cr1   O52   S    
C146  O24   A    
C63   N3    T    
C88   C108  A    
C76   C153  S    
C3    C74   S    
C131  C140  A    
Cr5   O23   S    
C131  Cl6   S    
C86   C119  A    
C91   C100  A    
C4    C12   S    
C104  H43   S    
C88   C97   A    
C36   C71   S    
C33   C69   S    
C21   C48   S    
C49   H24   S    
C101  C103  A    
C4    C56   S    
C7    C33   S    
C156  O50   A    
C157  O51   A    
C39   H14   S    
C52   C158  S    
C71   C157  S    
C137  C140  A    
C11   C20   S    
C53   C159  S    
Cr7   O50   S    
C72   C154  S    
C91   C107  A    
Cr2   O29   S    
C127  C136  A    
C141  O27   A    
Cr2   O39   S    
C40   C76   S    
C8    C150  S    
C17   C43   S    
Cr9   O13   S    
C123  Cl3   S    
C115  C118  A    
C139  O8    A    
C59   N14   T    
C111  C113  A    
C141  O18   A    
C132  H56   S    
C151  O12   A    
C22   C49   S    
Cr8   O10   S    
C96   C104  A    
Cr9   O46   S    
C36   C44   S    
C2    H28   S    
C37   C45   S    
C2    C71   S    
C130  C138  A    
Cr9   O20   S    
C10   C160  S    
C137  H6    S    
C16   C25   S    
C50   C57   S    
C152  O38   A    
C90   C105  A    
C69   N8    T    
C13   C72   S    
C8    C17   S    
C38   H13   S    
C5    C76   S    
Cr9   O11   S    
C13   C45   S    
C130  Cl5   S    
Cr5   O3    S    
C61   N16   T    
C79   C108  A    
C26   C158  S    
C64   N4    T    
C20   C47   S    
C3    C11   S    
C11   H34   S    
C73   O2    A    
C28   C63   S    
C129  C137  A    
C132  C134  A    
C133  C135  A    
C83   C112  A    
Cr4   O43   S    
C24   H30   S    
C8    H1    S    
Cr12  O36   S    
C91   H48   S    
C121  C130  A    
Cr12  O28   S    
C5    C58   S    
C36   H10   S    
C33   C42   S    
C82   C115  A    
C79   C84   S    
C27   C159  S    
C40   C49   S    
C48   H22   S    
C28   C160  S    
C3    C29   S    
C68   H35   S    
Cr2   O46   S    
C3    C55   S    
C22   C146  S    
C2    C44   S    
C97   H36   S    
C29   C38   S    
C32   C41   S    
C88   H44   S    
Cr10  O47   S    
C39   C75   S    
C43   H18   S    
C100  H39   S    
Cr11  O16   S    
C86   C106  S    
C78   C151  S    
C119  C121  A    
C96   C111  A    
C81   C105  A    
C143  O29   A    
C120  C129  A    
C13   H29   S    
C154  O45   A    
C142  O28   A    
C16   H55   S    
C65   N5    T    
Cr7   O51   S    
C80   C95   S    
C27   C62   S    
C60   N15   T    
C99   H38   S    
C155  O49   A    
C12   C35   S    
C19   C28   S    
C43   C150  S    
C32   C67   S    
C114  C123  A    
C57   H33   S    
C116  C125  A    
C56   N12   T    
Cr3   O32   S    
C145  O31   A    
Cr1   O44   S    
C90   C99   A    
C146  O32   A    
C38   C74   S    
C129  Cl8   S    
C6    C59   S    
C34   C43   S    
Cr6   O6    S    
C114  C116  A    
C19   C45   S    
C89   H46   S    
C89   C98   A    
C14   C22   S    
C85   C113  A    
C145  O22   A    
C117  O6    A    
C92   H49   S    
C15   H54   S    
C148  O26   A    
C30   C39   S    
C110  C112  A    
C29   C64   S    
C30   C65   S    
C147  O33   A    
C9    C18   S    
C58   N13   T    
C2    C9    S    
C95   O4    A    
C14   H53   S    
Cr8   O19   S    
C25   C33   S    
C40   H15   S    
C119  C127  A    
C125  C134  A    
C122  C131  A    
C8    C158  S    
Cr9   O21   S    
C14   C46   S    
Cr4   O42   S    
C46   C49   S    
Cr2   O30   S    
C26   C61   S    
C87   C117  S    
C123  C132  A    
C95   O13   A    
C87   C111  A    
C1    C81   S    
C31   C40   S    
C17   C141  S    
C142  O19   A    
C4    C75   S    
C147  O25   A    
Cr5   O34   S    
Cr11  O26   S    
C80   C109  A    
C106  O5    A    
C1    O52   A    
C10   H23   S    
C34   C70   S    
Cr7   O8    S    
Cr3   O40   S    
Cr12  O44   S    
C107  C109  A    
C35   C48   S    
Cr11  O17   S    
C68   C78   S    
C80   C118  A    
C106  O14   A    
C140  H8    S    
C128  O7    A    
C57   C77   S    
C90   H47   S    
C77   C149  S    
C67   N7    T    
C92   C112  A    
C23   C50   S    
C23   C147  S    
C94   C110  A    
C144  O21   A    
C70   C158  S    
C21   C145  S    
C41   C50   S    
Cr1   O1    S    
C10   C19   S    
Cr5   O46   S    
C84   O3    A    
Cr10  O14   S    
Cr7   O48   S    
C128  O16   A    
Cr6   O49   S    
C85   C122  A    
C93   C113  A    
C5    C14   S    
C117  O15   A    
C92   C101  A    
C7    C16   S    
C94   C103  A    
C98   C100  A    
C144  O30   A    
C149  O36   A    
C7    C60   S    
Cr10  O24   S    
Cr3   O47   S    
C115  C124  A    
C42   H17   S    
C125  Cl1   S    
C152  O23   A    
C93   C102  A    
Cr2   O38   S    
C27   C36   S    
C21   C30   S    
C62   N2    T    
C156  O42   A    
Cr12  O37   S    
C23   C32   S    
C157  O43   A    
Cr4   O33   S    
C101  H40   S    
C153  O39   A    
C154  O40   A    
C74   C155  S    
C25   C148  S    
C54   N10   T    
C54   C160  S    
Cr8   O9    S    
C37   C72   S    
C153  O34   A    
C149  O1    A    
C102  H41   S    
C39   C48   S    
C124  Cl4   S    
C31   C66   S    
Cr4   O48   S    
C136  H5    S    
Cr8   O44   S    
C134  H3    S    
C46   C76   S    
Cr8   O18   S    
C35   C75   S    
C155  O41   A    
C70   C156  S    
C17   C26   S    
C28   C37   S    
Cr11  O48   S    
C150  H27   S    
C41   H16   S    
C18   C44   S    
C103  H42   S    
C41   C77   S    
C9    C159  S    
Cr5   O4    S    
C89   C109  A    
C11   C24   S    
Cr6   O47   S    
C47   H21   S    
C35   H31   S    
C6    C15   S    
C26   C34   S    
C148  O35   A    
C84   O11   A    
C16   C68   S    
C9    H12   S    
C85   C139  S    
C42   C51   S    
Cr10  O22   S    
C15   C23   S    
C55   N11   T    
C79   C116  A    
C15   C57   S    
C135  H4    S    
Cr12  O27   S    
Cr3   O31   S    
C97   C99   A    
C120  C122  A    
C94   H51   S    
C20   C29   S    
Cr3   O41   S    
C105  C108  A    
C22   C31   S    
C143  O20   A    
C18   C142  S    
C136  C138  A    
Cr4   O35   S    
Cr10  O15   S    
C6    C77   S    
C66   N6    T    
C98   H37   S    
C12   C21   S    
Cr1   O12   S    
C151  O37   A    
C81   C114  A    
C25   C51   S    
C75   C152  S    
C73   C82   S    
C82   C107  A    
C83   C121  A    
C102  C104  A    
C38   C47   S    
C52   N1    T    
C7    C78   S    
C1    O9    A    
C37   H11   S    
C42   C78   S    
C73   O10   A    
C19   C143  S    
C24   C47   S    
Cr1   O2    S    
C34   H9    S    
C18   C27   S    
C10   C13   S    
C126  C135  A    
C71   C159  S    
C72   C160  S    
Cr6   O45   S    
C138  H7    S    
C87   C120  A    
C24   C74   S    
C12   H45   S    
C46   H32   S    
C51   C68   S    
C96   H52   S    
C53   N9    T    
C50   H25   S    
C133  H2    S    
Cr11  O25   S    
C44   H19   S    
C127  Cl7   S    
C118  C126  A    
C126  Cl2   S    
C4    C30   S    
Cr7   O7    S    
C5    C31   S    
