data_mof_unit_2959.cif
_audit_creation_date              2012-12-11T15:21:36-0500
_audit_creation_method            fapswitch 2.2
_symmetry_space_group_name_H-M    P1
_symmetry_Int_Tables_number       1
_space_group_crystal_system       triclinic
_cell_length_a                    8.283732
_cell_length_b                    12.809551
_cell_length_c                    19.025011
_cell_angle_alpha                 95.668832
_cell_angle_beta                  94.830505
_cell_angle_gamma                 97.513924
_cell_volume                      1981.96286365

loop_
_atom_site_label
_atom_site_type_symbol
_atom_type_description
_atom_site_fract_x
_atom_site_fract_y
_atom_site_fract_z
_atom_type_partial_charge
Ba1   Ba    Ba6+2 0.160910 0.552960 0.466220 1.604032
Ba2   Ba    Ba6+2 0.649260 0.447030 0.533730 1.602163
C1    C     C_3   0.425890 0.936938 0.220389 -0.350122
C2    C     C_3   0.470922 0.870051 0.279430 0.364530
C3    C     C_3   0.505910 0.779370 0.626470 0.301181
C4    C     C_3   0.479972 0.893785 0.643574 -0.312351
C5    C     C_3   0.915799 0.169182 0.710922 0.343363
C6    C     C_3   0.005928 0.115862 0.766909 -0.428492
C7    C     C_3   0.407691 0.217826 0.727735 0.370861
C8    C     C_3   0.440711 0.189121 0.802819 -0.370773
C9    C     C_R   0.073388 0.183018 0.528674 -0.263367
C10   C     C_R   0.733504 0.818751 0.475475 -0.253843
C11   C     C_R   0.702704 0.996537 0.448797 -0.099870
C12   C     C_3   0.926294 0.827703 0.305007 0.382039
C13   C     C_R   0.639621 0.888950 0.445842 -0.024051
C14   C     C_R   0.886594 0.852984 0.512816 0.036880
C15   C     C_R   0.950578 0.964305 0.518387 -0.051502
C16   C     C_R   0.857385 0.037229 0.485053 -0.040519
C17   C     C_R   0.921138 0.148622 0.490559 0.064476
C18   C     C_R   0.168557 0.112475 0.557180 -0.016199
C19   C     C_R   0.105401 0.004869 0.554526 -0.104725
C20   C     C_R   0.640494 0.505276 0.295105 -0.231596
C21   C     C_R   0.472279 0.472917 0.275631 0.090690
C22   C     C_R   0.410311 0.471147 0.204265 -0.127019
C23   C     C_3   0.916631 0.932333 0.275595 -0.406565
C24   C     C_R   0.512685 0.508296 0.153602 -0.014694
C25   C     C_R   0.675692 0.552237 0.176411 -0.145005
C26   C     C_R   0.738463 0.552386 0.246897 0.028601
C27   C     C_R   0.495686 0.585149 0.036860 -0.079569
C28   C     C_R   0.447040 0.576365 0.964018 -0.077345
C29   C     C_R   0.352990 0.483401 0.929106 0.062799
C30   C     C_R   0.307771 0.399681 0.969411 -0.081044
C31   C     C_R   0.356259 0.408612 0.042456 -0.077812
C32   C     C_R   0.451697 0.501243 0.076997 0.063109
C33   C     C_R   0.136876 0.428292 0.825896 -0.153434
C34   C     C_3   0.875359 0.270766 0.310624 0.250950
C35   C     C_R   0.075517 0.434987 0.755877 0.030916
C36   C     C_R   0.337220 0.529776 0.733809 0.052341
C37   C     C_R   0.398196 0.523429 0.804112 -0.131095
C38   C     C_R   0.296310 0.476845 0.851883 -0.008215
C39   C     C_R   0.171258 0.493280 0.711771 -0.212410
C40   C     C_3   0.919610 0.191828 0.253083 -0.374115
C41   C     C_3   0.916205 0.748104 0.687086 0.250001
C42   C     C_3   0.886294 0.851206 0.726768 -0.403465
C43   C     C_3   0.283801 0.232452 0.389743 0.320478
C44   C     C_3   0.306963 0.116781 0.377363 -0.334394
H1    H     H_    0.808532 0.138940 0.227871 0.121947
H2    H     H_    0.978199 0.234839 0.211850 0.084774
H3    H     H_    0.008633 0.144741 0.276138 0.110324
H4    H     H_    0.949982 0.694958 0.726932 0.028668
H5    H     H_    0.804875 0.707990 0.655672 0.078102
H6    H     H_    0.996544 0.884717 0.763238 0.118279
H7    H     H_    0.781239 0.837065 0.758763 0.119643
H8    H     H_    0.860852 0.908246 0.688383 0.088123
H9    H     H_    0.160530 0.237388 0.405913 -0.083405
H10   H     H_    0.374235 0.269691 0.433964 0.108158
H11   H     H_    0.303242 0.904732 0.192837 0.130819
H12   H     H_    0.211559 0.073114 0.337251 0.098052
H13   H     H_    0.299570 0.079599 0.427267 0.102208
H14   H     H_    0.428259 0.110933 0.358095 0.129118
H15   H     H_    0.592311 0.907377 0.305360 -0.019644
H16   H     H_    0.517748 0.937791 0.181059 0.068070
H17   H     H_    0.581351 0.937316 0.681354 0.115863
H18   H     H_    0.475952 0.932401 0.594024 0.112050
H19   H     H_    0.363113 0.897166 0.667736 0.132301
H20   H     H_    0.423387 0.019875 0.242867 0.110910
H21   H     H_    0.816848 0.923228 0.231769 0.112508
H22   H     H_    0.831500 0.107860 0.675373 0.055432
H23   H     H_    0.006490 0.206441 0.677708 -0.043454
H24   H     H_    0.086073 0.063745 0.741207 0.087170
H25   H     H_    0.082122 0.176741 0.805785 0.112765
H26   H     H_    0.916809 0.068211 0.795650 0.126103
H27   H     H_    0.279754 0.234342 0.719852 -0.078977
H28   H     H_    0.414668 0.253862 0.841640 0.068622
H29   H     H_    0.570562 0.177493 0.813292 0.157810
H30   H     H_    0.024749 0.840054 0.349731 0.097741
H31   H     H_    0.361894 0.114718 0.810012 0.109137
H32   H     H_    0.628470 0.047641 0.423625 0.102704
H33   H     H_    0.179477 0.953486 0.579697 0.106317
H34   H     H_    0.123331 0.266019 0.532710 0.057104
H35   H     H_    0.682806 0.735956 0.472109 0.057509
H36   H     H_    0.523722 0.556624 0.821770 0.079809
H37   H     H_    0.480679 0.643479 0.935252 0.060361
H38   H     H_    0.566852 0.658261 0.061979 0.063218
H39   H     H_    0.283308 0.439872 0.188179 0.082123
H40   H     H_    0.236737 0.326529 0.944349 0.058216
H41   H     H_    0.806894 0.801273 0.324831 -0.077086
H42   H     H_    0.322366 0.341981 0.071636 0.058662
H43   H     H_    0.057689 0.388681 0.860452 0.072896
H44   H     H_    0.754705 0.585986 0.139484 0.076636
H45   H     H_    0.892106 0.991561 0.318604 0.066710
H46   H     H_    0.033652 0.959407 0.254260 0.131828
H47   H     H_    0.813640 0.328409 0.282598 0.007197
H48   H     H_    0.986955 0.310441 0.341303 0.086467
O1    O     O_2   0.160820 0.763040 0.533820 -0.455980
O2    O     O_3   0.300919 0.278218 0.326116 -0.640011
O3    O     O_3   0.962662 0.754579 0.250852 -0.590550
O4    O     O_2   0.649470 0.236890 0.466160 -0.458168
O5    O     O_3   0.919320 0.371390 0.464540 -0.522112
O6    O     O_3   0.424350 0.301430 0.591880 -0.486923
O7    O     O_3   0.766417 0.220407 0.353244 -0.637147
O8    O     O_3   0.382770 0.553920 0.582990 -0.494490
O9    O     O_3   0.848220 0.355290 0.626830 -0.480336
O10   O     O_2   0.736193 0.426756 0.748457 -0.493151
O11   O     O_3   0.822488 0.239307 0.745182 -0.591583
O12   O     O_3   0.890970 0.628600 0.535400 -0.508679
O13   O     O_3   0.427530 0.446070 0.416950 -0.505378
O14   O     O_2   0.637430 0.550200 0.669460 -0.467164
O15   O     O_3   0.512696 0.730879 0.689506 -0.653285
O16   O     O_2   0.504670 0.115090 0.547592 -0.482848
O17   O     O_3   0.435714 0.134034 0.678880 -0.600815
O18   O     O_3   0.385950 0.698560 0.408070 -0.465273
O19   O     O_2   0.310729 0.882615 0.460601 -0.487289
O20   O     O_3   0.047474 0.768113 0.646412 -0.635722
O21   O     O_3   0.350519 0.870454 0.327393 -0.580777
O22   O     O_2   0.172860 0.449730 0.330520 -0.482052
O23   O     O_3   0.962080 0.644700 0.373110 -0.503141
O24   O     O_2   0.083731 0.578233 0.252238 -0.476776
P1    P     P_3+3 0.986780 0.745970 0.554690 0.947356
P2    P     P_3+3 0.341450 0.417130 0.341310 0.976217
P3    P     P_3+3 0.938720 0.629017 0.279991 0.962394
P4    P     P_3+3 0.823520 0.254020 0.445250 0.946745
P5    P     P_3+3 0.870948 0.366256 0.720044 0.954280
P6    P     P_3+3 0.426121 0.836877 0.409950 0.950940
P7    P     P_3+3 0.467772 0.592762 0.670936 0.928465
P8    P     P_3+3 0.381876 0.164316 0.593022 0.939013
C45   C     C_3   0.480028 0.756895 0.247075 -0.295316
H49   H     H_    0.522407 0.709197 0.288612 0.062414
H50   H     H_    0.358015 0.718404 0.222047 0.147583
H51   H     H_    0.568570 0.757778 0.206361 0.056102
H52   H     H_    0.620661 0.778261 0.601258 -0.078562
H53   H     H_    0.406598 0.740246 0.587369 0.112198
H54   H     H_    0.490980 0.290799 0.722144 0.109744
C46   C     C_3   0.092194 0.524568 0.644340 -0.244269
H55   H     H_    0.150570 0.602323 0.633221 0.120627
H56   H     H_    0.098956 0.464046 0.599183 0.136918
H57   H     H_    0.964234 0.537483 0.649578 0.128500
C47   C     C_3   0.718201 0.481253 0.364809 -0.242884
H58   H     H_    0.848143 0.472233 0.362822 0.130035
H59   H     H_    0.703620 0.543339 0.407830 0.137086
H60   H     H_    0.665834 0.401985 0.376172 0.118356

loop_
_geom_bond_atom_site_label_1
_geom_bond_atom_site_label_2
_ccdc_geom_bond_type
C7    O17   S    
C17   P4    S    
C44   H13   S    
Ba1   Ba2   S    
C2    O21   S    
C34   C40   S    
C23   H21   S    
O8    P7    S    
O9    P5    S    
Ba1   O5    S    
C46   H57   S    
C5    C6    S    
O10   P5    D    
C43   C44   S    
C9    C17   A    
C24   C25   A    
C11   C16   A    
O6    P8    S    
C33   C35   A    
C31   H42   S    
C22   C24   A    
C12   H41   S    
O18   P6    S    
C41   O20   S    
C28   C29   A    
O12   P1    S    
Ba2   O8    S    
Ba2   O13   S    
C29   C38   S    
O11   P5    S    
C25   H44   S    
C16   C17   A    
Ba1   P1    S    
C4    H18   S    
C28   H37   S    
O23   P3    S    
O3    P3    S    
C5    H22   S    
C35   P5    S    
C42   H7    S    
C24   C32   S    
C4    H19   S    
C10   C14   A    
C43   H10   S    
C14   C15   A    
C6    H25   S    
C21   C22   A    
C5    O11   S    
Ba1   O22   S    
O14   P7    D    
C7    C8    S    
O20   P1    S    
Ba1   O12   S    
C42   H6    S    
Ba2   O6    S    
C20   C26   A    
C44   H12   S    
C7    H27   S    
C34   H47   S    
C39   C46   S    
C8    H31   S    
C15   C16   A    
Ba2   P4    S    
C36   C37   A    
C9    C18   A    
C23   H45   S    
C6    H26   S    
C13   P6    S    
C27   H38   S    
C9    H34   S    
C14   P1    S    
C37   C38   A    
C26   P3    S    
C40   H2    S    
C3    H53   S    
O1    P1    D    
C2    H15   S    
Ba2   O12   S    
C15   C19   A    
O22   P2    D    
C34   O7    S    
Ba1   P2    S    
C12   H30   S    
C4    H17   S    
C41   C42   S    
C45   H50   S    
C18   P8    S    
C27   C28   A    
C34   H48   S    
C8    H29   S    
C29   C30   A    
C10   C13   A    
Ba1   O1    S    
C30   H40   S    
C19   H33   S    
O17   P8    S    
C31   C32   A    
Ba1   O23   S    
Ba2   O4    S    
C47   H59   S    
O16   P8    D    
O5    P4    S    
C1    H11   S    
O15   P7    S    
Ba1   O13   S    
Ba2   O5    S    
C11   C13   A    
C1    H20   S    
C45   H49   S    
C33   H43   S    
O13   P2    S    
C21   P2    S    
C36   P7    S    
C12   O3    S    
C22   H39   S    
C1    H16   S    
O4    P4    D    
C11   H32   S    
C23   H46   S    
O21   P6    S    
C2    C45   S    
C44   H14   S    
O2    P2    S    
C37   H36   S    
C47   H60   S    
C5    H23   S    
C46   H56   S    
C41   H4    S    
C46   H55   S    
C20   C47   S    
C6    H24   S    
O7    P4    S    
C30   C31   A    
C33   C38   A    
C45   H51   S    
Ba1   O18   S    
C8    H28   S    
C41   H5    S    
C3    C4    S    
O19   P6    D    
C3    O15   S    
Ba2   O9    S    
C36   C39   A    
C27   C32   A    
Ba2   O14   S    
C10   H35   S    
C40   H1    S    
C12   C23   S    
C35   C39   A    
C47   H58   S    
C40   H3    S    
C42   H8    S    
C3    H52   S    
C18   C19   A    
C43   H9    S    
C25   C26   A    
C20   C21   A    
C43   O2    S    
Ba1   O8    S    
O24   P3    D    
C1    C2    S    
C7    H54   S    
