data_mof_unit_4760.cif
_audit_creation_date              2013-03-05T15:52:27-0500
_audit_creation_method            fapswitch 2.2
_symmetry_space_group_name_H-M    P1
_symmetry_Int_Tables_number       1
_space_group_crystal_system       triclinic
_cell_length_a                    27.825692
_cell_length_b                    10.78544
_cell_length_c                    9.582984
_cell_angle_alpha                 90.803665
_cell_angle_beta                  90.005676
_cell_angle_gamma                 93.738337
_cell_volume                      2869.56843312

loop_
_atom_site_label
_atom_site_type_symbol
_atom_site_description
_atom_site_fract_x
_atom_site_fract_y
_atom_site_fract_z
_atom_type_partial_charge
O1    O     O_R   0.500000 0.319640 0.618810 -0.567792
O2    O     O_R   0.500000 0.319660 0.381240 -0.577969
C1    C     C_R   0.497649 0.262118 0.498796 0.863831
O3    O     O_R   0.430260 0.500010 0.618770 -0.592456
O4    O     O_R   0.430270 0.500030 0.381200 -0.536977
C2    C     C_R   0.407769 0.506648 0.500171 0.829597
Cu1   Cu    Cu3+1 0.500000 0.499990 0.640660 0.937066
Cu2   Cu    Cu3+1 0.500000 0.500010 0.359340 0.941922
O5    O     O_R   0.500000 0.680340 0.618760 -0.601143
O6    O     O_R   0.500000 0.680360 0.381190 -0.589059
O7    O     O_R   0.569730 0.499970 0.618800 -0.590963
O8    O     O_R   0.569740 0.499990 0.381230 -0.602572
C3    C     C_R   0.500049 0.737283 0.501092 0.747056
C4    C     C_R   0.592649 0.499891 0.499827 0.775610
C5    C     C_R   0.176625 0.410063 0.520807 0.536215
O9    O     O_2   0.199404 0.303304 0.518320 -0.542743
N1    N     N_R   0.202815 0.521733 0.517161 -0.459800
C6    C     C_R   0.180878 0.631543 0.518843 0.535512
C7    C     C_R   0.279812 0.490488 0.630672 -0.120828
C8    C     C_R   0.329669 0.487830 0.625738 -0.314624
C9    C     C_R   0.329329 0.554115 0.383681 0.206926
C10   C     C_R   0.279015 0.555541 0.390057 -0.177544
C11   C     C_R   0.254328 0.523277 0.512760 0.332135
C12   C     C_R   0.102651 0.517733 0.527796 -0.044753
C13   C     C_R   0.126150 0.405974 0.526128 -0.021590
C14   C     C_R   0.098950 0.292734 0.530344 -0.149103
C15   C     C_R   0.130432 0.631602 0.524361 -0.021421
C16   C     C_R   0.355043 0.516941 0.502167 -0.086182
H1    H     H_    0.258964 0.582138 0.299544 0.140347
H2    H     H_    0.116190 0.205507 0.531244 0.183885
C17   C     C_R   0.646006 0.501179 0.502015 -0.100974
C18   C     C_R   0.972943 0.397613 0.528855 0.042910
C19   C     C_R   0.977359 0.626936 0.546443 0.043463
C20   C     C_R   0.949892 0.511229 0.538258 0.067512
C21   C     C_R   0.943780 0.285487 0.515161 -0.204709
C22   C     C_R   0.893878 0.284863 0.513748 -0.146425
C23   C     C_R   0.870916 0.395734 0.525553 -0.022969
C24   C     C_R   0.898724 0.509157 0.538562 -0.044589
C25   C     C_R   0.875223 0.620555 0.550885 -0.019904
C26   C     C_R   0.824680 0.616618 0.547984 0.535745
N2    N     N_R   0.798503 0.505449 0.532911 -0.460596
C27   C     C_R   0.820489 0.395940 0.522785 0.538700
C28   C     C_R   0.724362 0.475134 0.395488 -0.124800
C29   C     C_R   0.674282 0.473653 0.382866 0.205662
C30   C     C_R   0.669678 0.529052 0.629820 -0.273657
C31   C     C_R   0.719613 0.530905 0.639974 -0.119502
C32   C     C_R   0.747058 0.503831 0.522972 0.311353
O10   O     O_2   0.793582 0.287616 0.510109 -0.539230
C33   C     C_R   0.024075 0.399666 0.531586 0.043805
C34   C     C_R   0.051508 0.515576 0.532572 0.067336
C35   C     C_R   0.028440 0.629317 0.537836 0.042853
C36   C     C_R   0.049008 0.289355 0.533385 -0.204854
H3    H     H_    0.745956 0.454617 0.304974 0.152421
H4    H     H_    0.873310 0.196471 0.502385 0.187567
H5    H     H_    0.958232 0.195922 0.502132 0.136086
H6    H     H_    0.031135 0.198048 0.539239 0.134324
O11   O     O_2   0.207822 0.740187 0.516268 -0.546446
C37   C     C_R   0.107405 0.742761 0.526021 -0.147363
H7    H     H_    0.348284 0.460427 0.718501 0.171240
H8    H     H_    0.260832 0.466106 0.726075 0.148049
H9    H     H_    0.127915 0.831562 0.522003 0.186878
C38   C     C_R   0.952506 0.736660 0.563107 -0.205435
C39   C     C_R   0.902522 0.733273 0.564915 -0.148994
O12   O     O_2   0.801875 0.723067 0.558035 -0.547377
C40   C     C_R   0.057513 0.741940 0.532417 -0.204613
H10   H     H_    0.970529 0.827347 0.576984 0.135178
H11   H     H_    0.649605 0.550264 0.722965 0.183367
H12   H     H_    0.885328 0.820093 0.576801 0.184424
H13   H     H_    0.737017 0.552999 0.739137 0.149142
H14   H     H_    0.042928 0.831888 0.530109 0.135386
H15   H     H_    0.565589 0.124152 0.406667 0.138298
C41   C     C_R   0.408081 0.106203 0.571399 0.182136
C42   C     C_R   0.371016 0.033704 0.636057 -0.179131
H16   H     H_    0.337139 0.073895 0.658791 0.152195
C43   C     C_R   0.375729 0.908059 0.660468 0.183964
C44   C     C_R   0.417460 0.853789 0.617312 -0.219405
H17   H     H_    0.418796 0.754817 0.630442 0.167350
C45   C     C_R   0.456174 0.925597 0.556927 0.015179
C46   C     C_R   0.452971 0.055251 0.542824 0.064624
C47   C     C_R   0.494178 0.127201 0.494559 -0.090999
C48   C     C_R   0.534479 0.069718 0.445222 -0.201619
H18   H     H_    0.566832 0.898884 0.406127 0.160001
C49   C     C_R   0.535479 0.941991 0.446554 -0.198385
C50   C     C_R   0.497225 0.870314 0.504035 -0.060899
H19   H     H_    0.445193 0.357425 0.127090 0.131400
C51   C     C_R   0.564112 0.668069 0.146272 -0.259842
H20   H     H_    0.566496 0.673824 0.256321 0.219618
C52   C     C_R   0.595592 0.752235 0.076459 0.241153
C53   C     C_R   0.595279 0.752180 0.930563 0.180252
C54   C     C_R   0.563702 0.668457 0.858242 -0.271014
H21   H     H_    0.566313 0.673679 0.748118 0.213062
C55   C     C_R   0.531465 0.582748 0.926491 0.179713
C56   C     C_R   0.531584 0.582531 0.075796 0.159874
N3    N     N_R   0.500460 0.501210 0.147910 -0.179903
C57   C     C_R   0.469870 0.421582 0.072735 -0.037504
H22   H     H_    0.445242 0.357328 0.868252 0.132838
C58   C     C_R   0.469902 0.421560 0.924686 -0.056580
N4    N     N_R   0.500480 0.501290 0.852040 -0.183200
N5    N     N_2   0.353464 0.590423 0.258330 -0.422090
H23   H     H_    0.333664 0.569119 0.169141 0.241355
C59   C     C_3   0.373335 0.717797 0.259743 -0.614316
H24   H     H_    0.393498 0.736560 0.161478 0.222754
H25   H     H_    0.398653 0.734808 0.348415 0.231158
H26   H     H_    0.343993 0.782663 0.268323 0.218906
N6    N     N_2   0.396595 0.221241 0.514263 -0.439702
H27   H     H_    0.371917 0.265806 0.573562 0.249593
C60   C     C_3   0.381955 0.209963 0.369194 -0.657612
H28   H     H_    0.373109 0.301613 0.329197 0.231022
H29   H     H_    0.349362 0.145223 0.358227 0.230787
H30   H     H_    0.411463 0.175321 0.304274 0.227428
C61   C     C_3   0.335155 0.829048 0.723396 -0.814134
H31   H     H_    0.304828 0.885281 0.755084 0.240471
H32   H     H_    0.321490 0.757975 0.645805 0.257423
H33   H     H_    0.348184 0.781853 0.817076 0.224428
N7    N     N_2   0.625108 0.841771 0.154472 -0.431736
H34   H     H_    0.638417 0.918281 0.100055 0.289123
C62   C     C_3   0.660406 0.792255 0.245776 -0.700871
H35   H     H_    0.681935 0.869979 0.297834 0.244651
H36   H     H_    0.685120 0.735353 0.184969 0.237103
H37   H     H_    0.642580 0.735092 0.328572 0.217662
N8    N     N_2   0.626418 0.837024 0.854732 -0.440106
H38   H     H_    0.613561 0.862719 0.759059 0.253430
C63   C     C_3   0.676946 0.811570 0.852904 -0.655510
H39   H     H_    0.688232 0.789017 0.744780 0.235531
H40   H     H_    0.684654 0.732351 0.920684 0.225680
H41   H     H_    0.698755 0.895391 0.889928 0.246064
N9    N     N_2   0.654214 0.444807 0.249045 -0.440391
H42   H     H_    0.631630 0.507797 0.210549 0.274195
C64   C     C_3   0.637868 0.316150 0.226872 -0.622629
H43   H     H_    0.626616 0.301336 0.116412 0.223608
H44   H     H_    0.606648 0.291299 0.295075 0.224541
H45   H     H_    0.667393 0.254673 0.249126 0.235462

loop_
_geom_bond_atom_site_label_1
_geom_bond_atom_site_label_2
_geom_bond_distance
_ccdc_geom_bond_type
C29   N9    1.420989 S    
C59   H24   1.110457 S    
C10   H1    1.083368 S    
C42   C43   1.392981 A    
N2    C27   1.367373 A    
C21   C22   1.388207 A    
C12   C15   1.408649 A    
C4    C17   1.483998 S    
C28   C29   1.397764 A    
C58   N4    1.367321 A    
C55   N4    1.381223 A    
Cu1   Cu2   2.695888 S    
C30   C31   1.391715 A    
Cu1   O7    1.951595 S    
N6    C60   1.449850 S    
C3    C50   1.441937 S    
C38   C39   1.389058 A    
C22   C23   1.395277 A    
Cu1   N4    2.025541 S    
C44   C45   1.413870 A    
C41   C46   1.422186 A    
C62   H36   1.110949 S    
C35   C40   1.416422 A    
O4    C2    1.304069 A    
C9    N5    1.423519 S    
O7    C4    1.306424 A    
C51   C52   1.397272 A    
C63   H40   1.112355 S    
C5    O9    1.350012 S    
C5    N1    1.367353 A    
C42   H16   1.083790 S    
C23   C27   1.403570 A    
O5    C3    1.291510 A    
C31   H13   1.082980 S    
C37   C40   1.389109 A    
C31   C32   1.394872 A    
C36   H6    1.076093 S    
C28   H3    1.083708 S    
C2    C16   1.478651 S    
C61   H31   1.110761 S    
C19   C38   1.416215 A    
N7    C62   1.448029 S    
C30   H11   1.082635 S    
C60   H28   1.107674 S    
C64   H45   1.111318 S    
C52   C53   1.398140 A    
C37   H9    1.083636 S    
C59   H25   1.109359 S    
O1    Cu1   1.953469 S    
C9    C10   1.402425 A    
C60   H29   1.111949 S    
O3    Cu1   1.951865 S    
C1    C47   1.452048 S    
C48   C49   1.379919 A    
C34   C35   1.421417 A    
C12   C34   1.422503 A    
C17   C29   1.425507 A    
C38   H10   1.076224 S    
C21   H5    1.075971 S    
C18   C21   1.416245 A    
C63   H39   1.111009 S    
Cu2   N3    2.026390 S    
C44   H17   1.079635 S    
O3    C2    1.302483 A    
C62   H37   1.108867 S    
C25   C26   1.404528 A    
C45   C46   1.415344 A    
C41   C42   1.402708 A    
C63   H41   1.109451 S    
C27   O10   1.349904 S    
C8    C16   1.407488 A    
C13   C14   1.395353 A    
O6    C3    1.295096 A    
O1    C1    1.298676 A    
C18   C20   1.421462 A    
C40   H14   1.076229 S    
C7    C11   1.395872 A    
C43   C44   1.394250 A    
N9    C64   1.444614 S    
C23   C24   1.408207 A    
C51   C56   1.414223 A    
C14   C36   1.388077 A    
C6    O11   1.349817 S    
C54   C55   1.412753 A    
C49   C50   1.392428 A    
Cu2   O8    1.951860 S    
C33   C36   1.416099 A    
H22   C58   1.081976 S    
N1    C6    1.367217 A    
N2    C32   1.433605 S    
C61   H32   1.109510 S    
C56   N3    1.383813 A    
N1    C11   1.433014 S    
C12   C13   1.408184 A    
C8    H7    1.083098 S    
N8    H38   1.032162 S    
C26   N2    1.367570 A    
N5    C59   1.446941 S    
C9    C16   1.418443 A    
O8    C4    1.303070 A    
C14   H2    1.083679 S    
C59   H26   1.111632 S    
C60   H30   1.111030 S    
N9    H42   1.027230 S    
C51   H20   1.057368 S    
C64   H43   1.110288 S    
Cu1   O5    1.959367 S    
C39   H12   1.083578 S    
C20   C24   1.422504 A    
O2    Cu2   1.959367 S    
C6    C15   1.404756 A    
C47   C48   1.395712 A    
C15   C37   1.395622 A    
O4    Cu2   1.951598 S    
C57   C58   1.418752 A    
C7    H8    1.082890 S    
C19   C35   1.422324 A    
C25   C39   1.395711 A    
N6    H27   1.030014 S    
C43   C61   1.501193 S    
C26   O12   1.349810 S    
N5    H23   1.031859 S    
C7    C8    1.390270 A    
O2    C1    1.293389 A    
C62   H35   1.110495 S    
H19   C57   1.081598 S    
C54   H21   1.059851 S    
C24   C25   1.408408 A    
C53   N8    1.425331 S    
C52   N7    1.429058 S    
C64   H44   1.108308 S    
C55   C56   1.430829 A    
C19   C20   1.421463 A    
C61   H33   1.110531 S    
N3    C57   1.366844 A    
C18   C33   1.421738 A    
N8    C63   1.450062 S    
C22   H4    1.083601 S    
C46   C47   1.423022 A    
C45   C50   1.413405 A    
C41   N6    1.418484 S    
C5    C13   1.403263 A    
Cu2   O6    1.953469 S    
C33   C34   1.421579 A    
C17   C30   1.409947 A    
C10   C11   1.398599 A    
H18   C49   1.084079 S    
C53   C54   1.395210 A    
C28   C32   1.396733 A    
N7    H34   1.030666 S    
H15   C48   1.081856 S    
