data_mof_unit_4728.cif
_audit_creation_date              2012-12-10T16:49:26-0500
_audit_creation_method            fapswitch 2.2
_symmetry_space_group_name_H-M    P1
_symmetry_Int_Tables_number       1
_space_group_crystal_system       triclinic
_cell_length_a                    19.371461
_cell_length_b                    8.676988
_cell_length_c                    7.426299
_cell_angle_alpha                 103.430512
_cell_angle_beta                  93.854377
_cell_angle_gamma                 92.297637
_cell_volume                      1209.37608905

loop_
_atom_site_label
_atom_site_type_symbol
_atom_type_description
_atom_site_fract_x
_atom_site_fract_y
_atom_site_fract_z
_atom_type_partial_charge
C1    C     C_R   0.497761 0.199425 0.452841 0.882078
C2    C     C_R   0.502232 0.800575 0.547160 0.882099
C3    C     C_2   0.496590 0.031244 0.426470 -0.382761
C4    C     C_2   0.503397 0.968755 0.573532 -0.382749
C5    C     C_R   0.367559 0.498829 0.502942 0.807721
C6    C     C_R   0.632441 0.501175 0.497060 0.807687
C7    C     C_R   0.260079 0.610516 0.642518 0.114016
C8    C     C_R   0.739927 0.389543 0.357433 0.114000
C9    C     C_R   0.187753 0.607607 0.640219 -0.188381
C10   C     C_R   0.812254 0.392449 0.359751 -0.188421
C11   C     C_R   0.146079 0.494259 0.508981 -0.012748
C12   C     C_R   0.853926 0.505740 0.491058 -0.012736
C13   C     C_R   0.177102 0.379253 0.380316 -0.189285
C14   C     C_R   0.822902 0.620699 0.619776 -0.189315
C15   C     C_R   0.249180 0.376616 0.378452 0.118972
C16   C     C_R   0.750823 0.623345 0.621624 0.118970
C17   C     C_R   0.291615 0.495016 0.508879 -0.074961
C18   C     C_R   0.708387 0.504993 0.491128 -0.074908
C19   C     C_R   0.930002 0.503255 0.495040 0.437526
C20   C     C_R   0.070003 0.496735 0.505010 0.437527
Cu1   Cu    Cu3+1 0.507710 0.517380 0.684380 0.931644
Cu2   Cu    Cu3+1 0.492290 0.482620 0.315620 0.931651
H1    H     H_    0.163758 0.697003 0.739854 0.159138
H2    H     H_    0.836250 0.303091 0.260070 0.159143
H3    H     H_    0.144860 0.289566 0.280818 0.159732
H4    H     H_    0.855144 0.710348 0.719326 0.159734
H5    H     H_    0.490217 0.958660 0.285127 0.180680
H6    H     H_    0.509770 0.041339 0.714874 0.180678
H7    H     H_    0.445001 0.379931 0.948631 0.221412
H8    H     H_    0.554999 0.620069 0.051369 0.221410
N1    N     N_R   0.029294 0.389530 0.374942 -0.238597
N2    N     N_R   0.970712 0.610458 0.625110 -0.238597
N3    N     N_R   0.960667 0.392630 0.370138 -0.239766
N4    N     N_R   0.039339 0.607359 0.629912 -0.239766
N5    N     N_2   0.480680 0.456420 0.038530 -0.222374
N6    N     N_2   0.519320 0.543580 0.961470 -0.222383
O1    O     O_R   0.505010 0.286130 0.619770 -0.583580
O2    O     O_R   0.494990 0.713870 0.380230 -0.583586
O3    O     O_R   0.491990 0.256780 0.308370 -0.577768
O4    O     O_R   0.508010 0.743220 0.691630 -0.577778
O5    O     O_R   0.406650 0.514660 0.655750 -0.593791
O6    O     O_R   0.593350 0.485340 0.344250 -0.593779
O7    O     O_R   0.393640 0.485310 0.344340 -0.585145
O8    O     O_R   0.606360 0.514690 0.655660 -0.585142
C21   C     C_3   0.300773 0.743116 0.784769 -0.400298
C22   C     C_3   0.326785 0.874156 0.696089 -0.814716
H9    H     H_    0.360222 0.963589 0.800232 0.238114
H10   H     H_    0.357102 0.825670 0.576363 0.248172
H11   H     H_    0.282021 0.933831 0.647509 0.246833
H12   H     H_    0.267628 0.798117 0.896210 0.195324
H13   H     H_    0.344135 0.697682 0.858356 0.230324
C23   C     C_3   0.699238 0.256993 0.215098 -0.400291
C24   C     C_3   0.673207 0.125907 0.303682 -0.814664
H14   H     H_    0.642787 0.174332 0.423207 0.248165
H15   H     H_    0.639868 0.036371 0.199408 0.238097
H16   H     H_    0.717967 0.066371 0.352525 0.246840
H17   H     H_    0.655890 0.302469 0.141506 0.230325
H18   H     H_    0.732394 0.202020 0.103672 0.195313
C25   C     C_3   0.278032 0.242067 0.238963 -0.399115
C26   C     C_3   0.308668 0.119026 0.333547 -0.820869
H19   H     H_    0.332129 0.026644 0.229631 0.240978
H20   H     H_    0.349197 0.174276 0.444929 0.242431
H21   H     H_    0.267006 0.061263 0.394710 0.249330
H22   H     H_    0.236471 0.179404 0.133782 0.196879
H23   H     H_    0.316623 0.286743 0.157239 0.222828
C27   C     C_3   0.721974 0.757870 0.761152 -0.399145
C28   C     C_3   0.691346 0.880945 0.666614 -0.820778
H24   H     H_    0.732998 0.938565 0.605247 0.249324
H25   H     H_    0.650749 0.825748 0.555388 0.242418
H26   H     H_    0.667970 0.973436 0.770605 0.240962
H27   H     H_    0.683382 0.713181 0.842861 0.222827
H28   H     H_    0.763537 0.820509 0.866341 0.196887

loop_
_geom_bond_atom_site_label_1
_geom_bond_atom_site_label_2
_ccdc_geom_bond_type
C2    C4    S    
N1    N3    A    
C15   C17   A    
C1    O1    A    
Cu1   O8    S    
C11   C13   A    
H7    N5    S    
C1    O3    A    
C27   H27   S    
C13   C15   A    
H8    N6    S    
C28   H26   S    
C20   N4    A    
C14   H4    S    
C3    H5    S    
C27   C28   S    
C5    O7    A    
C25   C26   S    
C7    C21   S    
Cu1   N6    S    
C6    O8    A    
C21   C22   S    
C25   H23   S    
C10   H2    S    
Cu2   N5    S    
C9    C11   A    
C22   H11   S    
C13   H3    S    
C25   H22   S    
Cu2   O6    S    
Cu1   O4    S    
C23   H18   S    
C21   H12   S    
C26   H21   S    
Cu1   O5    S    
Cu2   O3    S    
C10   C12   A    
C12   C19   S    
C16   C18   A    
C4    H6    S    
C12   C14   A    
Cu2   O7    S    
C22   H10   S    
C24   H15   S    
C19   N3    A    
C6    C18   S    
C14   C16   A    
C11   C20   S    
C5    C17   S    
C23   H17   S    
C21   H13   S    
C28   H24   S    
Cu2   O2    S    
C2    O4    A    
C8    C23   S    
Cu1   O1    S    
C23   C24   S    
C26   H20   S    
C6    O6    A    
C24   H16   S    
C7    C9    A    
C2    O2    A    
C22   H9    S    
C9    H1    S    
C16   C27   S    
C5    O5    A    
C28   H25   S    
N2    N4    A    
Cu1   Cu2   S    
C15   C25   S    
C19   N2    A    
C20   N1    A    
C8    C10   A    
C8    C18   A    
C3    C4    D    
C24   H14   S    
C27   H28   S    
C26   H19   S    
C1    C3    S    
N5    N6    D    
C7    C17   A    
