data_mof_unit_3917.cif
_audit_creation_date              2012-12-11T15:09:41-0500
_audit_creation_method            fapswitch 2.2
_symmetry_space_group_name_H-M    P1
_symmetry_Int_Tables_number       1
_space_group_crystal_system       triclinic
_cell_length_a                    20.890088
_cell_length_b                    7.12668
_cell_length_c                    14.019737
_cell_angle_alpha                 89.851127
_cell_angle_beta                  98.033814
_cell_angle_gamma                 90.160579
_cell_volume                      2066.71831248

loop_
_atom_site_label
_atom_site_type_symbol
_atom_type_description
_atom_site_fract_x
_atom_site_fract_y
_atom_site_fract_z
_atom_type_partial_charge
O1    O     O_R   0.447130 0.507140 0.597350 -0.537041
O2    O     O_R   0.552870 0.007140 0.402650 -0.537009
O3    O     O_R   0.578910 0.181280 0.586990 -0.538859
O4    O     O_R   0.421090 0.681280 0.413010 -0.538910
C1    C     C_R   0.604482 0.344581 0.607432 0.726229
C2    C     C_R   0.395524 0.844427 0.392560 0.726134
O5    O     O_R   0.449230 0.177860 0.608640 -0.540413
O6    O     O_R   0.550770 0.677860 0.391360 -0.540380
O7    O     O_R   0.422260 0.000770 0.424450 -0.534619
O8    O     O_R   0.577740 0.500770 0.575550 -0.534794
C3    C     C_R   0.432862 0.345900 0.634766 0.686813
C4    C     C_R   0.567172 0.846592 0.365314 0.686722
O9    O     O_3   0.491310 0.336980 0.439550 -0.374296
O10   O     O_3   0.508690 0.836980 0.560450 -0.374321
V1    V     V_3+5 0.501610 0.064760 0.511210 1.424220
V2    V     V_3+5 0.498390 0.564760 0.488790 1.423729
C5    C     C_R   0.619454 0.877954 0.121056 -0.166884
C6    C     C_R   0.380597 0.345214 0.879482 -0.167434
H1    H     H_    0.528207 0.874986 0.174510 0.100081
H2    H     H_    0.471836 0.339568 0.826086 0.100121
H3    H     H_    0.595245 0.889794 0.047978 0.108890
H4    H     H_    0.404800 0.339470 0.952761 0.108893
C7    C     C_R   0.607959 0.855953 0.289105 -0.027542
C8    C     C_R   0.392151 0.352557 0.711127 -0.027605
C9    C     C_R   0.922712 0.831763 0.308613 0.129591
C10   C     C_R   0.077661 0.372845 0.690465 0.140723
C11   C     C_R   0.883521 0.820866 0.381784 -0.108989
C12   C     C_R   0.116610 0.376498 0.617373 -0.133125
C13   C     C_R   0.816527 0.830334 0.360846 -0.200107
C14   C     C_R   0.183594 0.370485 0.638490 -0.188620
C15   C     C_R   0.785101 0.850034 0.265121 0.076138
C16   C     C_R   0.214973 0.361141 0.734740 0.075708
C17   C     C_R   0.824087 0.861710 0.190325 0.000312
C18   C     C_R   0.175920 0.357393 0.809762 -0.009620
C19   C     C_R   0.716376 0.857169 0.241542 0.060957
C20   C     C_R   0.283708 0.356997 0.758578 0.060941
C21   C     C_R   0.687653 0.871148 0.143023 0.076184
C22   C     C_R   0.312390 0.350490 0.857324 0.076634
C23   C     C_R   0.727127 0.877598 0.068581 0.106989
C24   C     C_R   0.272875 0.348841 0.931783 0.108800
C25   C     C_R   0.794473 0.875725 0.093984 -0.179407
C26   C     C_R   0.205535 0.351254 0.906326 -0.180736
C27   C     C_R   0.674924 0.850351 0.313207 -0.195807
C28   C     C_R   0.325203 0.358451 0.686895 -0.196343
C29   C     C_R   0.580286 0.870034 0.193345 -0.168092
C30   C     C_R   0.419779 0.345531 0.807124 -0.167753
C31   C     C_R   0.892582 0.856025 0.212625 -0.116615
C32   C     C_R   0.107383 0.362797 0.787318 -0.098065
H5    H     H_    0.692690 0.841240 0.388912 0.093085
H6    H     H_    0.307472 0.361530 0.611058 0.092988
H7    H     H_    0.791021 0.819393 0.422163 0.116711
H8    H     H_    0.209040 0.375228 0.576947 0.117066
H9    H     H_    0.904035 0.804668 0.456493 0.132018
H10   H     H_    0.094862 0.385987 0.542684 0.126493
H11   H     H_    0.824591 0.883563 0.037707 0.137068
H12   H     H_    0.175411 0.348861 0.962693 0.136400
C33   C     C_1   0.166513 0.857132 0.168472 -0.205777
C34   C     C_1   0.833506 0.357321 0.831467 -0.204975
C35   C     C_1   0.218933 0.854744 0.219541 -0.001308
C36   C     C_1   0.781102 0.355353 0.780349 -0.002167
C37   C     C_1   0.280725 0.853229 0.279425 0.005062
C38   C     C_1   0.719309 0.353884 0.720477 0.004739
C39   C     C_1   0.333118 0.850913 0.330590 -0.201951
C40   C     C_1   0.666905 0.351408 0.669349 -0.202090
O11   O     O_R   0.922300 0.202240 0.924350 -0.531609
O12   O     O_R   0.077700 0.702240 0.075650 -0.533391
O13   O     O_R   0.050780 0.535130 0.891350 -0.542803
O14   O     O_R   0.949220 0.035130 0.108650 -0.539575
C41   C     C_R   0.067157 0.368507 0.865054 0.683844
C42   C     C_R   0.932961 0.867465 0.135053 0.674781
O15   O     O_R   0.921100 0.531560 0.912990 -0.539564
O16   O     O_R   0.078900 0.031560 0.087010 -0.539409
O17   O     O_R   0.947120 0.708470 0.097370 -0.538181
O18   O     O_R   0.052880 0.208470 0.902630 -0.534563
C43   C     C_R   0.895901 0.363535 0.893384 0.716871
C44   C     C_R   0.104088 0.863593 0.106635 0.713130
O19   O     O_3   0.008710 0.375800 0.060400 -0.373648
O20   O     O_3   0.991290 0.875800 0.939600 -0.371683
V3    V     V_3+5 0.998380 0.648080 0.988790 1.413725
V4    V     V_3+5 0.001620 0.148080 0.011210 1.419090
C45   C     C_3   0.696538 0.885745 0.962788 -0.362417
C46   C     C_3   0.742756 0.879581 0.887171 -0.739161
H13   H     H_    0.775235 0.003733 0.894052 0.229267
H14   H     H_    0.771616 0.748334 0.894357 0.228954
H15   H     H_    0.714366 0.882342 0.814028 0.220991
H16   H     H_    0.663163 0.764235 0.948110 0.180442
H17   H     H_    0.667820 0.016875 0.950813 0.180314
C47   C     C_3   0.303432 0.344555 0.037661 -0.362496
C48   C     C_3   0.257126 0.348058 0.113213 -0.739236
H18   H     H_    0.227596 0.478001 0.106113 0.229082
H19   H     H_    0.225304 0.222382 0.106223 0.229022
H20   H     H_    0.285497 0.346250 0.186378 0.220929
H21   H     H_    0.333099 0.215328 0.050441 0.180280
H22   H     H_    0.335909 0.468215 0.051639 0.180296
C49   C     C_3   0.996311 0.818493 0.330028 -0.351003
C50   C     C_3   0.023980 0.762790 0.432983 -0.786821
H23   H     H_    0.013624 0.871901 0.484930 0.226590
H24   H     H_    0.003656 0.625697 0.451872 0.226283
H25   H     H_    0.077286 0.748270 0.438412 0.224786
H26   H     H_    0.013187 0.711321 0.281804 0.179055
H27   H     H_    0.017550 0.955657 0.313012 0.172460
C51   C     C_3   0.004866 0.384433 0.662266 -0.363099
C52   C     C_3   0.977954 0.206229 0.611191 -0.762445
H28   H     H_    0.997134 0.189435 0.541775 0.223819
H29   H     H_    0.991039 0.081502 0.657468 0.230900
H30   H     H_    0.924440 0.215293 0.595846 0.220493
H31   H     H_    0.978972 0.407088 0.725079 0.166485
H32   H     H_    0.993184 0.506887 0.613850 0.174432

loop_
_geom_bond_atom_site_label_1
_geom_bond_atom_site_label_2
_ccdc_geom_bond_type
O14   V4    S    
C14   C16   A    
C7    C29   A    
C11   C13   A    
C49   C50   S    
O1    C3    A    
C32   C41   S    
O16   C44   A    
O2    C4    A    
C2    O7    A    
O15   V3    S    
C45   C46   S    
C23   C25   A    
O5    C3    A    
O12   V3    S    
C4    C7    S    
C16   C20   A    
C33   C44   S    
C19   C21   A    
C5    C29   A    
O20   V4    S    
C33   C35   T    
C49   H26   S    
C34   C36   T    
C50   H25   S    
C3    C8    S    
C7    C27   A    
C36   C38   S    
C37   C39   T    
C25   H11   S    
C38   C40   T    
C26   H12   S    
C18   C26   A    
C15   C17   A    
C51   H32   S    
C48   H19   S    
C19   C27   A    
C9    C31   A    
C45   H16   S    
C10   C32   A    
C24   C26   A    
O6    V2    S    
O11   V4    S    
O18   V4    S    
C13   C15   A    
C6    C30   A    
C34   C43   S    
O19   V3    S    
C47   H22   S    
C35   C37   S    
C51   H31   S    
O13   V3    S    
C23   C45   S    
O4    C2    A    
C12   H10   S    
O20   V3    S    
C27   H5    S    
O5    V1    S    
C5    H3    S    
C1    C40   S    
C50   H24   S    
O13   C41   A    
C16   C18   A    
C2    C39   S    
O4    V2    S    
C31   C42   S    
O6    C4    A    
O12   C44   A    
C50   H23   S    
C42   O17   A    
C11   H9    S    
O17   V3    S    
C41   O18   A    
C52   H29   S    
O1    V2    S    
C5    C21   A    
C48   H20   S    
O2    V1    S    
C45   H17   S    
O14   C42   A    
C9    C49   S    
C46   H14   S    
C17   C31   A    
C15   C19   A    
C20   C28   A    
C18   C32   A    
O3    V1    S    
C13   H7    S    
O19   V4    S    
C28   H6    S    
C14   H8    S    
C47   H21   S    
C6    H4    S    
O3    C1    A    
H1    C29   S    
C9    C11   A    
C46   H15   S    
C10   C12   A    
O11   C43   A    
C8    C30   A    
C24   C47   S    
C12   C14   A    
C6    C22   A    
C17   C25   A    
C1    O8    A    
C21   C23   A    
O8    V2    S    
C10   C51   S    
O15   C43   A    
C22   C24   A    
C8    C28   A    
C20   C22   A    
C52   H30   S    
O7    V1    S    
C51   C52   S    
C47   C48   S    
O16   V4    S    
C46   H13   S    
O9    V2    S    
C52   H28   S    
O10   V1    S    
C48   H18   S    
H2    C30   S    
C49   H27   S    
