data_mof_unit_951.cif
_audit_creation_date              2012-12-11T15:49:38-0500
_audit_creation_method            fapswitch 2.2
_symmetry_space_group_name_H-M    P1
_symmetry_Int_Tables_number       1
_space_group_crystal_system       triclinic
_cell_length_a                    8.386176
_cell_length_b                    19.239027
_cell_length_c                    27.400458
_cell_angle_alpha                 96.23802
_cell_angle_beta                  92.354599
_cell_angle_gamma                 85.539705
_cell_volume                      4378.9803233

loop_
_atom_site_label
_atom_site_type_symbol
_atom_type_description
_atom_site_fract_x
_atom_site_fract_y
_atom_site_fract_z
_atom_type_partial_charge
Ba1   Ba    Ba6+2 0.854000 0.466860 0.523710 1.690580
Ba2   Ba    Ba6+2 0.335820 0.533080 0.476290 1.704327
C1    C     C_3   0.715547 0.211948 0.656658 -0.337471
C2    C     C_3   0.654863 0.283240 0.641277 0.323383
C3    C     C_3   0.516961 0.642264 0.626601 0.281415
C4    C     C_3   0.525845 0.662875 0.681743 -0.353906
C5    C     C_3   0.008804 0.690267 0.346632 0.268991
C6    C     C_3   0.943964 0.720929 0.300104 -0.368580
C7    C     C_3   0.460893 0.707998 0.347196 0.309851
C8    C     C_3   0.379686 0.754807 0.310318 -0.278701
C9    C     C_R   0.033956 0.443671 0.180113 0.591504
C10   C     C_R   0.879417 0.553091 0.175546 0.580967
C11   C     C_2   0.741229 0.512890 0.268677 -0.063878
C12   C     C_3   0.118901 0.315880 0.657188 0.258991
C13   C     C_3   0.698222 0.508846 0.321641 -0.083804
C14   C     C_1   0.984022 0.486535 0.341780 -0.040789
C15   C     C_2   0.022647 0.484585 0.294614 -0.089290
C16   C     C_2   0.896184 0.499528 0.254714 0.202642
C17   C     C_R   0.010512 0.495565 0.101798 -0.077430
C18   C     C_R   0.072188 0.441661 0.129825 -0.034511
C19   C     C_R   0.170175 0.386306 0.106903 -0.059627
C20   C     C_R   0.913414 0.551597 0.124996 -0.031266
C21   C     C_2   0.845333 0.518979 0.354460 -0.255755
C22   C     C_2   0.347918 0.493966 0.648250 -0.140309
C23   C     C_3   0.100769 0.296103 0.709105 -0.188245
C24   C     C_R   0.176445 0.433366 0.976503 0.019252
C25   C     C_R   0.018701 0.546561 0.971811 0.019323
C26   C     C_R   0.114414 0.488670 0.948803 0.050935
C27   C     C_R   0.269644 0.376701 0.951573 -0.098718
C28   C     C_R   0.299052 0.374101 0.901669 -0.053406
C29   C     C_R   0.239604 0.428317 0.873961 -0.034367
C30   C     C_R   0.149001 0.486104 0.897522 -0.077769
C31   C     C_R   0.093108 0.541203 0.869756 -0.036478
C32   C     C_R   0.133157 0.538910 0.819456 0.599069
C33   C     C_R   0.269452 0.425240 0.823118 0.577681
C34   C     C_3   0.169568 0.311333 0.409076 0.295665
C35   C     C_2   0.410367 0.450758 0.728263 -0.100924
C36   C     C_3   0.436262 0.437035 0.673593 -0.008091
C37   C     C_1   0.200056 0.514989 0.659556 0.026473
C38   C     C_2   0.149413 0.507840 0.704672 -0.128587
C39   C     C_2   0.263943 0.478969 0.743873 0.190268
C40   C     C_R   0.143669 0.436242 0.027760 0.019841
C41   C     C_R   0.045756 0.493427 0.050603 0.050535
C42   C     C_R   0.982613 0.548499 0.022845 0.019398
C43   C     C_R   0.205341 0.383625 0.057360 -0.098404
C44   C     C_R   0.851659 0.605262 0.097138 -0.059302
C45   C     C_3   0.159350 0.234151 0.391219 -0.407978
C46   C     C_R   0.962817 0.600769 0.942586 -0.098045
C47   C     C_R   0.999851 0.598182 0.893087 -0.057256
C48   C     C_R   0.884865 0.603813 0.047481 -0.099400
C49   C     C_R   0.392589 0.297211 0.518680 -0.294479
C50   C     C_R   0.535712 0.275880 0.495459 0.014694
C51   C     C_R   0.588153 0.204210 0.490872 -0.111865
C52   C     C_R   0.497991 0.154318 0.509747 -0.010115
C53   C     C_R   0.351312 0.177881 0.532126 -0.130238
C54   C     C_R   0.298113 0.249198 0.536210 -0.035730
C55   C     C_R   0.530618 0.036428 0.543352 -0.073168
C56   C     C_3   0.001118 0.682995 0.587675 0.298603
C57   C     C_R   0.580066 0.964694 0.539131 -0.083361
C58   C     C_R   0.655233 0.931871 0.496777 0.058724
C59   C     C_R   0.680468 0.973316 0.458873 -0.049965
C60   C     C_R   0.630571 0.045171 0.463046 -0.081924
C61   C     C_R   0.554251 0.077840 0.505314 0.057332
C62   C     C_R   0.854694 0.829029 0.471330 -0.089083
C63   C     C_R   0.907189 0.757661 0.471073 0.033201
C64   C     C_R   0.664110 0.735615 0.509487 0.034383
C65   C     C_R   0.611280 0.806861 0.510941 -0.107063
C66   C     C_R   0.707497 0.855058 0.492685 0.025506
C67   C     C_3   0.995230 0.761456 0.603491 -0.371856
C68   C     C_R   0.814154 0.713246 0.492066 -0.238177
C69   C     C_3   0.695506 0.360164 0.372931 0.298180
C70   C     C_3   0.721773 0.325485 0.321095 -0.399798
H1    H     H_    0.682192 0.283511 0.601914 0.053164
H2    H     H_    0.236265 0.219253 0.359141 0.139943
H3    H     H_    0.200836 0.201780 0.421141 0.072509
H4    H     H_    0.033632 0.223628 0.380447 0.121393
H5    H     H_    0.877681 0.667310 0.580491 0.014988
H6    H     H_    0.074371 0.671337 0.554495 0.036920
H7    H     H_    0.922573 0.774282 0.636709 0.137975
H8    H     H_    0.940820 0.791380 0.573942 0.053026
H9    H     H_    0.118228 0.777818 0.612005 0.123756
H10   H     H_    0.813499 0.373086 0.389337 0.061918
H11   H     H_    0.611875 0.407186 0.370842 0.061828
H12   H     H_    0.840664 0.198622 0.645501 0.158145
H13   H     H_    0.799279 0.276301 0.322107 0.137267
H14   H     H_    0.780804 0.361017 0.299610 0.085863
H15   H     H_    0.605707 0.313209 0.302693 0.129882
H16   H     H_    0.522959 0.289336 0.645356 0.014650
H17   H     H_    0.639995 0.170992 0.638530 0.070772
H18   H     H_    0.390918 0.633049 0.615577 0.028613
H19   H     H_    0.599200 0.594631 0.618336 0.061308
H20   H     H_    0.444990 0.710414 0.691454 0.132474
H21   H     H_    0.488657 0.619456 0.701287 0.071718
H22   H     H_    0.650380 0.673779 0.693744 0.134223
H23   H     H_    0.711229 0.212158 0.697054 0.141421
H24   H     H_    0.103061 0.647443 0.336828 0.060618
H25   H     H_    0.906207 0.668362 0.362381 0.048134
H26   H     H_    0.929112 0.677529 0.270232 0.140399
H27   H     H_    0.824789 0.749939 0.306750 0.153891
H28   H     H_    0.026969 0.757927 0.288221 0.126075
H29   H     H_    0.365588 0.691476 0.369425 0.060353
H30   H     H_    0.471816 0.775397 0.288448 0.136256
H31   H     H_    0.306287 0.799662 0.329978 0.123334
H32   H     H_    0.032515 0.361745 0.652333 0.089719
H33   H     H_    0.299164 0.723472 0.284161 0.098161
H34   H     H_    0.146390 0.472945 0.284703 0.141726
H35   H     H_    0.220795 0.344222 0.127359 0.122834
H36   H     H_    0.502917 0.432386 0.753654 0.134674
H37   H     H_    0.371020 0.329081 0.884857 0.128485
H38   H     H_    0.321835 0.332606 0.969383 0.071432
H39   H     H_    0.282309 0.339100 0.043554 0.070758
H40   H     H_    0.645673 0.521311 0.241680 0.114392
H41   H     H_    0.775937 0.649117 0.113710 0.122625
H42   H     H_    0.890552 0.646878 0.956877 0.070251
H43   H     H_    0.242478 0.330947 0.653069 -0.025220
H44   H     H_    0.953890 0.641486 0.872941 0.123062
H45   H     H_    0.026924 0.524914 0.713732 0.153486
H46   H     H_    0.830693 0.647254 0.029421 0.070067
H47   H     H_    0.412616 0.522090 0.625125 -0.024940
H48   H     H_    0.497179 0.824573 0.526795 0.078435
H49   H     H_    0.561559 0.935063 0.569558 0.068996
H50   H     H_    0.475581 0.059703 0.576886 0.073628
H51   H     H_    0.698549 0.187586 0.472446 0.086596
H52   H     H_    0.736167 0.949922 0.425476 0.102962
H53   H     H_    0.109573 0.343638 0.735761 0.056509
H54   H     H_    0.648992 0.074811 0.432632 0.066049
H55   H     H_    0.929095 0.863862 0.455702 0.075152
H56   H     H_    0.277021 0.140947 0.545533 0.084122
H57   H     H_    0.861278 0.660567 0.496349 0.098444
H58   H     H_    0.980116 0.276833 0.712240 0.111799
H59   H     H_    0.296716 0.319257 0.419050 0.042237
H60   H     H_    0.088710 0.323469 0.440332 0.092986
N1    N     N_R   0.938069 0.499059 0.202862 -0.423971
N2    N     N_R   0.220964 0.481095 0.796042 -0.420821
O1    O     O_2   0.913240 0.537010 0.617740 -0.462558
O2    O     O_3   0.625439 0.313766 0.399525 -0.641994
O3    O     O_3   0.084616 0.258915 0.622813 -0.612079
O4    O     O_2   0.276450 0.462960 0.382230 -0.456746
O5    O     O_3   0.044470 0.462980 0.442430 -0.422615
O6    O     O_3   0.519740 0.589470 0.411120 -0.482168
O7    O     O_3   0.120316 0.351432 0.371029 -0.635219
O8    O     O_3   0.632420 0.583650 0.524140 -0.511347
O9    O     O_3   0.111040 0.625070 0.435230 -0.453600
O10   O     O_2   0.241693 0.748110 0.461384 -0.496102
O11   O     O_3   0.075969 0.743083 0.379019 -0.606786
O12   O     O_3   0.145240 0.536960 0.557560 -0.478535
O13   O     O_3   0.557280 0.416300 0.475860 -0.477813
O14   O     O_2   0.376710 0.670070 0.522470 -0.464862
O15   O     O_3   0.564495 0.696863 0.602531 -0.644815
O16   O     O_2   0.359877 0.550849 0.325437 -0.508344
O17   O     O_3   0.545581 0.651191 0.320566 -0.624993
O18   O     O_2   0.084138 0.395197 0.203266 -0.597262
O19   O     O_2   0.337005 0.371768 0.802935 -0.578793
O20   O     O_2   0.798190 0.603057 0.195206 -0.601654
O21   O     O_2   0.091708 0.589207 0.797004 -0.595743
O22   O     O_3   0.669960 0.410470 0.588880 -0.441969
O23   O     O_2   0.762745 0.471535 0.676815 -0.500336
O24   O     O_3   0.069915 0.648412 0.626066 -0.629829
O25   O     O_3   0.730191 0.336795 0.670729 -0.595865
O26   O     O_2   0.812980 0.329910 0.477500 -0.460049
O27   O     O_3   0.078660 0.374870 0.564770 -0.461185
O28   O     O_2   0.962910 0.250936 0.533438 -0.485274
P1    P     P_3+3 0.082480 0.557670 0.610090 1.005041
P2    P     P_3+3 0.635220 0.340300 0.462910 1.019240
P3    P     P_3+3 0.104576 0.282701 0.563610 0.965690
P4    P     P_3+3 0.107220 0.442270 0.389900 1.051136
P5    P     P_3+3 0.086285 0.717759 0.438743 0.981088
P6    P     P_3+3 0.648818 0.417060 0.652922 0.981903
P7    P     P_3+3 0.558887 0.671990 0.539145 0.945181
P8    P     P_3+3 0.526026 0.572314 0.345503 0.968909
C71   C     C_2   0.227881 0.240921 0.722206 0.928129
O29   O     O_2   0.190761 0.182384 0.729190 -0.600023
O30   O     O_R   0.388071 0.257226 0.727490 -0.735818
H61   H     H_    0.461175 0.217176 0.739135 0.310304
C72   C     C_2   0.577439 0.746356 0.381304 0.475231
H62   H     H_    0.645873 0.717618 0.407822 0.003547
O31   O     O_2   0.599120 0.807809 0.379009 -0.613479
C73   C     C_2   0.813678 0.538292 0.405056 0.852537
O32   O     O_2   0.823281 0.598043 0.422826 -0.666404
O33   O     O_R   0.741045 0.490600 0.429034 -0.772584
H63   H     H_    0.676556 0.514037 0.456454 0.387174
C74   C     C_2   0.340066 0.370975 0.523257 0.874580
O34   O     O_2   0.253168 0.395417 0.492106 -0.590545
O35   O     O_R   0.390680 0.413996 0.562901 -0.776262
H64   H     H_    0.391089 0.463614 0.554341 0.323901

loop_
_geom_bond_atom_site_label_1
_geom_bond_atom_site_label_2
_ccdc_geom_bond_type
C25   C46   A    
C57   H49   S    
C53   C54   A    
C38   C39   S    
Ba1   O22   S    
C64   P7    S    
C17   C18   A    
C41   C42   A    
C49   C74   S    
O3    P3    S    
C70   H13   S    
C5    C6    S    
C72   O31   D    
C64   C68   A    
C32   O21   D    
O35   H64   S    
C36   P6    S    
C5    H24   S    
C71   O30   S    
O7    P4    S    
C27   C28   A    
O17   P8    S    
C11   C16   D    
C16   N1    S    
C59   H52   S    
O15   P7    S    
Ba2   O5    S    
O26   P2    D    
C8    H31   S    
C6    H27   S    
C45   H4    S    
C49   C54   A    
C11   H40   S    
O13   P2    S    
C9    N1    Am   
O2    P2    S    
C28   C29   A    
C73   O33   S    
C55   C57   A    
C2    O25   S    
O11   P5    S    
C52   C61   S    
O22   P6    S    
Ba2   O14   S    
C12   H43   S    
C10   C20   A    
C22   C37   D    
C3    O15   S    
O25   P6    S    
C33   N2    Am   
C34   C45   S    
Ba1   Ba2   S    
C6    H26   S    
C74   O34   D    
C21   C73   S    
C23   H53   S    
Ba1   O8    S    
C56   H5    S    
C55   H50   S    
C25   C42   A    
O10   P5    D    
C72   H62   S    
Ba1   P2    S    
C14   P4    S    
C14   C15   D    
C4    H22   S    
C54   P3    S    
C22   C36   S    
C7    C72   S    
C65   H48   S    
Ba2   P4    S    
C69   H11   S    
C3    H18   S    
Ba1   O5    S    
C69   H10   S    
C4    H21   S    
C13   C21   S    
C64   C65   A    
Ba1   O27   S    
C57   C58   A    
Ba2   O9    S    
Ba1   O12   S    
C23   H58   S    
O23   P6    D    
C39   N2    S    
C17   C41   A    
C55   C61   A    
C19   C43   A    
C9    C18   A    
O14   P7    D    
C65   C66   A    
Ba2   O4    S    
C73   O32   D    
C27   H38   S    
C26   C30   A    
C17   C20   A    
C67   H9    S    
C35   H36   S    
C51   H51   S    
C34   H59   S    
C69   O2    S    
C60   H54   S    
C28   H37   S    
Ba2   O13   S    
O30   H61   S    
C68   H57   S    
C49   C50   A    
C13   P8    S    
C58   C59   A    
C40   C43   A    
C35   C36   S    
O5    P4    S    
C34   O7    S    
C60   C61   A    
O28   P3    D    
C12   H32   S    
C29   C30   A    
C12   O3    S    
C8    H30   S    
C62   H55   S    
C15   C16   S    
C3    H19   S    
C53   H56   S    
C71   O29   D    
O9    P5    S    
C2    H1    S    
C19   H35   S    
O24   P1    S    
C50   P2    S    
O8    P7    S    
C46   C47   A    
C20   C44   A    
C14   C21   D    
C10   N1    Am   
C11   C13   S    
C56   O24   S    
Ba2   O8    S    
C29   C33   A    
Ba1   O13   S    
C40   C41   A    
C37   P1    S    
C1    C2    S    
C62   C66   A    
C37   C38   D    
C70   H15   S    
C50   C51   A    
C24   C40   A    
C46   H42   S    
C7    C8    S    
C42   C48   A    
C44   C48   A    
C52   C53   A    
C7    O17   S    
C22   H47   S    
O6    P8    S    
C5    H25   S    
C44   H41   S    
C48   H46   S    
O1    P1    D    
Ba1   O26   S    
C33   O19   D    
C45   H2    S    
C10   O20   D    
C67   H8    S    
C70   H14   S    
C43   H39   S    
C56   C67   S    
C51   C52   A    
C2    H16   S    
Ba2   O12   S    
O12   P1    S    
C63   P5    S    
C24   C26   A    
O4    P4    D    
C1    H17   S    
C58   C66   S    
Ba2   O6    S    
C62   C63   A    
C34   H60   S    
C6    H28   S    
C45   H3    S    
C69   C70   S    
C15   H34   S    
C30   C31   A    
C23   C71   S    
O16   P8    D    
C4    H20   S    
C31   C32   A    
C38   H45   S    
C12   C23   S    
C35   C39   D    
C59   C60   A    
C74   O35   S    
C67   H7    S    
C56   H6    S    
C9    O18   D    
C47   H44   S    
C18   C19   A    
Ba1   P1    S    
C24   C27   A    
C7    H29   S    
C1    H12   S    
C3    C4    S    
C32   N2    Am   
C8    H33   S    
C1    H23   S    
C5    O11   S    
Ba1   O1    S    
C31   C47   A    
O27   P3    S    
O33   H63   S    
C63   C68   A    
C25   C26   A    
