data_mof_unit_4687.cif
_audit_creation_date              2012-10-26T20:21:44-0400
_audit_creation_method            fapswitch 2.2
_symmetry_space_group_name_H-M    P1
_symmetry_Int_Tables_number       1
_space_group_crystal_system       triclinic
_cell_length_a                    18.336915
_cell_length_b                    16.207369
_cell_length_c                    10.543279
_cell_angle_alpha                 90.47768
_cell_angle_beta                  89.426881
_cell_angle_gamma                 91.65471
_cell_volume                      3131.82542347

loop_
_atom_site_label
_atom_site_type_symbol
_atom_type_description
_atom_site_fract_x
_atom_site_fract_y
_atom_site_fract_z
_atom_type_partial_charge
C1    C     C_R   0.119774 0.384984 0.498689 0.530297
C2    C     C_R   0.998434 0.570395 0.935313 0.310831
C3    C     C_R   0.008446 0.571209 0.076543 0.323855
C4    C     C_R   0.003681 0.429299 0.929604 0.306621
C5    C     C_R   0.499126 0.929312 0.065914 0.285099
C6    C     C_R   0.506158 0.070431 0.925689 0.255718
C7    C     C_R   0.500527 0.070060 0.067000 0.272501
C8    C     C_R   0.493455 0.929091 0.925245 0.258902
C9    C     C_R   0.773173 0.313736 0.369735 0.172893
C10   C     C_R   0.218351 0.707651 0.617621 0.169294
C11   C     C_R   0.228353 0.686955 0.371779 0.173986
C12   C     C_R   0.880935 0.615418 0.498478 0.530616
C13   C     C_R   0.778023 0.296093 0.615642 0.166635
C14   C     C_R   0.228628 0.303194 0.616339 0.183131
C15   C     C_R   0.788306 0.716171 0.369007 0.170097
C16   C     C_R   0.773971 0.703396 0.610157 0.177524
C17   C     C_R   0.216161 0.281321 0.375722 0.194455
C18   C     C_R   0.277840 0.767367 0.353650 0.197533
C19   C     C_R   0.718232 0.227604 0.600991 0.162791
C20   C     C_R   0.721438 0.236271 0.354441 0.193855
C21   C     C_R   0.279930 0.774620 0.602479 0.155539
C22   C     C_R   0.717367 0.772633 0.620521 0.180081
C23   C     C_R   0.879458 0.388311 0.499840 0.518951
C24   C     C_R   0.277988 0.217991 0.385405 0.197461
C25   C     C_R   0.284013 0.231521 0.625869 0.176230
C26   C     C_R   0.724334 0.780233 0.378163 0.164499
C27   C     C_R   0.190925 0.670809 0.497340 -0.086283
C28   C     C_R   0.807911 0.331455 0.496112 -0.087507
C29   C     C_R   0.813422 0.680459 0.491175 -0.079756
C30   C     C_R   0.188878 0.321015 0.495934 -0.076815
C31   C     C_R   0.686587 0.195965 0.479428 -0.071759
C32   C     C_R   0.312225 0.806269 0.479948 -0.078931
C33   C     C_R   0.313967 0.190589 0.505284 -0.088211
C34   C     C_R   0.120177 0.612424 0.499841 0.522059
C35   C     C_R   0.687166 0.810024 0.500089 -0.081955
C36   C     C_R   0.619328 0.881344 0.499719 0.498197
C37   C     C_R   0.379568 0.117218 0.500463 0.466045
C38   C     C_R   0.381133 0.879682 0.495750 0.470669
C39   C     C_R   0.618575 0.120927 0.495531 0.515154
C40   C     C_R   0.995847 0.427264 0.071156 0.295089
Cu1   Cu    Cu3+1 0.000000 0.500000 0.640660 1.287779
Cu2   Cu    Cu3+1 0.000000 0.500000 0.359340 1.278436
Cu3   Cu    Cu3+1 0.500000 1.000000 0.640660 1.210804
Cu4   Cu    Cu3+1 0.500000 1.000000 0.359340 1.209277
H1    H     H_    0.053764 0.283605 0.307915 0.365570
H2    H     H_    0.194345 0.716703 0.990455 0.424860
H3    H     H_    0.193291 0.510112 0.089150 0.375470
H4    H     H_    0.800298 0.277091 0.940906 0.427098
H5    H     H_    0.236596 0.441255 0.939113 0.401126
H6    H     H_    0.806471 0.651991 0.016109 0.414277
H7    H     H_    0.750223 0.570867 0.926139 0.374364
H8    H     H_    0.237328 0.287869 0.031324 0.445161
H9    H     H_    0.308332 0.927709 0.080509 0.385041
H10   H     H_    0.778982 0.080981 0.744704 0.369474
H11   H     H_    0.693350 0.082699 0.082964 0.386714
H12   H     H_    0.055368 0.709981 0.701715 0.363357
H13   H     H_    0.226027 0.925312 0.747376 0.368590
H14   H     H_    0.698666 0.887815 0.949581 0.403917
H15   H     H_    0.223925 0.060844 0.199393 0.395794
H16   H     H_    0.299414 0.118378 0.953457 0.400514
H17   H     H_    0.770192 0.941640 0.250953 0.357955
H18   H     H_    0.939057 0.715382 0.308294 0.367162
H19   H     H_    0.949566 0.290541 0.688622 0.363676
H20   H     H_    0.501160 0.816014 0.329719 0.351654
H21   H     H_    0.465065 0.190067 0.614862 0.334092
H22   H     H_    0.497814 0.188759 0.346445 0.343160
H23   H     H_    0.467439 0.804675 0.607403 0.345238
H24   H     H_    0.819771 0.475836 0.075688 0.390629
N1    N     N_R   0.000000 0.500000 0.852070 -0.259632
N2    N     N_R   1.000000 0.500000 0.147930 -0.296728
N3    N     N_R   0.500000 1.000000 0.852070 -0.309593
N4    N     N_R   0.500000 0.000000 0.147930 -0.236534
O1    O     O_R   0.090170 0.409820 0.618740 -0.404156
O2    O     O_R   0.409830 0.090180 0.381260 -0.417276
O3    O     O_R   0.409830 0.090180 0.618740 -0.470339
O4    O     O_R   0.590170 0.909820 0.381260 -0.435815
O5    O     O_R   0.409830 0.909820 0.381260 -0.423204
O6    O     O_R   0.590170 0.090180 0.618740 -0.418448
O7    O     O_R   0.590170 0.090180 0.381260 -0.432364
O8    O     O_R   0.409830 0.909820 0.618740 -0.448085
O9    O     O_2   0.925113 0.260811 0.120813 -0.127248
O10   O     O_2   0.055647 0.275510 0.080098 -0.172581
O11   O     O_3   0.004415 0.307800 0.295425 -0.458635
O12   O     O_R   0.909830 0.590180 0.381260 -0.445234
O13   O     O_2   0.964203 0.744128 0.892864 -0.107327
O14   O     O_2   0.082253 0.699767 0.932071 -0.250985
O15   O     O_3   0.014297 0.671904 0.723728 -0.449493
O16   O     O_2   0.084625 0.730009 0.146207 -0.158833
O17   O     O_2   0.957346 0.723333 0.099784 -0.159643
O18   O     O_3   0.990042 0.692343 0.308262 -0.459810
O19   O     O_2   0.048546 0.261630 0.869302 -0.123807
O20   O     O_2   0.923570 0.295054 0.912016 -0.244396
O21   O     O_3   0.990452 0.329311 0.708796 -0.454041
O22   O     O_2   0.443057 0.766875 0.106460 -0.128844
O23   O     O_R   0.909830 0.590180 0.618740 -0.402877
O24   O     O_2   0.568867 0.778624 0.128006 -0.136783
O25   O     O_3   0.499087 0.861135 0.270306 -0.443460
O26   O     O_2   0.455891 0.220359 0.912307 -0.124365
O27   O     O_2   0.574876 0.222310 0.887991 -0.087979
O28   O     O_3   0.504030 0.193957 0.684254 -0.441622
O29   O     O_2   0.553021 0.231575 0.100225 -0.124039
O30   O     O_2   0.428604 0.217035 0.124377 -0.121627
O31   O     O_3   0.501071 0.146632 0.279527 -0.435765
O32   O     O_2   0.545884 0.780245 0.911768 -0.129469
O33   O     O_2   0.425007 0.775016 0.890160 -0.084352
O34   O     O_R   0.090170 0.409820 0.381260 -0.447116
O35   O     O_3   0.477738 0.803673 0.687418 -0.473977
O36   O     O_2   0.876413 0.385849 0.191661 -0.233003
O37   O     O_2   0.761532 0.336815 0.138636 -0.168780
O38   O     O_3   0.783258 0.472279 0.148265 -0.353251
O39   O     O_2   0.128894 0.585896 0.810312 -0.208505
O40   O     O_2   0.246568 0.589866 0.752365 -0.154243
O41   O     O_3   0.217056 0.675938 0.932199 -0.325004
O42   O     O_2   0.136185 0.605291 0.190855 -0.257707
O43   O     O_2   0.262773 0.645169 0.153438 -0.176197
O44   O     O_3   0.228546 0.515233 0.162257 -0.337670
O45   O     O_R   0.909830 0.409820 0.381260 -0.413001
O46   O     O_2   0.872663 0.407141 0.811934 -0.210136
O47   O     O_2   0.757668 0.425479 0.747262 -0.157083
O48   O     O_3   0.777051 0.329016 0.919945 -0.329597
O49   O     O_2   0.130938 0.368703 0.804975 -0.184149
O50   O     O_2   0.240521 0.322246 0.840985 -0.236506
O51   O     O_3   0.244612 0.452868 0.845513 -0.355782
O52   O     O_2   0.884302 0.599432 0.190532 -0.192487
O53   O     O_2   0.762757 0.592233 0.245204 -0.199518
O54   O     O_3   0.842556 0.637822 0.068865 -0.439161
O55   O     O_2   0.877062 0.656914 0.790632 -0.160715
O56   O     O_R   0.090170 0.590180 0.618740 -0.455085
O57   O     O_2   0.771468 0.698699 0.841675 -0.227831
O58   O     O_3   0.763328 0.562038 0.833686 -0.391599
O59   O     O_2   0.119502 0.378974 0.187505 -0.229482
O60   O     O_2   0.230137 0.403651 0.282583 -0.196909
O61   O     O_3   0.228792 0.337171 0.077653 -0.408728
O62   O     O_2   0.370664 0.851763 0.210700 -0.231742
O63   O     O_2   0.303593 0.781603 0.052665 -0.116405
O64   O     O_3   0.268113 0.909595 0.142547 -0.458149
O65   O     O_2   0.688835 0.247733 0.817712 -0.124501
O66   O     O_2   0.646405 0.109282 0.802048 -0.221790
O67   O     O_R   0.090170 0.590180 0.381260 -0.413441
O68   O     O_3   0.779435 0.137169 0.781638 -0.490006
O69   O     O_2   0.627147 0.158773 0.217739 -0.239484
O70   O     O_2   0.691886 0.228429 0.057409 -0.102079
O71   O     O_3   0.734079 0.102899 0.140757 -0.448275
O72   O     O_2   0.307501 0.754412 0.822993 -0.101079
O73   O     O_2   0.355381 0.890259 0.804123 -0.219366
O74   O     O_3   0.221930 0.869242 0.783298 -0.472916
O75   O     O_2   0.621371 0.860974 0.790621 -0.234338
O76   O     O_2   0.663886 0.746890 0.880988 -0.105895
O77   O     O_3   0.733449 0.875896 0.876679 -0.401710
O78   O     O_R   0.909830 0.409820 0.618740 -0.449348
O79   O     O_2   0.306592 0.232274 0.160226 -0.183313
O80   O     O_2   0.354287 0.104608 0.198070 -0.235516
O81   O     O_3   0.215146 0.119928 0.202936 -0.485730
O82   O     O_2   0.377883 0.141796 0.790768 -0.235422
O83   O     O_2   0.338945 0.256254 0.882535 -0.122668
O84   O     O_3   0.265230 0.129854 0.880973 -0.427521
O85   O     O_2   0.701789 0.767563 0.140880 -0.137648
O86   O     O_2   0.643811 0.891712 0.195916 -0.235483
O87   O     O_3   0.783215 0.886065 0.203119 -0.435357
O88   O     O_R   0.590170 0.909820 0.618740 -0.431661
S1    S     S_3+6 0.991979 0.317049 0.139780 0.218231
S2    S     S_3+6 0.189211 0.649258 0.780669 0.183689
S3    S     S_3+6 0.211562 0.602838 0.240242 0.145921
S4    S     S_3+6 0.805453 0.356445 0.775782 0.160560
S5    S     S_3+6 0.207281 0.373770 0.758687 0.151508
S6    S     S_3+6 0.821272 0.653533 0.218034 0.119745
S7    S     S_3+6 0.799925 0.644360 0.753907 0.130732
S8    S     S_3+6 0.188107 0.335844 0.221184 0.149169
S9    S     S_3+6 0.299164 0.819941 0.184718 0.153444
S10   S     S_3+6 0.698653 0.172658 0.744497 0.092504
S11   S     S_3+6 0.698400 0.189213 0.187225 0.154141
S12   S     S_3+6 0.012370 0.671787 0.875838 0.181638
S13   S     S_3+6 0.301366 0.828501 0.747572 0.104739
S14   S     S_3+6 0.684154 0.811649 0.786488 0.165547
S15   S     S_3+6 0.295810 0.162302 0.241961 0.069548
S16   S     S_3+6 0.315645 0.192141 0.789500 0.137646
S17   S     S_3+6 0.704472 0.835863 0.234190 0.080801
S18   S     S_3+6 0.015307 0.676780 0.159149 0.220968
S19   S     S_3+6 0.994048 0.328516 0.859986 0.177838
S20   S     S_3+6 0.502876 0.829012 0.133607 0.178837
S21   S     S_3+6 0.511406 0.172090 0.848398 0.245711
S22   S     S_3+6 0.495059 0.169721 0.135915 0.191084
S23   S     S_3+6 0.488332 0.826217 0.850374 0.245962
S24   S     S_3+6 0.799395 0.386988 0.229059 0.162902

loop_
_geom_bond_atom_site_label_1
_geom_bond_atom_site_label_2
_ccdc_geom_bond_type
C10   C27   A    
O83   S16   D    
C37   O2    A    
O18   S18   S    
C11   C18   A    
C17   C30   A    
C12   C29   S    
O66   S10   D    
O31   S22   S    
Cu1   Cu2   S    
O44   S3    S    
C35   C36   S    
C19   S10   S    
O69   S11   D    
C19   C31   A    
O21   S19   S    
O75   S14   D    
H4    O48   S    
Cu3   O6    S    
C22   C35   A    
H9    O64   S    
O46   S4    D    
C40   N2    A    
O14   S12   D    
Cu4   O5    S    
C3    S18   S    
O87   S17   S    
C5    N4    A    
H17   O87   S    
O25   S20   S    
C26   S17   S    
C16   S7    S    
H5    O51   S    
O74   S13   S    
C34   O67   A    
Cu2   N2    S    
C12   O12   A    
O77   S14   S    
Cu4   O4    S    
C36   O4    A    
O41   S2    S    
O80   S15   D    
O58   S7    S    
H10   O68   S    
C4    C40   A    
O62   S9    D    
O19   S19   D    
O72   S13   D    
C16   C22   A    
C15   S6    S    
Cu4   N4    S    
H6    O54   S    
C32   C38   S    
C2    N1    A    
H2    O41   S    
H14   O77   S    
C1    O34   A    
O11   S1    S    
O38   S24   S    
C10   C21   A    
O50   S5    D    
H13   O74   S    
C37   O3    A    
Cu3   O3    S    
H8    O61   S    
Cu1   O56   S    
H1    O11   S    
O39   S2    D    
C14   C30   A    
O68   S10   S    
C4    N1    A    
C22   S14   S    
H7    O58   S    
C15   C29   A    
C27   C34   S    
H15   O81   S    
C6    N3    A    
C21   C32   A    
O13   S12   D    
H11   O71   S    
O57   S7    D    
C6    S21   S    
O30   S22   D    
C39   O6    A    
C3    N2    A    
O79   S15   D    
Cu3   O88   S    
H24   O38   S    
O61   S8    S    
C7    N4    A    
O36   S24   D    
C15   C26   A    
O85   S17   D    
Cu1   O78   S    
O54   S6    S    
Cu3   O8    S    
O17   S18   D    
C33   C37   S    
O35   S23   S    
C39   O7    A    
Cu3   Cu4   S    
H16   O84   S    
C5    S20   S    
O20   S19   D    
C9    C20   A    
C11   C27   A    
C20   S11   S    
C11   S3    S    
Cu2   O12   S    
C13   C28   A    
O22   S20   D    
C23   C28   S    
O33   S23   D    
C14   S5    S    
Cu4   O2    S    
O28   S21   S    
Cu2   O34   S    
O65   S10   D    
O52   S6    D    
O37   S24   D    
O55   S7    D    
H20   O25   S    
C38   O5    A    
C23   O78   A    
O73   S13   D    
O59   S8    D    
C21   S13   S    
C12   O23   A    
C18   C32   A    
O48   S4    S    
C4    S19   S    
O49   S5    D    
C8    S23   S    
C13   S4    S    
Cu1   N1    S    
C18   S9    S    
H19   O21   S    
O84   S16   S    
C8    N3    A    
Cu3   N3    S    
C7    S22   S    
Cu2   O67   S    
O9    S1    D    
H22   O31   S    
O86   S17   D    
Cu4   O7    S    
O60   S8    D    
H21   O28   S    
H12   O15   S    
C17   S8    S    
O47   S4    D    
C23   O45   A    
C5    C8    A    
Cu2   O45   S    
O16   S18   D    
C6    C7    A    
O10   S1    D    
C17   C24   A    
O40   S2    D    
O81   S15   S    
C24   C33   A    
O82   S16   D    
C1    O1    A    
O24   S20   D    
O26   S21   D    
C2    C3    A    
C16   C29   A    
O71   S11   S    
C40   S1    S    
C9    S24   S    
C25   S16   S    
H23   O35   S    
O42   S3    D    
Cu1   O23   S    
C38   O8    A    
O15   S12   S    
H18   O18   S    
C34   O56   A    
C1    C30   S    
C31   C39   S    
O53   S6    D    
O63   S9    D    
C14   C25   A    
O43   S3    D    
O76   S14   D    
O27   S21   D    
H3    O44   S    
C36   O88   A    
Cu1   O1    S    
O51   S5    S    
C26   C35   A    
O32   S23   D    
O64   S9    S    
C10   S2    S    
C2    S12   S    
C13   C19   A    
C24   S15   S    
O29   S22   D    
C9    C28   A    
C25   C33   A    
O70   S11   D    
C20   C31   A    
