data_mof_unit_2185.cif
_audit_creation_date              2012-12-10T21:09:53-0500
_audit_creation_method            fapswitch 2.2
_symmetry_space_group_name_H-M    P1
_symmetry_Int_Tables_number       1
_space_group_crystal_system       triclinic
_cell_length_a                    12.862575
_cell_length_b                    17.528679
_cell_length_c                    16.818087
_cell_angle_alpha                 91.73588
_cell_angle_beta                  95.813729
_cell_angle_gamma                 91.241517
_cell_volume                      3769.47076706

loop_
_atom_site_label
_atom_site_type_symbol
_atom_type_description
_atom_site_fract_x
_atom_site_fract_y
_atom_site_fract_z
_atom_type_partial_charge
C1    C     C_R   0.499119 0.353649 0.499020 1.043551
C2    C     C_R   0.500881 0.646351 0.500980 1.043550
C3    C     C_R   0.501249 0.728374 0.502743 -0.401547
C4    C     C_R   0.498750 0.271626 0.497257 -0.401545
C5    C     C_R   0.575699 0.768391 0.464215 0.497092
C6    C     C_R   0.424298 0.231609 0.535782 0.497091
C7    C     C_R   0.575794 0.847342 0.465656 0.538298
C8    C     C_R   0.424202 0.152659 0.534341 0.538298
C9    C     C_R   0.501342 0.886022 0.505329 -0.256343
C10   C     C_R   0.498655 0.113978 0.494669 -0.256344
C11   C     C_1   0.500431 0.966285 0.501691 0.114781
C12   C     C_1   0.499564 0.033715 0.498306 0.114781
C13   C     C_R   0.457939 0.434111 0.826251 -0.295221
C14   C     C_R   0.542060 0.565888 0.173749 -0.295221
C15   C     C_R   0.458521 0.438033 0.741876 0.688207
C16   C     C_R   0.541479 0.561967 0.258124 0.688208
C17   C     C_R   0.540274 0.560787 0.755825 -0.121248
C18   C     C_R   0.459726 0.439213 0.244175 -0.121248
C19   C     C_R   0.539891 0.559346 0.839686 0.503121
C20   C     C_R   0.460109 0.440654 0.160314 0.503122
C21   C     C_R   0.498842 0.496510 0.875940 -0.131238
C22   C     C_R   0.501158 0.503490 0.124060 -0.131238
C23   C     C_R   0.299056 0.509521 0.485798 0.894972
C24   C     C_R   0.700944 0.490479 0.514202 0.894972
C25   C     C_1   0.499633 0.498465 0.963604 0.084713
C26   C     C_1   0.500367 0.501535 0.036396 0.084713
C27   C     C_R   0.812683 0.476034 0.521389 -0.152725
C28   C     C_R   0.187317 0.523966 0.478611 -0.152726
C29   C     C_R   0.024809 0.515596 0.394626 -0.246194
C30   C     C_R   0.975191 0.484404 0.605374 -0.246194
C31   C     C_R   0.131419 0.531608 0.402698 -0.031151
C32   C     C_R   0.868581 0.468392 0.597302 -0.031151
C33   C     C_R   0.133512 0.522096 0.547584 -0.061334
C34   C     C_R   0.866488 0.477904 0.452416 -0.061334
C35   C     C_R   0.027081 0.502720 0.538726 0.099440
C36   C     C_R   0.972919 0.497280 0.461274 0.099440
C37   C     C_R   0.426157 0.846365 0.544702 -0.163173
C38   C     C_R   0.573842 0.153635 0.455299 -0.163173
C39   C     C_R   0.426713 0.766785 0.542557 0.463253
C40   C     C_R   0.573287 0.233214 0.457445 0.463252
H1    H     H_    0.982564 0.520142 0.336263 0.150896
H2    H     H_    0.017437 0.479857 0.663737 0.150896
N1    N     N_R   0.500030 0.500030 0.707230 -0.175788
N2    N     N_R   0.499970 0.499970 0.292770 -0.175789
O1    O     O_R   0.500000 0.389130 0.566570 -0.546985
O2    O     O_R   0.500000 0.610870 0.433430 -0.546985
O3    O     O_R   0.499990 0.389100 0.433480 -0.604864
O4    O     O_R   0.500010 0.610900 0.566520 -0.604862
O5    O     O_R   0.346360 0.500000 0.555540 -0.569462
O6    O     O_R   0.653640 0.500000 0.444460 -0.569463
O7    O     O_R   0.346350 0.499970 0.422460 -0.651486
O8    O     O_R   0.653650 0.500030 0.577540 -0.651486
Zn1   Zn    Zn3+2 0.500000 0.500020 0.588860 1.029576
Zn2   Zn    Zn3+2 0.500000 0.499980 0.411140 1.029576
C41   C     C_R   0.818193 0.444615 0.374581 0.106422
C42   C     C_R   0.812508 0.364917 0.363363 -0.049865
C43   C     C_R   0.775129 0.331815 0.289013 -0.080561
C44   C     C_R   0.745074 0.378118 0.224987 -0.170529
C45   C     C_R   0.751782 0.457463 0.235464 -0.175771
C46   C     C_R   0.786406 0.490876 0.310267 -0.095645
H3    H     H_    0.838391 0.328492 0.412023 0.147557
H4    H     H_    0.770560 0.270290 0.280856 0.148675
H5    H     H_    0.717228 0.352563 0.167142 0.142422
H6    H     H_    0.731017 0.493012 0.185347 0.138542
H7    H     H_    0.791587 0.552484 0.317576 0.181282
C47   C     C_R   0.181807 0.555385 0.625419 0.106422
C48   C     C_R   0.213594 0.509124 0.689732 -0.095645
C49   C     C_R   0.248218 0.542537 0.764536 -0.175772
C50   C     C_R   0.254926 0.621882 0.775012 -0.170528
C51   C     C_R   0.224871 0.668185 0.710987 -0.080557
C52   C     C_R   0.187491 0.635083 0.636637 -0.049868
H8    H     H_    0.208413 0.447516 0.682424 0.181282
H9    H     H_    0.268983 0.506988 0.814652 0.138541
H10   H     H_    0.282771 0.647437 0.832858 0.142422
H11   H     H_    0.229440 0.729710 0.719144 0.148675
H12   H     H_    0.161609 0.671508 0.587977 0.147553
C53   C     C_R   0.581723 0.631285 0.723451 0.231953
C54   C     C_R   0.528676 0.699949 0.731482 0.005698
C55   C     C_R   0.572401 0.768701 0.708929 -0.147685
C56   C     C_R   0.668632 0.769437 0.677189 -0.148985
C57   C     C_R   0.722492 0.701641 0.669925 -0.151349
C58   C     C_R   0.680073 0.633149 0.694349 -0.110489
H13   H     H_    0.454348 0.700389 0.756388 0.136602
H14   H     H_    0.531355 0.821334 0.715684 0.133098
H15   H     H_    0.701751 0.822575 0.658824 0.145727
H16   H     H_    0.797909 0.702319 0.646624 0.149793
H17   H     H_    0.724796 0.582241 0.691985 0.151928
C59   C     C_R   0.418277 0.368715 0.276549 0.231954
C60   C     C_R   0.471325 0.300051 0.268518 0.005693
C61   C     C_R   0.427600 0.231299 0.291071 -0.147687
C62   C     C_R   0.331368 0.230563 0.322811 -0.148984
C63   C     C_R   0.277508 0.298359 0.330075 -0.151347
C64   C     C_R   0.319927 0.366851 0.305651 -0.110488
H18   H     H_    0.545653 0.299611 0.243613 0.136601
H19   H     H_    0.468647 0.178666 0.284316 0.133097
H20   H     H_    0.298250 0.177425 0.341176 0.145728
H21   H     H_    0.202091 0.297680 0.353376 0.149794
H22   H     H_    0.275204 0.417758 0.308014 0.151927
F1    F     F_    0.580255 0.619900 0.886190 -0.686484
F2    F     F_    0.419745 0.380100 0.113809 -0.686483
C65   C     C_R   0.819800 0.437203 0.666692 0.146158
C66   C     C_R   0.752269 0.372579 0.655790 -0.087396
C67   C     C_R   0.704754 0.343784 0.720117 -0.122448
C68   C     C_R   0.725167 0.378369 0.796187 -0.145632
C69   C     C_R   0.794003 0.441331 0.808199 -0.127075
C70   C     C_R   0.842099 0.470183 0.744090 -0.194851
H23   H     H_    0.735735 0.344855 0.597279 0.116398
H24   H     H_    0.651995 0.294676 0.710821 0.135294
H25   H     H_    0.687885 0.356305 0.845895 0.128935
H26   H     H_    0.809799 0.468018 0.867194 0.140098
H27   H     H_    0.894142 0.519663 0.754446 0.128791
C71   C     C_R   0.180200 0.562797 0.333308 0.146158
C72   C     C_R   0.157901 0.529817 0.255910 -0.194851
C73   C     C_R   0.205997 0.558669 0.191801 -0.127076
C74   C     C_R   0.274833 0.621631 0.203813 -0.145632
C75   C     C_R   0.295246 0.656216 0.279883 -0.122447
C76   C     C_R   0.247731 0.627421 0.344210 -0.087396
H28   H     H_    0.105858 0.480337 0.245554 0.128791
H29   H     H_    0.190201 0.531982 0.132806 0.140098
H30   H     H_    0.312115 0.643695 0.154105 0.128935
H31   H     H_    0.348005 0.705324 0.289179 0.135294
H32   H     H_    0.264265 0.655145 0.402722 0.116395
C77   C     C_R   0.347582 0.886473 0.588416 0.216197
C78   C     C_R   0.379523 0.940017 0.650492 -0.137519
C79   C     C_R   0.305365 0.976717 0.692352 -0.050441
C80   C     C_R   0.198934 0.960108 0.672842 -0.088393
C81   C     C_R   0.166473 0.906681 0.611506 -0.174525
C82   C     C_R   0.240355 0.869907 0.569426 -0.089649
H33   H     H_    0.461769 0.952963 0.666802 0.118846
H34   H     H_    0.330444 0.017977 0.739999 0.132533
H35   H     H_    0.141630 0.988554 0.705326 0.130572
H36   H     H_    0.084020 0.893764 0.596534 0.145167
H37   H     H_    0.214017 0.828790 0.521872 0.145025
C83   C     C_R   0.652420 0.113527 0.411588 0.216196
C84   C     C_R   0.620482 0.059984 0.349509 -0.137516
C85   C     C_R   0.694643 0.023284 0.307653 -0.050436
C86   C     C_R   0.801074 0.039891 0.327167 -0.088395
C87   C     C_R   0.833532 0.093316 0.388506 -0.174522
C88   C     C_R   0.759646 0.130091 0.430583 -0.089651
H38   H     H_    0.538236 0.047040 0.333196 0.118846
H39   H     H_    0.669566 0.982025 0.260004 0.132535
H40   H     H_    0.858380 0.011444 0.294686 0.130573
H41   H     H_    0.915984 0.106233 0.403481 0.145170
H42   H     H_    0.785982 0.171207 0.478138 0.145024
F3    F     F_    0.356013 0.726600 0.580142 -0.704322
F4    F     F_    0.643990 0.273400 0.419862 -0.704323
F5    F     F_    0.649470 0.731022 0.426984 -0.577125
F6    F     F_    0.350526 0.268978 0.573012 -0.577127
F7    F     F_    0.648137 0.886209 0.428132 -0.633950
F8    F     F_    0.351857 0.113791 0.571862 -0.633949
C89   C     C_R   0.412934 0.365074 0.860462 0.182860
C90   C     C_R   0.447979 0.292230 0.840338 -0.051501
C91   C     C_R   0.405716 0.227036 0.872041 -0.143496
C92   C     C_R   0.328071 0.233866 0.924006 -0.115244
C93   C     C_R   0.292275 0.305890 0.944115 -0.052604
C94   C     C_R   0.334141 0.371227 0.912411 -0.110698
H43   H     H_    0.508383 0.285869 0.800465 0.133767
H44   H     H_    0.433261 0.171192 0.856350 0.131548
H45   H     H_    0.295516 0.183346 0.948574 0.126800
H46   H     H_    0.231919 0.311123 0.984223 0.139972
H47   H     H_    0.304639 0.426412 0.928232 0.118508
C95   C     C_R   0.587066 0.634926 0.139538 0.182859
C96   C     C_R   0.665858 0.628772 0.087589 -0.110699
C97   C     C_R   0.707724 0.694110 0.055885 -0.052603
C98   C     C_R   0.671929 0.766134 0.075994 -0.115246
C99   C     C_R   0.594285 0.772964 0.127959 -0.143494
C100  C     C_R   0.552021 0.707770 0.159662 -0.051500
H48   H     H_    0.695360 0.573588 0.071767 0.118508
H49   H     H_    0.768081 0.688876 0.015777 0.139972
H50   H     H_    0.704484 0.816654 0.051426 0.126801
H51   H     H_    0.566739 0.828808 0.143650 0.131549
H52   H     H_    0.491617 0.714131 0.199535 0.133768
F9    F     F_    0.411672 0.380743 0.694575 -0.612079
F10   F     F_    0.588328 0.619257 0.305425 -0.612077

loop_
_geom_bond_atom_site_label_1
_geom_bond_atom_site_label_2
_ccdc_geom_bond_type
C24   O8    A    
C90   H43   S    
C38   C40   A    
C86   H40   S    
C98   C99   A    
C5    F5    S    
C66   C67   A    
C96   C97   A    
C24   C27   S    
C41   C42   A    
C1    O1    A    
C56   H15   S    
C73   C74   A    
C77   C82   A    
C84   C85   A    
C53   C54   A    
C2    O2    A    
C29   C36   A    
C45   H6    S    
O6    Zn2   S    
C30   C35   A    
C53   C58   A    
C97   C98   A    
C19   C21   A    
C69   H26   S    
C95   C96   A    
C87   H41   S    
C71   C76   A    
C23   O5    A    
C28   C33   A    
C74   C75   A    
C44   H5    S    
C42   C43   A    
C48   H8    S    
C60   H18   S    
C81   H36   S    
C68   C69   A    
C67   C68   A    
C17   C19   A    
C62   H20   S    
C37   C77   S    
C79   H34   S    
N1    Zn1   S    
C4    C40   A    
C49   C50   A    
C63   H21   S    
C31   C71   S    
C67   H24   S    
C16   N2    A    
C18   C20   A    
C57   H16   S    
C49   H9    S    
C47   C48   A    
C27   C32   A    
O1    Zn1   S    
C45   C46   A    
C91   C92   A    
C7    F7    S    
C41   C46   A    
O2    Zn2   S    
C97   H49   S    
O4    Zn1   S    
C54   H13   S    
C17   C53   S    
C71   C72   A    
C33   C47   S    
C57   C58   A    
C70   H27   S    
C27   C34   A    
C24   O6    A    
C84   H38   S    
C37   C39   A    
C75   H31   S    
C15   F9    S    
C48   C49   A    
C65   C66   A    
C77   C78   A    
C65   C70   A    
C55   C56   A    
C13   C89   S    
C4    C6    A    
C62   C63   A    
C5    C7    A    
C19   F1    S    
C54   C55   A    
C1    O3    A    
C6    C8    A    
C43   H4    S    
C25   C26   T    
C89   C94   A    
C18   C59   S    
C95   C100  A    
C35   C36   A    
C14   C95   S    
C8    F8    S    
C76   H32   S    
C17   N1    A    
C55   H14   S    
C18   N2    A    
C6    F6    S    
C88   H42   S    
C23   O7    A    
C47   C52   A    
C20   F2    S    
C89   C90   A    
C39   F3    S    
C9    C37   A    
C13   C21   A    
C50   H10   S    
C23   C28   S    
C59   C60   A    
C9    C11   S    
C92   C93   A    
C51   C52   A    
C10   C12   S    
O3    Zn2   S    
C20   C22   A    
C94   H47   S    
C13   C15   A    
C79   C80   A    
C14   C16   A    
C61   C62   A    
C81   C82   A    
C66   H23   S    
C52   H12   S    
C83   C88   A    
O8    Zn1   S    
C91   H44   S    
C72   C73   A    
C69   C70   A    
C16   F10   S    
C98   H50   S    
C7    C9    A    
C21   C25   S    
C59   C64   A    
C29   H1    S    
C93   H46   S    
C42   H3    S    
C28   C31   A    
C73   H29   S    
C56   C57   A    
C3    C5    A    
C61   H19   S    
C46   H7    S    
C11   C12   T    
C100  H52   S    
C86   C87   A    
C83   C84   A    
C40   F4    S    
C10   C38   A    
O7    Zn2   S    
C2    O4    A    
C1    C4    S    
C2    C3    S    
C44   C45   A    
C15   N1    A    
C92   H45   S    
C29   C31   A    
C82   H37   S    
C30   C32   A    
C14   C22   A    
C43   C44   A    
C68   H25   S    
C99   C100  A    
C80   H35   S    
C80   C81   A    
O5    Zn1   S    
C75   C76   A    
C63   C64   A    
C33   C35   A    
C85   H39   S    
C78   H33   S    
C96   H48   S    
C34   C36   A    
C38   C83   S    
C50   C51   A    
C99   H51   S    
C87   C88   A    
C3    C39   A    
C72   H28   S    
N2    Zn2   S    
C34   C41   S    
C90   C91   A    
C51   H11   S    
C8    C10   A    
C74   H30   S    
C22   C26   S    
C93   C94   A    
C32   C65   S    
C30   H2    S    
C60   C61   A    
C64   H22   S    
C85   C86   A    
C58   H17   S    
C78   C79   A    
