data_mof_unit_352.cif
_audit_creation_date              2012-12-11T14:24:41-0500
_audit_creation_method            fapswitch 2.2
_symmetry_space_group_name_H-M    P1
_symmetry_Int_Tables_number       1
_space_group_crystal_system       triclinic
_cell_length_a                    18.922269
_cell_length_b                    11.055189
_cell_length_c                    18.784581
_cell_angle_alpha                 89.60267
_cell_angle_beta                  90.623922
_cell_angle_gamma                 90.473565
_cell_volume                      3929.07334763

loop_
_atom_site_label
_atom_site_type_symbol
_atom_type_description
_atom_site_fract_x
_atom_site_fract_y
_atom_site_fract_z
_atom_type_partial_charge
C1    C     C_R   0.729397 0.373326 0.144795 0.535601
C2    C     C_R   0.269579 0.374604 0.854392 0.546825
C3    C     C_R   0.229392 0.873308 0.144788 0.539819
C4    C     C_R   0.769585 0.874587 0.854400 0.565669
C5    C     C_3   0.490144 0.050626 0.025163 -0.102147
C6    C     C_3   0.544716 0.084809 0.967907 -0.113347
C7    C     C_3   0.990113 0.550624 0.025186 -0.100471
C8    C     C_3   0.044682 0.584819 0.967930 -0.115597
C9    C     C_R   0.752358 0.905161 0.928421 -0.006408
C10   C     C_R   0.243125 0.898988 0.069075 -0.005907
C11   C     C_R   0.252334 0.405222 0.928398 -0.005853
C12   C     C_R   0.743134 0.399033 0.069090 -0.005664
C13   C     C_R   0.698592 0.844701 0.968163 0.016233
C14   C     C_R   0.302330 0.853105 0.032272 0.019012
C15   C     C_R   0.198570 0.344758 0.968137 0.017498
C16   C     C_R   0.802342 0.353164 0.032294 0.017655
C17   C     C_R   0.703014 0.845041 0.043756 0.025865
C18   C     C_R   0.299701 0.848449 0.956784 0.022988
C19   C     C_R   0.202989 0.345098 0.043729 0.024556
C20   C     C_R   0.799718 0.348496 0.956807 0.023194
C21   C     C_R   0.805408 0.978030 0.037516 -0.158515
C22   C     C_R   0.185976 0.946926 0.956409 -0.155122
C23   C     C_R   0.305371 0.478121 0.037489 -0.158979
C24   C     C_R   0.685985 0.446953 0.956419 -0.154259
C25   C     C_R   0.804376 0.971681 0.964778 -0.152654
C26   C     C_R   0.185087 0.942006 0.029375 -0.156012
C27   C     C_R   0.304339 0.471773 0.964752 -0.152011
C28   C     C_R   0.685094 0.442038 0.029385 -0.155902
C29   C     C_R   0.641270 0.782290 0.935895 -0.088516
C30   C     C_R   0.363357 0.809325 0.067537 -0.101967
C31   C     C_R   0.141255 0.282333 0.935865 -0.088622
C32   C     C_R   0.863363 0.309381 0.067570 -0.101641
C33   C     C_R   0.096270 0.210027 0.976289 -0.134185
C34   C     C_R   0.914619 0.247074 0.030318 -0.149601
C35   C     C_R   0.596277 0.710007 0.976324 -0.134172
C36   C     C_R   0.414624 0.747065 0.030272 -0.149238
C37   C     C_R   0.604882 0.702311 0.049647 -0.132411
C38   C     C_R   0.407577 0.731095 0.957251 -0.132584
C39   C     C_R   0.104873 0.202329 0.049611 -0.132143
C40   C     C_R   0.907575 0.231090 0.957299 -0.133475
C41   C     C_R   0.657665 0.768930 0.083305 -0.078632
C42   C     C_R   0.351035 0.781706 0.920593 -0.079847
C43   C     C_R   0.157643 0.268972 0.083273 -0.077856
C44   C     C_R   0.851051 0.281737 0.920629 -0.078291
C45   C     C_R   0.533696 0.155205 0.143624 0.549849
C46   C     C_R   0.467363 0.155496 0.855678 0.571767
C47   C     C_R   0.033676 0.655207 0.143636 0.546549
C48   C     C_R   0.967340 0.655494 0.855693 0.560792
C49   C     C_R   0.753347 0.920468 0.077768 -0.007510
C50   C     C_R   0.245143 0.909480 0.919632 -0.007689
C51   C     C_R   0.253322 0.420529 0.077743 -0.008964
C52   C     C_R   0.745155 0.409509 0.919647 -0.004804
C53   C     C_R   0.506715 0.170356 0.581163 0.015680
C54   C     C_R   0.539585 0.149558 0.436417 0.011954
C55   C     C_R   0.991582 0.665268 0.571366 0.021929
C56   C     C_R   0.994662 0.646945 0.421815 0.018166
C57   C     C_R   0.550961 0.076485 0.559313 -0.022339
C58   C     C_R   0.556916 0.052865 0.485496 -0.036251
C59   C     C_R   0.018366 0.560966 0.539162 -0.017396
C60   C     C_R   0.005599 0.543302 0.465861 -0.014330
C61   C     C_R   0.501768 0.248827 0.461069 -0.142794
C62   C     C_R   0.481341 0.254237 0.531442 -0.174669
C63   C     C_R   0.965562 0.747550 0.452679 -0.185195
C64   C     C_R   0.963129 0.755302 0.526895 -0.174946
C65   C     C_R   0.581248 0.996186 0.609836 0.390684
C66   C     C_R   0.575221 0.931615 0.467040 0.359327
C67   C     C_R   0.047119 0.465860 0.579670 0.394261
C68   C     C_R   0.000739 0.422615 0.440881 0.363895
C69   C     C_R   0.041381 0.349036 0.554924 -0.174289
C70   C     C_R   0.018243 0.326907 0.485658 -0.187827
C71   C     C_R   0.597673 0.879728 0.590182 -0.127508
C72   C     C_R   0.591537 0.846732 0.519732 -0.163469
C73   C     C_R   0.789912 0.851344 0.563375 -0.003701
C74   C     C_R   0.244197 0.919333 0.427052 0.006518
C75   C     C_R   0.243477 0.449076 0.584786 0.046389
C76   C     C_R   0.740364 0.443201 0.422097 -0.007516
C77   C     C_R   0.820620 0.959920 0.535616 0.038312
C78   C     C_R   0.186003 0.948768 0.470166 0.031265
C79   C     C_R   0.279217 0.553350 0.559813 0.033680
C80   C     C_R   0.679527 0.468857 0.464150 0.031823
C81   C     C_R   0.788439 0.008213 0.475960 0.015250
C82   C     C_R   0.197258 0.021899 0.528575 0.043140
C83   C     C_R   0.281632 0.574982 0.485520 0.014332
C84   C     C_R   0.683029 0.443062 0.536899 0.015459
C85   C     C_R   0.736630 0.811076 0.448841 -0.140265
C86   C     C_R   0.324075 0.989034 0.518944 -0.153571
C87   C     C_R   0.191978 0.416830 0.469109 -0.158170
C88   C     C_R   0.811495 0.453652 0.527016 -0.167577
C89   C     C_R   0.742617 0.967960 0.149388 0.532520
C90   C     C_R   0.257019 0.966014 0.849897 0.548585
C91   C     C_R   0.242610 0.467981 0.149378 0.546130
C92   C     C_R   0.757022 0.466023 0.849903 0.542795
C93   C     C_R   0.751097 0.774645 0.518473 -0.176127
C94   C     C_R   0.313045 0.947088 0.449787 -0.150685
C95   C     C_R   0.199983 0.384866 0.539021 -0.129960
C96   C     C_R   0.806108 0.454421 0.453243 -0.196168
C97   C     C_R   0.877583 0.027829 0.567282 -0.085684
C98   C     C_R   0.115965 0.911024 0.455344 -0.062994
C99   C     C_R   0.317817 0.629409 0.606648 -0.066702
C100  C     C_R   0.616947 0.523821 0.437084 -0.079416
C101  C     C_R   0.892274 0.144486 0.546225 -0.148227
C102  C     C_R   0.059104 0.973399 0.482079 -0.111583
C103  C     C_R   0.369347 0.707674 0.580815 -0.110585
C104  C     C_R   0.557194 0.534825 0.479194 -0.147811
C105  C     C_R   0.855251 0.193321 0.490500 -0.103338
C106  C     C_R   0.070015 0.052889 0.536016 -0.146923
C107  C     C_R   0.380049 0.716217 0.508133 -0.147216
C108  C     C_R   0.558426 0.492078 0.548813 -0.131427
C109  C     C_R   0.797676 0.132154 0.462219 -0.063220
C110  C     C_R   0.137577 0.080819 0.557500 -0.086888
C111  C     C_R   0.334363 0.656873 0.460818 -0.105429
C112  C     C_R   0.619806 0.440768 0.576603 -0.072887
C113  C     C_R   0.752590 0.929967 0.428757 0.018362
C114  C     C_R   0.265784 0.019566 0.560363 -0.000843
C115  C     C_R   0.234051 0.507812 0.440163 -0.005811
C116  C     C_R   0.750607 0.438853 0.569173 0.011816
C117  C     C_R   0.730621 0.385471 0.352383 0.532686
C118  C     C_R   0.267254 0.386218 0.649167 0.553015
C119  C     C_R   0.229281 0.876047 0.355726 0.530040
C120  C     C_R   0.791740 0.828242 0.639497 0.570401
C121  C     C_R   0.561285 0.151277 0.361181 0.568334
C122  C     C_R   0.468932 0.158576 0.648220 0.596804
C123  C     C_R   0.029286 0.654267 0.351436 0.541880
C124  C     C_R   0.966758 0.657915 0.645835 0.592623
C125  C     C_R   0.742084 0.971697 0.356723 0.527998
C126  C     C_R   0.272821 0.030192 0.637619 0.561975
C127  C     C_R   0.228274 0.526070 0.363248 0.554482
C128  C     C_R   0.757807 0.472322 0.643117 0.530738
C129  C     C_3   0.511450 0.275127 0.973447 -0.120035
C130  C     C_3   0.456795 0.240657 0.031284 -0.132267
C131  C     C_3   0.011403 0.775130 0.973471 -0.119710
C132  C     C_3   0.956752 0.740647 0.031309 -0.132780
C133  C     C_3   0.567725 0.196328 0.011728 -0.117554
C134  C     C_3   0.433859 0.128844 0.987367 -0.107255
C135  C     C_3   0.067684 0.696342 0.011748 -0.117942
C136  C     C_3   0.933821 0.628829 0.987391 -0.105955
C137  C     C_3   0.512586 0.162115 0.068216 0.044045
C138  C     C_3   0.489038 0.163049 0.930737 0.052140
C139  C     C_3   0.012549 0.662116 0.068238 0.044449
C140  C     C_3   0.988998 0.663047 0.930760 0.052528
Cr1   Cr    Cr6+3 0.772820 0.169820 0.252640 1.032265
Cr2   Cr    Cr6+3 0.227180 0.169820 0.747360 1.013529
Cr3   Cr    Cr6+3 0.272820 0.669820 0.252640 0.999063
Cr4   Cr    Cr6+3 0.727180 0.669820 0.747360 1.011308
Cr5   Cr    Cr6+3 0.615040 0.323610 0.249150 1.004924
Cr6   Cr    Cr6+3 0.384960 0.323610 0.750850 1.000324
Cr7   Cr    Cr6+3 0.115040 0.823610 0.249150 1.009279
Cr8   Cr    Cr6+3 0.884960 0.823610 0.750850 1.006166
Cr9   Cr    Cr6+3 0.616720 0.011130 0.250660 1.067762
Cr10  Cr    Cr6+3 0.383280 0.011130 0.749340 1.025924
Cr11  Cr    Cr6+3 0.116720 0.511130 0.250660 1.061341
Cr12  Cr    Cr6+3 0.883280 0.511130 0.749340 1.036390
H1    H     H_    0.623511 0.220687 0.023571 0.129424
H2    H     H_    0.378439 0.100507 0.975992 0.128317
H3    H     H_    0.123468 0.720708 0.023591 0.128908
H4    H     H_    0.878403 0.600483 0.976017 0.127887
H5    H     H_    0.483884 0.319151 0.424883 0.153835
H6    H     H_    0.444086 0.323069 0.546673 0.140554
H7    H     H_    0.944975 0.819041 0.418976 0.127916
H8    H     H_    0.938098 0.830642 0.549835 0.128079
H9    H     H_    0.054607 0.277141 0.591042 0.122154
H10   H     H_    0.012867 0.235732 0.466121 0.159027
H11   H     H_    0.612241 0.813286 0.629942 0.171566
H12   H     H_    0.601920 0.754590 0.505320 0.153641
H13   H     H_    0.709637 0.750203 0.412504 0.145520
H14   H     H_    0.377307 0.994874 0.540477 0.130885
H15   H     H_    0.157183 0.361547 0.436519 0.162161
H16   H     H_    0.863568 0.463747 0.550883 0.148134
H17   H     H_    0.913663 0.993209 0.607290 0.144046
H18   H     H_    0.105594 0.834496 0.422847 0.162444
H19   H     H_    0.310608 0.624549 0.663702 0.136566
H20   H     H_    0.614563 0.565230 0.384794 0.157211
H21   H     H_    0.730780 0.689149 0.537803 0.140367
H22   H     H_    0.357774 0.929110 0.416075 0.138692
H23   H     H_    0.175068 0.304451 0.556160 0.127828
H24   H     H_    0.852791 0.456346 0.420754 0.187157
H25   H     H_    0.931973 0.197339 0.573493 0.111589
H26   H     H_    0.006363 0.962397 0.462158 0.124467
H27   H     H_    0.401826 0.760158 0.617204 0.130052
H28   H     H_    0.510107 0.577321 0.457873 0.130758
H29   H     H_    0.874387 0.274890 0.467468 0.162559
H30   H     H_    0.026024 0.090253 0.562951 0.092308
H31   H     H_    0.421813 0.774264 0.488096 0.129894
H32   H     H_    0.511984 0.499663 0.581576 0.123552
H33   H     H_    0.762463 0.178154 0.426843 0.155967
H34   H     H_    0.140192 0.145650 0.599451 0.149175
H35   H     H_    0.343948 0.675751 0.405793 0.175485
H36   H     H_    0.618855 0.407430 0.630927 0.145525
H37   H     H_    0.520719 0.366911 0.950919 0.106299
H38   H     H_    0.420748 0.303373 0.058654 0.118838
H39   H     H_    0.020665 0.866918 0.950945 0.106660
H40   H     H_    0.920704 0.803348 0.058690 0.117504
H41   H     H_    0.482519 0.959226 0.048206 0.144954
H42   H     H_    0.580899 0.022299 0.940615 0.132191
H43   H     H_    0.982501 0.459225 0.048233 0.145827
H44   H     H_    0.080871 0.522315 0.940642 0.127819
H45   H     H_    0.846439 0.032675 0.062100 0.155803
H46   H     H_    0.140907 0.985361 0.928753 0.140345
H47   H     H_    0.346397 0.532776 0.062072 0.155417
H48   H     H_    0.640914 0.485371 0.928759 0.139725
H49   H     H_    0.628922 0.789650 0.879906 0.151116
H50   H     H_    0.373209 0.823622 0.123529 0.141727
H51   H     H_    0.128909 0.289696 0.879877 0.149360
H52   H     H_    0.873215 0.323702 0.123561 0.148109
H53   H     H_    0.847215 0.015744 0.937033 0.150190
H54   H     H_    0.136370 0.967517 0.054335 0.150231
H55   H     H_    0.347172 0.515842 0.937003 0.149965
H56   H     H_    0.636372 0.467531 0.054342 0.150408
H57   H     H_    0.056402 0.155853 0.950132 0.094185
H58   H     H_    0.958944 0.209021 0.058793 0.112358
H59   H     H_    0.556398 0.655848 0.950172 0.093564
H60   H     H_    0.458959 0.709029 0.058739 0.110394
H61   H     H_    0.071395 0.142816 0.080633 0.101932
H62   H     H_    0.944685 0.177201 0.928519 0.099549
H63   H     H_    0.571397 0.642815 0.080674 0.099784
H64   H     H_    0.444697 0.677241 0.928461 0.098073
H65   H     H_    0.664262 0.756403 0.140122 0.131116
H66   H     H_    0.346212 0.763115 0.864286 0.128528
H67   H     H_    0.164237 0.256441 0.140089 0.135996
H68   H     H_    0.846234 0.263144 0.864323 0.134914
O1    O     O_R   0.788190 0.043000 0.172520 -0.522223
O2    O     O_R   0.211810 0.043000 0.827480 -0.516771
O3    O     O_R   0.288190 0.543000 0.172520 -0.519493
O4    O     O_R   0.711810 0.543000 0.827480 -0.523011
O5    O     O_R   0.556550 0.253260 0.323480 -0.514402
O6    O     O_R   0.443450 0.253260 0.676520 -0.517048
O7    O     O_R   0.056550 0.753260 0.323480 -0.534155
O8    O     O_R   0.943450 0.753260 0.676520 -0.542554
O9    O     O_R   0.545830 0.051610 0.330160 -0.420611
O10   O     O_R   0.454170 0.051610 0.669840 -0.488233
O11   O     O_R   0.045830 0.551610 0.330160 -0.439741
O12   O     O_R   0.954170 0.551610 0.669840 -0.461954
O13   O     O_R   0.681920 0.959720 0.327070 -0.460607
O14   O     O_R   0.318080 0.959720 0.672930 -0.507510
O15   O     O_R   0.181920 0.459720 0.327070 -0.497427
O16   O     O_R   0.818080 0.459720 0.672930 -0.510897
O17   O     O_3   0.668190 0.168190 0.250820 -0.281289
O18   O     O_3   0.331810 0.168190 0.749180 -0.281358
O19   O     O_3   0.168190 0.668190 0.250820 -0.280450
O20   O     O_3   0.831810 0.668190 0.749180 -0.286318
O21   O     O_R   0.766240 0.292300 0.176860 -0.503653
O22   O     O_R   0.233760 0.292300 0.823140 -0.504768
O23   O     O_R   0.266240 0.792300 0.176860 -0.507644
O24   O     O_R   0.733760 0.792300 0.823140 -0.499216
O25   O     O_R   0.670310 0.409160 0.168720 -0.528996
O26   O     O_R   0.329690 0.409160 0.831280 -0.530225
O27   O     O_R   0.170310 0.909160 0.168720 -0.521806
O28   O     O_R   0.829690 0.909160 0.831280 -0.521166
O29   O     O_R   0.556160 0.251900 0.173380 -0.502217
O30   O     O_R   0.443840 0.251900 0.826620 -0.503672
O31   O     O_R   0.056160 0.751900 0.173380 -0.504058
O32   O     O_R   0.943840 0.751900 0.826620 -0.504993
O33   O     O_R   0.545410 0.050140 0.168240 -0.518968
O34   O     O_R   0.454590 0.050140 0.831760 -0.495060
O35   O     O_R   0.045410 0.550140 0.168240 -0.512593
O36   O     O_R   0.954590 0.550140 0.831760 -0.500711
O37   O     O_R   0.681530 0.958350 0.176970 -0.510166
O38   O     O_R   0.318470 0.958350 0.823030 -0.510397
O39   O     O_R   0.181530 0.458350 0.176970 -0.503556
O40   O     O_R   0.818470 0.458350 0.823030 -0.508709
O41   O     O_R   0.788610 0.044480 0.334450 -0.528454
O42   O     O_R   0.211390 0.044480 0.665550 -0.529186
O43   O     O_R   0.288610 0.544480 0.334450 -0.532110
O44   O     O_R   0.711390 0.544480 0.665550 -0.545739
O45   O     O_R   0.766630 0.293670 0.326970 -0.498159
O46   O     O_R   0.233370 0.293670 0.673030 -0.516549
O47   O     O_R   0.266630 0.793670 0.326970 -0.537362
O48   O     O_R   0.733370 0.793670 0.673030 -0.487928
O49   O     O_R   0.670730 0.410640 0.330640 -0.540326
O50   O     O_R   0.329270 0.410640 0.669360 -0.541550
O51   O     O_R   0.170730 0.910640 0.330640 -0.517684
O52   O     O_R   0.829270 0.910640 0.669360 -0.523358
F1    F     F_    0.590651 0.027917 0.679090 -0.619362
F2    F     F_    0.569478 0.884645 0.401184 -0.626686
F3    F     F_    0.077626 0.484929 0.644552 -0.627048
F4    F     F_    0.970362 0.394710 0.377150 -0.638732

loop_
_geom_bond_atom_site_label_1
_geom_bond_atom_site_label_2
_ccdc_geom_bond_type
C128  O16   A    
C73   C77   A    
C99   C103  A    
C88   C96   A    
C15   C19   A    
C24   C52   A    
C128  O44   A    
C120  O48   A    
C55   C59   A    
C78   C82   A    
C100  H20   S    
Cr2   O46   S    
C14   C18   A    
C103  C107  A    
C86   H14   S    
C73   C93   A    
C136  C140  S    
C95   H23   S    
C76   C96   A    
C33   H57   S    
C21   C49   A    
Cr11  O39   S    
C7    C8    S    
C26   H54   S    
C49   C89   S    
C132  C139  S    
C133  C137  S    
C74   C119  S    
C1    C12   S    
Cr4   O20   S    
Cr2   O2    S    
C33   C39   A    
C50   C90   S    
C71   H11   S    
Cr6   O30   S    
C37   C41   A    
C34   C40   A    
C82   C110  A    
C92   O4    A    
C13   C29   A    
C85   H13   S    
C35   C37   A    
C69   H9    S    
C38   C42   A    
C6    C133  S    
C61   H5    S    
C53   C122  S    
C18   C42   A    
C89   O1    A    
C5    C6    S    
C114  C126  S    
C121  O5    A    
C132  C136  S    
Cr10  O34   S    
C103  H27   S    
C113  C125  S    
C107  C111  A    
Cr9   O33   S    
C122  O6    A    
C23   H47   S    
Cr8   O28   S    
C98   H18   S    
C115  C127  S    
C6    C138  S    
C126  O42   A    
Cr5   O49   S    
Cr11  O35   S    
C86   C114  A    
C9    C13   A    
C106  H30   S    
C35   H59   S    
C131  C140  S    
C86   C94   A    
C105  H29   S    
C45   O29   A    
C118  O46   A    
C85   C93   A    
C58   C66   A    
C100  C104  A    
C66   C72   A    
C129  C138  S    
C12   C16   A    
C83   C111  A    
C127  O43   A    
C88   H16   S    
C129  H37   S    
C78   C98   A    
Cr9   O17   S    
Cr8   O52   S    
C31   C33   A    
C8    H44   S    
C63   H7    S    
C48   O36   A    
C34   H58   S    
C132  H40   S    
C40   C44   A    
C47   O31   A    
C61   C62   A    
C9    C25   A    
C80   C84   A    
C22   C50   A    
C59   C67   A    
C10   C26   A    
C104  C108  A    
C47   C139  S    
C134  C138  S    
C92   O40   A    
C119  O47   A    
C59   C60   A    
C84   C116  A    
C73   C120  S    
C80   C100  A    
C8    C135  S    
C51   C91   S    
C111  H35   S    
Cr4   O48   S    
C75   C118  S    
C11   C15   A    
C31   H51   S    
C14   C30   A    
C25   H53   S    
C2    C11   S    
C70   H10   S    
C87   H15   S    
C105  C109  A    
C124  O8    A    
C19   C43   A    
Cr5   O29   S    
C17   C41   A    
C4    O28   A    
C101  C105  A    
C5    C134  S    
C122  O10   A    
Cr11  O11   S    
Cr8   O32   S    
C121  O9    A    
C108  H32   S    
C75   C95   A    
C56   C123  S    
C83   C115  A    
Cr6   O50   S    
C125  O13   A    
C88   C116  A    
C82   C114  A    
C10   C14   A    
C135  H3    S    
C17   C49   A    
Cr12  O36   S    
C53   C57   A    
C45   O33   A    
C39   C43   A    
Cr6   O6    S    
C109  H33   S    
Cr10  O14   S    
C65   F1    S    
C15   C31   A    
Cr9   O13   S    
C108  C112  A    
Cr12  O12   S    
C107  H31   S    
C67   C69   A    
Cr3   O19   S    
Cr1   O45   S    
C48   O32   A    
C135  C139  S    
Cr1   O1    S    
C90   O38   A    
C47   O35   A    
Cr3   O3    S    
C98   C102  A    
C32   H52   S    
C81   C113  A    
C53   C62   A    
Cr12  O40   S    
C13   C17   A    
C23   C51   A    
C68   F4    S    
C52   C92   S    
C11   C27   A    
C16   C20   A    
C48   C140  S    
Cr7   O31   S    
C55   C64   A    
C64   H8    S    
C45   C137  S    
C72   H12   S    
C56   C63   A    
C89   O37   A    
C3    O23   A    
Cr2   O22   S    
Cr3   O23   S    
C5    C137  S    
C2    O22   A    
Cr9   O37   S    
C117  O45   A    
C124  O12   A    
C21   H45   S    
C1    O21   A    
C36   H60   S    
C129  C133  S    
C127  O15   A    
C126  O14   A    
C68   C70   A    
C54   C121  S    
C12   C28   A    
C20   C44   A    
C23   C27   A    
Cr5   O25   S    
C22   C26   A    
C102  H26   S    
C133  H1    S    
C7    C139  S    
Cr3   O43   S    
Cr1   O41   S    
C7    H43   S    
C131  C132  S    
Cr4   O44   S    
C6    H42   S    
C4    O24   A    
C119  O51   A    
C18   C50   A    
C5    H41   S    
C129  C130  S    
C106  C110  A    
C79   C99   A    
Cr2   O18   S    
C21   C25   A    
C87   C95   A    
C110  H34   S    
Cr1   O17   S    
Cr7   O19   S    
C96   H24   S    
C40   H62   S    
Cr6   O26   S    
Cr8   O20   S    
C87   C115  A    
C94   H22   S    
C43   H67   S    
C24   C28   A    
C38   H64   S    
C42   H66   S    
Cr10  O10   S    
C112  H36   S    
C41   H65   S    
C76   C80   A    
C67   F3    S    
C90   O2    A    
Cr11  O15   S    
Cr12  O16   S    
C54   C61   A    
C131  H39   S    
Cr8   O8    S    
C16   C32   A    
Cr11  O19   S    
C29   C35   A    
C81   C109  A    
C131  C135  S    
C54   C58   A    
C120  O52   A    
C30   C36   A    
C8    C140  S    
C39   H61   S    
Cr5   O17   S    
C85   C113  A    
C2    O26   A    
C97   H17   S    
Cr9   O9    S    
C7    C136  S    
C20   C52   A    
C46   O30   A    
C65   C71   A    
C75   C79   A    
Cr10  O38   S    
C36   C38   A    
C79   C83   A    
C3    O27   A    
C29   H49   S    
C77   C97   A    
C57   C58   A    
C104  H28   S    
Cr5   O5    S    
Cr12  O20   S    
C66   F2    S    
C28   H56   S    
Cr4   O24   S    
C93   H21   S    
C37   H63   S    
C62   H6    S    
C102  C106  A    
C19   C51   A    
Cr3   O47   S    
C57   C65   A    
C136  H4    S    
Cr6   O18   S    
C69   C70   A    
C130  C134  S    
C76   C117  S    
Cr1   O21   S    
C44   H68   S    
Cr4   O4    S    
C91   O39   A    
C60   C68   A    
Cr7   O27   S    
C63   C64   A    
C117  O49   A    
C55   C124  S    
C56   C60   A    
C71   C72   A    
C30   H50   S    
C123  O11   A    
C24   H48   S    
C27   H55   S    
Cr10  O18   S    
C77   C81   A    
C116  C128  S    
C125  O41   A    
C74   C94   A    
C3    C10   S    
C22   H46   S    
C46   C138  S    
C123  O7    A    
C1    O25   A    
C84   C112  A    
Cr2   O42   S    
Cr7   O7    S    
C4    C9    S    
C134  H2    S    
C130  C137  S    
C91   O3    A    
Cr7   O51   S    
C46   O34   A    
C101  H25   S    
C97   C101  A    
C130  H38   S    
C99   H19   S    
C32   C34   A    
C118  O50   A    
C74   C78   A    
