data_mof_unit_288.cif
_audit_creation_date              2012-12-10T19:07:37-0500
_audit_creation_method            fapswitch 2.2
_symmetry_space_group_name_H-M    P1
_symmetry_Int_Tables_number       1
_space_group_crystal_system       triclinic
_cell_length_a                    10.905508
_cell_length_b                    10.803252
_cell_length_c                    9.570746
_cell_angle_alpha                 90.408942
_cell_angle_beta                  91.191552
_cell_angle_gamma                 90.868232
_cell_volume                      1127.17239091

loop_
_atom_site_label
_atom_site_type_symbol
_atom_type_description
_atom_site_fract_x
_atom_site_fract_y
_atom_site_fract_z
_atom_type_partial_charge
C1    C     C_R   0.502634 0.262603 0.499302 0.856070
C2    C     C_R   0.942586 0.500097 0.621726 0.085761
C3    C     C_3   0.941119 0.502354 0.777477 -0.503021
C4    C     C_3   0.081382 0.495195 0.774678 0.005702
C5    C     C_R   0.420102 0.063056 0.577409 0.080189
C6    C     C_R   0.502007 0.129194 0.495034 -0.158426
C7    C     C_R   0.574245 0.063547 0.399088 0.166613
C8    C     C_R   0.572071 0.934178 0.400381 -0.213701
C9    C     C_R   0.501411 0.870281 0.498049 -0.119085
C10   C     C_R   0.421339 0.936089 0.580263 0.081034
C11   C     C_3   0.396122 0.931340 0.732542 -0.425601
C12   C     C_R   0.262981 0.498488 0.498822 0.841853
C13   C     C_3   0.390887 0.072103 0.728848 -0.021477
C14   C     C_R   0.543843 0.600121 0.075389 0.244643
C15   C     C_R   0.436204 0.411964 0.069943 0.252602
C16   C     C_R   0.439771 0.410756 0.921971 -0.075251
C17   C     C_R   0.541676 0.601093 0.928329 0.266928
C18   C     C_3   0.666191 0.657262 0.924643 -0.497457
C19   C     C_3   0.669449 0.655560 0.083279 -0.476673
C20   C     C_R   0.501507 0.737294 0.500240 0.819981
C21   C     C_R   0.737571 0.500064 0.500897 0.806737
C22   C     C_R   0.066239 0.497596 0.619736 0.110931
C23   C     C_R   0.130785 0.496845 0.496557 -0.099478
C24   C     C_R   0.062230 0.495912 0.370086 -0.162729
C25   C     C_R   0.933443 0.496235 0.371835 -0.171901
C26   C     C_R   0.870778 0.499312 0.499955 -0.080820
Cu1   Cu    Cu3+1 0.499990 0.499980 0.640670 0.974087
Cu2   Cu    Cu3+1 0.500010 0.500020 0.359330 1.003526
H1    H     H_    0.107292 0.494705 0.270312 0.193674
H2    H     H_    0.666241 0.751848 0.879664 0.205507
H3    H     H_    0.670676 0.749699 0.130666 0.205261
H4    H     H_    0.912195 0.593417 0.817416 0.220109
H5    H     H_    0.117289 0.405772 0.813004 0.182396
H6    H     H_    0.630797 0.883959 0.330751 0.162863
N1    N     N_R   0.500790 0.500930 0.147930 -0.211083
N2    N     N_R   0.500790 0.500890 0.852020 -0.203488
O1    O     O_R   0.500000 0.319640 0.618810 -0.596648
O2    O     O_R   0.500010 0.319680 0.381230 -0.533942
O3    O     O_R   0.319650 0.499970 0.618810 -0.563229
O4    O     O_R   0.319660 0.500010 0.381230 -0.569837
O5    O     O_R   0.499990 0.680320 0.618770 -0.576954
O6    O     O_R   0.500000 0.680360 0.381190 -0.581485
O7    O     O_R   0.680340 0.499990 0.618770 -0.584621
O8    O     O_R   0.680350 0.500030 0.381190 -0.585570
H7    H     H_    0.475144 0.896330 0.795195 0.185943
I1    I     I_    0.208701 0.139031 0.754101 -0.347634
H8    H     H_    0.464465 0.118835 0.792826 0.158953
I2    I     I_    0.314296 0.278196 0.153806 -0.282480
H9    H     H_    0.391798 0.338780 0.863248 0.175649
H10   H     H_    0.728893 0.591179 0.877457 0.216132
H11   H     H_    0.738486 0.591279 0.126923 0.212491
H12   H     H_    0.883837 0.493774 0.272852 0.170041
H13   H     H_    0.895741 0.419191 0.822157 0.207148
I3    I     I_    0.171264 0.656655 0.861959 -0.368146
I4    I     I_    0.700958 0.149743 0.262834 -0.333058
H14   H     H_    0.306741 0.885573 0.753241 0.250968

loop_
_geom_bond_atom_site_label_1
_geom_bond_atom_site_label_2
_ccdc_geom_bond_type
C2    C22   A    
C20   O6    A    
C23   C24   A    
C12   O4    A    
C6    C7    A    
C18   H2    S    
C17   N2    A    
C1    O1    A    
Cu1   N2    S    
C21   O8    A    
C4    C22   S    
C9    C10   A    
Cu1   O5    S    
C9    C20   S    
C5    C13   S    
C14   C17   A    
C16   N2    A    
Cu2   O2    S    
C21   C26   S    
C19   H3    S    
C12   O3    A    
C17   C18   S    
C3    C4    S    
C25   H12   S    
C5    C10   A    
C2    C26   A    
C8    H6    S    
C24   C25   A    
C24   H1    S    
C3    H13   S    
C12   C23   S    
C13   I1    S    
C1    O2    A    
Cu1   O1    S    
C5    C6    A    
C7    I4    S    
C15   I2    S    
C15   N1    A    
C20   O5    A    
C2    C3    S    
C3    H4    S    
C11   H7    S    
C7    C8    A    
C10   C11   S    
Cu2   O4    S    
C15   C16   A    
C19   H11   S    
C11   C13   S    
C16   H9    S    
C18   H10   S    
C18   C19   S    
Cu2   O6    S    
C14   N1    A    
C13   H8    S    
Cu1   O7    S    
C22   C23   A    
C4    I3    S    
C25   C26   A    
C4    H5    S    
C14   C19   S    
Cu2   O8    S    
C21   O7    A    
C11   H14   S    
C1    C6    S    
Cu2   N1    S    
Cu1   O3    S    
C8    C9    A    
Cu1   Cu2   S    
