data_mof_unit_3538.cif
_audit_creation_date              2012-12-10T19:15:13-0500
_audit_creation_method            fapswitch 2.2
_symmetry_space_group_name_H-M    P1
_symmetry_Int_Tables_number       1
_space_group_crystal_system       triclinic
_cell_length_a                    10.62402
_cell_length_b                    9.682268
_cell_length_c                    23.429018
_cell_angle_alpha                 90.176469
_cell_angle_beta                  89.92279
_cell_angle_gamma                 89.956734
_cell_volume                      2410.00245911

loop_
_atom_site_label
_atom_site_type_symbol
_atom_type_description
_atom_site_fract_x
_atom_site_fract_y
_atom_site_fract_z
_atom_type_partial_charge
C1    C     C_R   0.257558 0.500286 0.500267 0.840974
C2    C     C_R   0.615807 0.511485 0.119466 0.496619
C3    C     C_R   0.512095 0.620951 0.237370 -0.100695
C4    C     C_R   0.500214 0.499726 0.389196 0.877367
C5    C     C_R   0.510470 0.622922 0.296635 -0.227657
C6    C     C_R   0.501151 0.498538 0.326989 -0.044886
C7    C     C_R   0.493324 0.372461 0.297419 -0.225288
C8    C     C_R   0.494629 0.370950 0.238224 -0.104532
C9    C     C_R   0.504054 0.495034 0.208331 0.323721
C10   C     C_R   0.456626 0.606526 0.764159 -0.205561
C11   C     C_R   0.450496 0.610307 0.704759 0.435760
C12   C     C_R   0.278676 0.440131 0.970422 0.487387
C13   C     C_R   0.501035 0.499399 0.672905 -0.158490
C14   C     C_R   0.552425 0.384630 0.701032 -0.299543
C15   C     C_R   0.555454 0.380760 0.760174 -0.103447
C16   C     C_R   0.742650 0.500239 0.500138 0.841080
C17   C     C_R   0.507589 0.491607 0.791585 0.256314
C18   C     C_3   0.071393 0.652003 0.502404 -0.402909
C19   C     C_3   0.072043 0.422196 0.553280 -0.398697
C20   C     C_3   0.928566 0.652070 0.502099 -0.395991
C21   C     C_3   0.927622 0.422953 0.553439 -0.400182
C22   C     C_3   0.072623 0.430127 0.445291 -0.397990
C23   C     C_R   0.279583 0.445266 0.030060 -0.269451
C24   C     C_3   0.121282 0.501155 0.500329 0.183353
C25   C     C_3   0.878886 0.501153 0.500265 0.182006
C26   C     C_3   0.928144 0.429570 0.445376 -0.398066
C27   C     C_3   0.375813 0.081325 0.481230 -0.233710
C28   C     C_3   0.375977 0.918697 0.481026 -0.239903
C29   C     C_3   0.595359 0.081031 0.458779 -0.231236
C30   C     C_3   0.595427 0.918212 0.458805 -0.235273
C31   C     C_3   0.528208 0.081663 0.556156 -0.237354
C32   C     C_3   0.528523 0.919242 0.556099 -0.220808
C33   C     C_R   0.499589 0.500166 0.610720 0.907328
C34   C     C_R   0.391903 0.467162 0.059948 -0.080502
C35   C     C_R   0.618028 0.505248 0.880700 0.509704
C36   C     C_R   0.395882 0.464550 0.879909 0.531516
C37   C     C_R   0.391825 0.462653 0.939806 -0.134358
C38   C     C_R   0.505458 0.484217 0.969918 -0.082296
C39   C     C_R   0.619471 0.505040 0.940204 0.006330
C40   C     C_3   0.132043 0.281528 0.944072 0.114471
C41   C     C_3   0.013273 0.259337 0.909050 -0.721290
C42   C     C_3   0.265331 0.706788 0.677929 0.122105
C43   C     C_3   0.204338 0.834189 0.652103 -0.861740
C44   C     C_R   0.505323 0.486209 0.029926 -0.021489
C45   C     C_R   0.618612 0.508664 0.059875 0.001965
C46   C     C_R   0.731363 0.528165 0.029777 -0.159442
C47   C     C_R   0.731728 0.526679 0.970450 -0.177027
C48   C     C_R   0.393774 0.471171 0.119541 0.530527
H1    H     H_    0.591038 0.298235 0.677264 0.172275
H2    H     H_    0.892664 0.314560 0.553447 0.171365
H3    H     H_    0.107702 0.485891 0.406948 0.165955
H4    H     H_    0.107710 0.321891 0.442614 0.170438
H5    H     H_    0.892670 0.484363 0.406895 0.165456
H6    H     H_    0.893883 0.321036 0.443080 0.170341
H7    H     H_    0.350700 0.120232 0.438084 0.144995
H8    H     H_    0.351524 0.879824 0.437705 0.147201
H9    H     H_    0.191447 0.432317 0.052736 0.203861
H10   H     H_    0.301135 0.118852 0.510777 0.146456
H11   H     H_    0.300954 0.881063 0.510113 0.141707
H12   H     H_    0.594500 0.291681 0.781691 0.149043
H13   H     H_    0.577010 0.119010 0.414820 0.146703
H14   H     H_    0.577290 0.879526 0.414844 0.147034
H15   H     H_    0.621108 0.120695 0.570969 0.144209
H16   H     H_    0.621662 0.880626 0.570760 0.149222
H17   H     H_    0.457315 0.119412 0.587528 0.159418
H18   H     H_    0.458291 0.881748 0.587513 0.205218
H19   H     H_    0.690509 0.119258 0.470637 0.144357
H20   H     H_    0.690579 0.880173 0.470723 0.143294
H21   H     H_    0.819440 0.545434 0.051910 0.196776
H22   H     H_    0.820054 0.543459 0.948408 0.200945
H23   H     H_    0.106192 0.711486 0.464935 0.171494
H24   H     H_    0.519152 0.716867 0.213933 0.135041
H25   H     H_    0.516789 0.721308 0.318566 0.148954
H26   H     H_    0.485955 0.275217 0.319907 0.150034
H27   H     H_    0.488423 0.273669 0.215467 0.133772
H28   H     H_    0.419765 0.691896 0.789090 0.153814
H29   H     H_    0.112689 0.247796 0.988623 0.126447
H30   H     H_    0.208151 0.215967 0.925435 0.146643
H31   H     H_    0.029279 0.292373 0.864268 0.279754
H32   H     H_    0.987403 0.148242 0.909304 0.195138
H33   H     H_    0.934364 0.320075 0.927490 0.249037
H34   H     H_    0.106255 0.313466 0.552753 0.171858
H35   H     H_    0.227433 0.694275 0.722002 0.159310
H36   H     H_    0.238668 0.615404 0.651684 0.121461
H37   H     H_    0.236786 0.848048 0.607522 0.235699
H38   H     H_    0.100399 0.822086 0.652086 0.210766
H39   H     H_    0.229487 0.927327 0.677404 0.262503
H40   H     H_    0.105213 0.705069 0.541690 0.174327
H41   H     H_    0.107351 0.471323 0.593107 0.150869
H42   H     H_    0.893551 0.706238 0.541041 0.171561
H43   H     H_    0.892565 0.473655 0.593119 0.162838
H44   H     H_    0.894778 0.710642 0.464227 0.170191
N1    N     N_R   0.507428 0.486189 0.852228 -0.351827
N2    N     N_R   0.504544 0.492967 0.147681 -0.360433
N3    N     N_3   0.499750 0.138610 0.498760 -0.033603
N4    N     N_3   0.499750 0.861390 0.498760 -0.039702
O1    O     O_R   0.314910 0.616040 0.499990 -0.634179
O2    O     O_2   0.290014 0.445022 0.849174 -0.520363
O3    O     O_2   0.286046 0.453956 0.149300 -0.554091
O4    O     O_2   0.723062 0.531936 0.149131 -0.554176
O5    O     O_3   0.165127 0.422723 0.942479 -0.562450
O6    O     O_3   0.397363 0.723588 0.678266 -0.617895
O7    O     O_R   0.314910 0.383960 0.499990 -0.635618
O8    O     O_R   0.500080 0.616070 0.416130 -0.627907
O9    O     O_R   0.500080 0.383930 0.416130 -0.627041
O10   O     O_R   0.685320 0.616040 0.499970 -0.637558
O11   O     O_R   0.685320 0.383960 0.499970 -0.634570
O12   O     O_R   0.500150 0.616010 0.583820 -0.579870
O13   O     O_R   0.500150 0.383990 0.583820 -0.637191
O14   O     O_2   0.725769 0.525810 0.851316 -0.558197
Zn1   Zn    Zn3+2 0.500150 0.654960 0.499970 0.918000
Zn2   Zn    Zn3+2 0.500150 0.345040 0.499970 0.902176

loop_
_geom_bond_atom_site_label_1
_geom_bond_atom_site_label_2
_ccdc_geom_bond_type
O11   Zn2   S    
C27   N3    S    
C41   H32   S    
C28   H8    S    
C7    C8    A    
C45   C46   A    
C38   C44   A    
C20   H44   S    
C12   C23   A    
C29   C30   S    
C48   N2    A    
C3    C9    A    
C22   C24   S    
C22   H4    S    
C36   C37   A    
C19   C21   S    
N3    Zn2   S    
C38   C39   A    
O1    Zn1   S    
C27   H7    S    
C14   H1    S    
C20   C25   S    
C10   C17   A    
C42   O6    S    
C16   C25   S    
C31   H17   S    
C15   H12   S    
C12   C37   A    
C46   H21   S    
C30   N4    S    
C16   O11   A    
C40   O5    S    
C29   H19   S    
C10   H28   S    
C36   N1    A    
C8    C9    A    
C19   H34   S    
C1    O7    A    
C18   C20   S    
C16   O10   A    
C2    O4    S    
C13   C14   A    
C33   O12   A    
C26   H6    S    
C21   H2    S    
C7    H26   S    
O10   Zn1   S    
C35   N1    A    
C2    C45   A    
N4    Zn1   S    
C29   H13   S    
C43   H37   S    
C31   H15   S    
C2    N2    A    
C42   H36   S    
C32   H16   S    
C4    C6    S    
O13   Zn2   S    
C1    O1    A    
C29   N3    S    
C25   C26   S    
C39   C47   A    
C20   H42   S    
C8    H27   S    
C18   H40   S    
O7    Zn2   S    
C35   C39   A    
C47   H22   S    
C13   C33   S    
C37   C38   A    
C19   H41   S    
C31   C32   S    
C23   C34   A    
C41   H33   S    
C34   C44   A    
C35   O14   S    
C23   H9    S    
C40   C41   S    
C32   N4    S    
O9    Zn2   S    
C30   H14   S    
C18   C24   S    
C17   N1    S    
C42   C43   S    
C26   H5    S    
C44   C45   A    
C32   H18   S    
C21   H43   S    
C28   H11   S    
C18   H23   S    
C15   C17   A    
C48   O3    S    
C21   C25   S    
C46   C47   A    
C40   H29   S    
C43   H38   S    
C42   H35   S    
C3    C5    A    
C27   H10   S    
C41   H31   S    
O8    Zn1   S    
C6    C7    A    
C4    O9    A    
C34   C48   A    
O12   Zn1   S    
C28   N4    S    
C43   H39   S    
C3    H24   S    
C12   O5    S    
C11   C13   A    
C5    C6    A    
C31   N3    S    
C4    O8    A    
C19   C24   S    
C11   O6    S    
C40   H30   S    
C5    H25   S    
C10   C11   A    
C33   O13   A    
C1    C24   S    
C22   C26   S    
C27   C28   S    
C14   C15   A    
C36   O2    S    
C9    N2    S    
C30   H20   S    
C22   H3    S    
