data_mof_unit_1778.cif
_audit_creation_date              2012-12-10T16:58:27-0500
_audit_creation_method            fapswitch 2.2
_symmetry_space_group_name_H-M    P1
_symmetry_Int_Tables_number       1
_space_group_crystal_system       triclinic
_cell_length_a                    15.861246
_cell_length_b                    10.928631
_cell_length_c                    9.738161
_cell_angle_alpha                 86.991303
_cell_angle_beta                  90.083002
_cell_angle_gamma                 90.727661
_cell_volume                      1685.56615331

loop_
_atom_site_label
_atom_site_type_symbol
_atom_type_description
_atom_site_fract_x
_atom_site_fract_y
_atom_site_fract_z
_atom_type_partial_charge
C1    C     C_R   0.500848 0.265492 0.504259 0.699204
C2    C     C_3   0.083288 0.501983 0.496694 -0.160607
C3    C     C_3   0.973541 0.588525 0.578738 0.347899
C4    C     C_3   0.916762 0.500636 0.499356 -0.158021
C5    C     C_3   0.028440 0.612603 0.448951 0.153475
C6    C     C_3   0.971238 0.525076 0.368555 0.150652
C7    C     C_1   0.174924 0.501128 0.497632 0.161882
C8    C     C_1   0.825109 0.499880 0.500603 0.162139
C9    C     C_2   0.448695 0.934044 0.452852 -0.185594
C10   C     C_2   0.516472 0.865370 0.481964 0.455253
C11   C     C_2   0.455621 0.067598 0.433655 -0.193549
C12   C     C_R   0.340014 0.499926 0.499821 0.815654
C13   C     C_2   0.501745 0.132494 0.520138 0.381678
C14   C     C_2   0.447204 0.432958 0.924454 0.457526
C15   C     C_2   0.448470 0.430695 0.082859 0.556107
C16   C     C_R   0.502643 0.733947 0.495988 0.670123
C17   C     C_R   0.659986 0.499415 0.500179 0.770567
C18   C     C_3   0.972598 0.390636 0.546164 0.295254
C19   C     C_3   0.026473 0.415165 0.415877 0.352867
C20   C     C_1   0.250408 0.500467 0.498988 -0.161381
C21   C     C_1   0.749605 0.499528 0.500564 -0.169121
C22   C     C_3   0.027945 0.478597 0.626685 0.290332
Cu1   Cu    Cu3+1 0.500020 0.500020 0.638630 0.992108
Cu2   Cu    Cu3+1 0.499980 0.499980 0.361370 1.015224
H1    H     H_    0.552702 0.532982 0.889874 0.192177
H2    H     H_    0.386834 0.891733 0.441163 0.106700
H3    H     H_    0.418463 0.113152 0.352674 0.146652
N1    N     N_2   0.499090 0.498660 0.846910 -0.307188
N2    N     N_2   0.499070 0.498630 0.153040 -0.043303
O1    O     O_R   0.500010 0.321960 0.617040 -0.561594
O2    O     O_R   0.499990 0.321920 0.382900 -0.554558
O3    O     O_R   0.379090 0.500010 0.617050 -0.507013
O4    O     O_R   0.379060 0.499970 0.382910 -0.553539
O5    O     O_R   0.500010 0.678080 0.617100 -0.569988
O6    O     O_R   0.499990 0.678040 0.382960 -0.562614
O7    O     O_R   0.620940 0.500030 0.617090 -0.584356
O8    O     O_R   0.620910 0.499990 0.382950 -0.589104
O9    O     O_3   0.062238 0.326939 0.333379 -0.573185
C23   C     C_3   0.998231 0.264586 0.263529 -0.251954
H4    H     H_    0.976615 0.320521 0.172458 0.187820
H5    H     H_    0.943596 0.237501 0.330353 0.190560
H6    H     H_    0.024920 0.179287 0.225800 0.190196
O10   O     O_3   0.534050 0.074785 0.639952 -0.567297
C24   C     C_3   0.616543 0.117907 0.667521 -0.226375
H7    H     H_    0.614700 0.201174 0.727844 0.156244
H8    H     H_    0.654802 0.135776 0.572440 0.162578
H9    H     H_    0.649412 0.046385 0.731641 0.183813
O11   O     O_3   0.388084 0.361665 0.859578 -0.559156
C25   C     C_3   0.411003 0.237083 0.875025 -0.217034
H10   H     H_    0.385866 0.194117 0.972475 0.176480
H11   H     H_    0.480416 0.223034 0.870053 0.159112
H12   H     H_    0.382010 0.187590 0.789906 0.193868
O12   O     O_3   0.397713 0.346137 0.155735 -0.605600
C26   C     C_3   0.312329 0.380776 0.142451 -0.225466
H13   H     H_    0.283520 0.344678 0.048782 0.194433
H14   H     H_    0.303379 0.481846 0.142503 0.172030
H15   H     H_    0.276843 0.339050 0.231560 0.192552
O13   O     O_3   0.516970 0.609398 0.091588 -0.551574
C27   C     C_3   0.602853 0.635728 0.115010 -0.118333
H16   H     H_    0.643097 0.552948 0.113009 0.137481
H17   H     H_    0.611692 0.682286 0.212199 0.198656
H18   H     H_    0.625447 0.700589 0.031196 0.137028
O14   O     O_3   0.936248 0.278179 0.595502 -0.583326
C28   C     C_3   0.000222 0.192985 0.627765 -0.268066
H19   H     H_    0.045471 0.226971 0.704528 0.193391
H20   H     H_    0.034415 0.167641 0.534354 0.204287
H21   H     H_    0.970457 0.108086 0.673712 0.176640
Br1   Br    Br    0.924765 0.567102 0.187971 -0.534727
Br2   Br    Br    0.073811 0.767077 0.371955 -0.488387
O15   O     O_3   0.937688 0.675527 0.662747 -0.567813
C29   C     C_3   0.001047 0.753219 0.712606 -0.227186
H22   H     H_    0.013962 0.830235 0.636573 0.196192
H23   H     H_    0.060520 0.704736 0.740310 0.188283
H24   H     H_    0.977441 0.793306 0.807327 0.188419
O16   O     O_3   0.065522 0.455890 0.756857 -0.579295
C30   C     C_3   0.002600 0.442677 0.858602 -0.216709
H25   H     H_    0.956291 0.368994 0.837057 0.180059
H26   H     H_    0.969623 0.530217 0.871455 0.225202
H27   H     H_    0.033452 0.416820 0.957947 0.198289
O17   O     O_3   0.597068 0.917996 0.466391 -0.571215
C31   C     C_3   0.661483 0.839951 0.517100 -0.272431
H28   H     H_    0.669669 0.762158 0.449618 0.144181
H29   H     H_    0.649333 0.806930 0.625394 0.168652
H30   H     H_    0.721714 0.892683 0.515913 0.196745

loop_
_geom_bond_atom_site_label_1
_geom_bond_atom_site_label_2
_ccdc_geom_bond_type
C2    C7    S    
C30   H27   S    
C4    C8    S    
C31   H28   S    
C23   H5    S    
O12   C26   S    
H1    N1    S    
C6    C19   S    
C15   O12   S    
C30   H26   S    
C16   O6    A    
O9    C23   S    
C18   O14   S    
Cu1   O7    S    
C1    O2    A    
C18   C19   S    
Cu2   N2    S    
C5    Br2   S    
C16   O5    A    
C25   H11   S    
C2    C22   S    
Cu1   Cu2   S    
O15   C29   S    
C17   O7    A    
C9    C10   D    
C24   H9    S    
C4    C18   S    
C25   H12   S    
C6    Br1   S    
C27   H16   S    
C12   O3    A    
C22   O16   S    
C31   H29   S    
C24   H8    S    
C9    H2    S    
C15   N2    D    
C23   H6    S    
C26   H14   S    
C27   H17   S    
Cu2   O6    S    
Cu1   O1    S    
C3    O15   S    
C30   H25   S    
C4    C6    S    
C23   H4    S    
C29   H23   S    
C10   O17   S    
C14   O11   S    
O13   C27   S    
C17   C21   S    
C28   H20   S    
O16   C30   S    
C28   H21   S    
C19   O9    S    
C11   H3    S    
Cu1   O5    S    
C12   C20   S    
Cu2   O8    S    
C17   O8    A    
Cu1   N1    S    
C9    C11   S    
O11   C25   S    
C7    C20   T    
O10   C24   S    
C2    C5    S    
C1    C13   S    
C3    C4    S    
C13   O10   S    
C31   H30   S    
C24   H7    S    
C26   H13   S    
C27   H18   S    
C2    C19   S    
C18   C22   S    
O17   C31   S    
C3    C5    S    
C8    C21   T    
C29   H24   S    
Cu2   O4    S    
Cu1   O3    S    
Cu2   O2    S    
C29   H22   S    
C10   C16   S    
C28   H19   S    
C11   C13   D    
C5    C6    S    
C1    O1    A    
O14   C28   S    
N2    O13   S    
C25   H10   S    
C14   C15   S    
C3    C22   S    
C14   N1    D    
C12   O4    A    
C26   H15   S    
