data_mof_unit_4735.cif
_audit_creation_date              2012-12-10T16:51:17-0500
_audit_creation_method            fapswitch 2.2
_symmetry_space_group_name_H-M    P1
_symmetry_Int_Tables_number       1
_space_group_crystal_system       triclinic
_cell_length_a                    27.91535
_cell_length_b                    8.674797
_cell_length_c                    7.448037
_cell_angle_alpha                 103.630053
_cell_angle_beta                  94.456211
_cell_angle_gamma                 92.796655
_cell_volume                      1743.32773145

loop_
_atom_site_label
_atom_site_type_symbol
_atom_type_description
_atom_site_fract_x
_atom_site_fract_y
_atom_site_fract_z
_atom_type_partial_charge
C1    C     C_R   0.498503 0.199359 0.452614 0.848741
C2    C     C_R   0.501520 0.800644 0.547385 0.855197
C3    C     C_R   0.102044 0.500515 0.503934 -0.187567
C4    C     C_R   0.898266 0.485785 0.505593 -0.163243
C5    C     C_R   0.124462 0.358550 0.434998 -0.143493
C6    C     C_R   0.876228 0.627196 0.580688 -0.144705
C7    C     C_R   0.096047 0.217921 0.355110 0.699869
C8    C     C_R   0.905004 0.765579 0.667284 0.660939
C9    C     C_R   0.130656 0.645556 0.570677 -0.196533
C10   C     C_R   0.869295 0.342423 0.431291 -0.193268
C11   C     C_R   0.354691 0.509171 0.507104 -0.369031
C12   C     C_R   0.645365 0.488792 0.493007 -0.404324
C13   C     C_R   0.971813 0.345638 0.441859 -0.062342
C14   C     C_R   0.028453 0.639540 0.568708 -0.076462
C15   C     C_R   0.977714 0.633775 0.578503 0.033688
C16   C     C_R   0.022777 0.350661 0.435427 0.030318
C17   C     C_R   0.949357 0.488622 0.505837 0.007995
C18   C     C_R   0.051000 0.496663 0.505300 0.008640
C19   C     C_R   0.942449 0.201594 0.391192 0.538352
C20   C     C_R   0.057431 0.784458 0.616305 0.519750
C21   C     C_R   0.892318 0.200378 0.362800 0.235309
C22   C     C_R   0.107613 0.787166 0.639147 0.367366
C23   C     C_R   0.407573 0.504213 0.502940 0.898264
C24   C     C_R   0.592453 0.495507 0.497030 0.893038
C25   C     C_R   0.046372 0.216302 0.349100 -0.125579
C26   C     C_R   0.954585 0.766641 0.671070 -0.115436
C27   C     C_2   0.497795 0.030986 0.426334 -0.264311
C28   C     C_2   0.502251 0.969024 0.573669 -0.282006
C29   C     C_R   0.174853 0.361774 0.442599 0.728796
C30   C     C_R   0.825883 0.625640 0.572730 0.748419
C31   C     C_R   0.180888 0.643394 0.555401 0.679802
C32   C     C_R   0.818738 0.346586 0.439461 0.646112
C33   C     C_R   0.282498 0.573341 0.665139 -0.223523
C34   C     C_R   0.717700 0.426066 0.335033 -0.167992
C35   C     C_R   0.332725 0.583275 0.668896 0.304184
C36   C     C_R   0.667425 0.418075 0.330022 0.354150
C37   C     C_R   0.324943 0.438771 0.342912 0.519605
C38   C     C_R   0.675064 0.552813 0.659183 0.505439
C39   C     C_R   0.275085 0.440598 0.339169 0.619788
C40   C     C_R   0.724814 0.546698 0.664221 0.630618
C41   C     C_R   0.253515 0.504162 0.501407 0.038638
C42   C     C_R   0.746601 0.487828 0.501108 0.009040
Cu1   Cu    Cu3+1 0.505380 0.517380 0.684380 1.235778
Cu2   Cu    Cu3+1 0.494620 0.482620 0.315620 1.241213
H1    H     H_    0.734896 0.379401 0.210035 0.256596
H2    H     H_    0.265352 0.623590 0.789197 0.243004
H3    H     H_    0.027427 0.108640 0.267344 0.242012
H4    H     H_    0.974008 0.872107 0.756373 0.239544
H5    H     H_    0.493598 0.957839 0.285018 0.224886
H6    H     H_    0.506451 0.042171 0.714985 0.221080
N1    N     N_R   0.201875 0.502773 0.500270 -0.446839
N2    N     N_R   0.798303 0.486959 0.503698 -0.439276
N3    N     N_2   0.486510 0.456430 0.038510 0.260287
N4    N     N_2   0.513490 0.543570 0.961490 0.262544
O1    O     O_R   0.503500 0.286120 0.619780 -0.567156
O2    O     O_R   0.496500 0.713880 0.380220 -0.561784
O3    O     O_R   0.494410 0.256780 0.308360 -0.549396
O4    O     O_R   0.505590 0.743220 0.691640 -0.549750
O5    O     O_R   0.434810 0.514700 0.655690 -0.522381
O6    O     O_R   0.565190 0.485300 0.344310 -0.520313
O7    O     O_R   0.425720 0.485350 0.344280 -0.509756
O8    O     O_R   0.574280 0.514650 0.655720 -0.513627
O9    O     O_2   0.196911 0.225138 0.392832 -0.381588
O10   O     O_2   0.804378 0.761879 0.633195 -0.377423
O11   O     O_2   0.789912 0.211780 0.391558 -0.434286
O12   O     O_2   0.208653 0.780004 0.586252 -0.424661
F1    F     F_    0.343901 0.366391 0.184609 -0.543771
F2    F     F_    0.656210 0.622965 0.818537 -0.529954
F3    F     F_    0.457382 0.343348 0.922654 -0.500970
F4    F     F_    0.542333 0.657476 0.077393 -0.497688
F5    F     F_    0.247690 0.380228 0.176552 -0.586138
F6    F     F_    0.751888 0.598664 0.829116 -0.550188
F7    F     F_    0.115800 0.081517 0.274346 -0.562868
F8    F     F_    0.885746 0.900294 0.755826 -0.589350
S1    S     S_3+6 0.634990 0.307036 0.121562 0.085034
O13   O     O_2   0.596829 0.196444 0.164998 -0.281321
O14   O     O_2   0.611838 0.418980 0.020811 -0.189254
O15   O     O_3   0.672335 0.198917 0.983488 -0.470589
H7    H     H_    0.652128 0.149825 0.866738 0.383132
S2    S     S_3+6 0.365209 0.699875 0.874326 0.090214
O16   O     O_2   0.387870 0.592063 0.982229 -0.154453
O17   O     O_2   0.403984 0.806247 0.827216 -0.285081
O18   O     O_3   0.328211 0.813252 0.008713 -0.470909
H8    H     H_    0.318300 0.892688 0.939438 0.383684
S3    S     S_3+6 0.861281 0.019120 0.230496 0.179364
O19   O     O_2   0.827260 0.054557 0.081101 -0.124680
O20   O     O_2   0.895967 0.904442 0.140198 -0.175977
O21   O     O_3   0.829759 0.931605 0.366938 -0.407060
H9    H     H_    0.840540 0.991587 0.495125 0.389173
S4    S     S_3+6 0.138764 0.968083 0.770077 0.146470
O22   O     O_2   0.162052 0.052031 0.641283 -0.176997
O23   O     O_2   0.104669 0.075865 0.876277 -0.209818
O24   O     O_3   0.181244 0.928037 0.922475 -0.451918
H10   H     H_    0.197965 0.032533 0.984688 0.425433
F9    F     F_    0.961387 0.059985 0.387891 -0.610591
F10   F     F_    0.037850 0.925681 0.623177 -0.603877

loop_
_geom_bond_atom_site_label_1
_geom_bond_atom_site_label_2
_ccdc_geom_bond_type
C31   O12   S    
C29   O9    S    
O24   H10   S    
C30   O10   S    
C8    C26   A    
C14   C18   A    
C34   C42   A    
Cu1   Cu2   S    
N3    F3    S    
C7    F7    S    
N3    N4    D    
C23   O5    A    
C19   C21   A    
C9    C22   A    
C35   S2    S    
C3    C18   A    
C11   C37   A    
C32   N2    A    
Cu1   O4    S    
C28   H6    S    
Cu2   N3    S    
C12   C36   A    
C25   H3    S    
Cu1   O5    S    
C40   C42   A    
C20   F10   S    
C33   H2    S    
S2    O18   S    
C5    C29   A    
S3    O20   D    
C10   C21   A    
C21   S3    S    
C13   C19   A    
C14   C20   A    
C4    C6    A    
C31   N1    A    
C5    C7    A    
O15   H7    S    
C15   C26   A    
C6    C8    A    
S3    O19   D    
S1    O13   D    
C3    C9    A    
C36   S1    S    
C1    O3    A    
Cu2   O2    S    
Cu1   N4    S    
S4    O23   D    
O18   H8    S    
N4    F4    S    
Cu2   O3    S    
C24   O6    A    
C8    F8    S    
C22   S4    S    
C34   H1    S    
S1    O14   D    
C4    C17   A    
Cu1   O1    S    
C6    C30   A    
C20   C22   A    
C4    C10   A    
C19   F9    S    
S4    O24   S    
C29   N1    A    
S3    O21   S    
C16   C25   A    
C15   C17   A    
C30   N2    A    
C24   O8    A    
C40   F6    S    
C38   F2    S    
S2    O16   D    
C3    C5    A    
C2    O4    A    
C26   H4    S    
Cu2   O7    S    
C12   C24   S    
C7    C25   A    
C13   C17   A    
C33   C41   A    
C11   C35   A    
C1    O1    A    
C37   C39   A    
C2    O2    A    
C38   C40   A    
S4    O22   D    
Cu2   O6    S    
C37   F1    S    
C11   C23   S    
C33   C35   A    
S2    O17   D    
C34   C36   A    
C12   C38   A    
S1    O15   S    
C9    C31   A    
C10   C32   A    
C23   O7    A    
O21   H9    S    
C39   C41   A    
C16   C18   A    
C13   C16   A    
C27   C28   D    
C1    C27   S    
C39   F5    S    
C14   C15   A    
C2    C28   S    
C41   N1    S    
C27   H5    S    
Cu1   O8    S    
C42   N2    S    
C32   O11   S    
