data_mof_unit_1773.cif
_audit_creation_date              2012-12-11T14:00:02-0500
_audit_creation_method            fapswitch 2.2
_symmetry_space_group_name_H-M    P1
_symmetry_Int_Tables_number       1
_space_group_crystal_system       triclinic
_cell_length_a                    11.20796
_cell_length_b                    11.28768
_cell_length_c                    18.702761
_cell_angle_alpha                 90.281746
_cell_angle_beta                  90.338455
_cell_angle_gamma                 120.221614
_cell_volume                      2044.40886927

loop_
_atom_site_label
_atom_site_type_symbol
_atom_type_description
_atom_site_fract_x
_atom_site_fract_y
_atom_site_fract_z
_atom_type_partial_charge
C1    C     C_R   0.542593 0.478667 0.852818 0.592003
C2    C     C_R   0.451002 0.581358 0.360007 0.592866
C3    C     C_R   0.059902 0.518907 0.350043 0.560038
C4    C     C_R   0.459992 0.941812 0.350082 0.592786
C5    C     C_2   0.966379 0.475066 0.571105 -0.109339
C6    C     C_2   0.480957 0.513102 0.588101 -0.103310
C7    C     C_2   0.535501 0.089443 0.565403 -0.049465
C8    C     C_2   0.519349 0.032678 0.411938 -0.092438
C9    C     C_2   0.461486 0.554265 0.434831 -0.111402
C10   C     C_2   0.980859 0.493079 0.414772 -0.123826
C11   C     C_2   0.937724 0.376137 0.449994 0.377407
C12   C     C_R   0.522681 0.066057 0.853527 0.593226
C13   C     C_2   0.516586 0.657288 0.482820 0.348548
C14   C     C_2   0.453723 0.090517 0.443726 0.374532
C15   C     C_2   0.485160 0.141689 0.517591 0.353426
C16   C     C_2   0.547192 0.636552 0.556616 0.380928
C17   C     C_2   0.909324 0.365833 0.525916 0.365243
C18   C     C_2   0.995086 0.502641 0.924052 -0.056066
C19   C     C_2   0.493937 0.502158 0.919967 -0.058805
C20   C     C_2   0.505094 0.001740 0.922526 -0.060543
C21   C     C_2   0.505425 0.004800 0.079353 -0.060500
C22   C     C_2   0.492641 0.496938 0.076463 -0.056607
C23   C     C_R   0.933639 0.456573 0.853819 0.586568
C24   C     C_2   0.989951 0.496600 0.080163 -0.058204
C25   C     C_2   0.004045 0.601809 0.040351 0.184264
C26   C     C_2   0.381160 0.423797 0.033661 0.186441
C27   C     C_2   0.592320 0.984552 0.038454 0.184493
C28   C     C_2   0.615569 0.034217 0.964896 0.185901
C29   C     C_2   0.402471 0.396500 0.959742 0.185293
C30   C     C_2   0.955563 0.574125 0.966284 0.188920
C31   C     C_R   0.477059 0.543205 0.146298 0.595624
C32   C     C_R   0.063516 0.520943 0.147289 0.589627
C33   C     C_R   0.457161 0.935132 0.146939 0.585718
C34   C     C_R   0.540030 0.481611 0.649896 0.598586
C35   C     C_R   0.548545 0.129420 0.640011 0.616735
C36   C     C_R   0.929545 0.451954 0.645948 0.564516
Cr1   Cr    Cr6+3 0.464030 0.233680 0.750360 1.120794
Cr2   Cr    Cr6+3 0.766320 0.230350 0.750360 1.146617
Cr3   Cr    Cr6+3 0.769650 0.535970 0.750360 1.120207
Cr4   Cr    Cr6+3 0.233680 0.464030 0.249640 1.138921
Cr5   Cr    Cr6+3 0.230350 0.766320 0.249640 1.123346
Cr6   Cr    Cr6+3 0.535970 0.769650 0.249640 1.138491
F1    F     F_    0.926928 0.263144 0.417062 -0.541478
F2    F     F_    0.563109 0.788231 0.461459 -0.597241
F3    F     F_    0.347474 0.094229 0.410251 -0.544523
F4    F     F_    0.444649 0.231138 0.539074 -0.612322
F5    F     F_    0.653932 0.746097 0.590404 -0.537324
F6    F     F_    0.830888 0.235879 0.550534 -0.579432
H1    H     H_    0.976056 0.578453 0.438636 0.069242
H2    H     H_    0.400711 0.939209 0.942499 0.058539
H3    H     H_    0.546424 0.606033 0.941675 0.062381
H4    H     H_    0.061495 0.465924 0.944633 0.053597
H5    H     H_    0.075404 0.797003 0.027898 0.331858
H6    H     H_    0.182967 0.335379 0.016922 0.325345
H7    H     H_    0.707310 0.902911 0.024043 0.330714
H8    H     H_    0.814160 0.135274 0.981399 0.327343
H9    H     H_    0.278305 0.200927 0.972120 0.332399
H10   H     H_    0.843989 0.659350 0.982035 0.325025
H11   H     H_    0.426393 0.449030 0.449698 0.124819
H12   H     H_    0.612655 0.042155 0.435350 0.168283
H13   H     H_    0.564790 0.014589 0.550426 0.145747
H14   H     H_    0.387332 0.429427 0.564734 0.114472
H15   H     H_    0.030003 0.579502 0.552800 0.048755
H16   H     H_    0.938213 0.392784 0.058368 0.062483
H17   H     H_    0.596550 0.535121 0.056518 0.054734
H18   H     H_    0.456692 0.060158 0.058562 0.064202
O1    O     O_R   0.434100 0.092480 0.829780 -0.495223
O2    O     O_R   0.362730 0.477510 0.175360 -0.432948
O3    O     O_R   0.114780 0.637270 0.175360 -0.435962
O4    O     O_R   0.522490 0.885220 0.175360 -0.439738
O5    O     O_R   0.432250 0.092620 0.670380 -0.474416
O6    O     O_R   0.907380 0.339630 0.670380 -0.440916
O7    O     O_R   0.660370 0.567750 0.670380 -0.439528
O8    O     O_R   0.092620 0.432250 0.329620 -0.437329
O9    O     O_R   0.339630 0.907380 0.329620 -0.440184
O10   O     O_R   0.567750 0.660370 0.329620 -0.448918
O11   O     O_R   0.475790 0.362860 0.676880 -0.485418
O12   O     O_R   0.907520 0.341620 0.829780 -0.489482
O13   O     O_R   0.637140 0.112930 0.676880 -0.457354
O14   O     O_R   0.887070 0.524210 0.676880 -0.506889
O15   O     O_R   0.362860 0.475790 0.323120 -0.487056
O16   O     O_R   0.112930 0.637140 0.323120 -0.511059
O17   O     O_R   0.524210 0.887070 0.323120 -0.476886
O18   O     O_3   0.666667 0.333333 0.749450 -0.329722
O19   O     O_3   0.333333 0.666667 0.250550 -0.334373
O20   O     O_3   0.066117 0.734431 0.067267 -0.662818
O21   O     O_3   0.248305 0.377094 0.057753 -0.667501
O22   O     O_3   0.656588 0.915479 0.063889 -0.663569
O23   O     O_R   0.658380 0.565900 0.829780 -0.483624
O24   O     O_3   0.749264 0.115414 0.940786 -0.665917
O25   O     O_3   0.331814 0.263767 0.932870 -0.664157
O26   O     O_3   0.868277 0.618731 0.941492 -0.666164
O27   O     O_R   0.092480 0.434100 0.170220 -0.484486
O28   O     O_R   0.341620 0.907520 0.170220 -0.491516
O29   O     O_R   0.565900 0.658380 0.170220 -0.490337
O30   O     O_R   0.477510 0.362730 0.824640 -0.442225
O31   O     O_R   0.637270 0.114780 0.824640 -0.433894
O32   O     O_R   0.885220 0.522490 0.824640 -0.439570

loop_
_geom_bond_atom_site_label_1
_geom_bond_atom_site_label_2
_ccdc_geom_bond_type
C21   H18   S    
C17   F6    S    
Cr4   O27   S    
C4    C8    S    
C33   O28   A    
C18   H4    S    
Cr3   O18   S    
C34   O11   A    
H6    O21   S    
C21   C33   S    
Cr2   O13   S    
C5    C36   S    
Cr6   O4    S    
C5    H15   S    
C35   O13   A    
H7    O22   S    
C3    O8    A    
C9    C13   D    
C7    H13   S    
C4    O9    A    
C20   H2    S    
C26   O21   S    
C1    O23   A    
Cr1   O18   S    
C11   F1    S    
H5    O20   S    
C18   C30   D    
C20   C28   D    
H8    O24   S    
C32   O27   A    
C21   C27   D    
C35   O5    A    
C24   H16   S    
Cr2   O31   S    
C16   F5    S    
C14   F3    S    
C31   O2    A    
C12   O1    A    
Cr2   O6    S    
C1    C19   S    
C22   C31   S    
Cr6   O29   S    
C24   C25   D    
C30   O26   S    
C36   O14   A    
Cr3   O32   S    
Cr2   O12   S    
Cr1   O11   S    
C18   C23   S    
Cr1   O30   S    
C9    H11   S    
Cr4   O19   S    
C24   C32   S    
C22   H17   S    
C19   H3    S    
Cr5   O9    S    
Cr5   O28   S    
C12   C20   S    
C3    O16   A    
Cr6   O19   S    
C12   O31   A    
C33   O4    A    
Cr1   O5    S    
C22   C26   D    
C19   C29   D    
C29   O25   S    
C2    O10   A    
Cr5   O3    S    
C25   C30   S    
C11   C17   S    
C8    C14   D    
H9    O25   S    
Cr2   O18   S    
C7    C35   S    
Cr4   O15   S    
Cr6   O17   S    
C32   O3    A    
Cr5   O19   S    
Cr6   O10   S    
Cr3   O14   S    
C6    H14   S    
C3    C10   S    
C8    H12   S    
C2    C9    S    
C4    O17   A    
C1    O30   A    
C31   O29   A    
Cr5   O16   S    
Cr1   O1    S    
C7    C15   D    
C25   O20   S    
Cr4   O8    S    
Cr3   O7    S    
C23   O12   A    
C27   O22   S    
C10   C11   D    
C34   O7    A    
C6    C16   D    
C6    C34   S    
C23   O32   A    
C5    C17   D    
C26   C29   S    
Cr4   O2    S    
C13   C16   S    
C27   C28   S    
C14   C15   S    
C2    O15   A    
C28   O24   S    
C15   F4    S    
C10   H1    S    
H10   O26   S    
Cr3   O23   S    
C13   F2    S    
C36   O6    A    
