data_mof_unit_4641.cif
_audit_creation_date              2013-03-05T16:38:15-0500
_audit_creation_method            fapswitch 2.2
_symmetry_space_group_name_H-M    P1
_symmetry_Int_Tables_number       1
_space_group_crystal_system       triclinic
_cell_length_a                    21.712635
_cell_length_b                    21.262853
_cell_length_c                    21.762714
_cell_angle_alpha                 90.932204
_cell_angle_beta                  120.138633
_cell_angle_gamma                 119.399094
_cell_volume                      7094.83767168

loop_
_atom_site_label
_atom_site_type_symbol
_atom_site_description
_atom_site_fract_x
_atom_site_fract_y
_atom_site_fract_z
_atom_type_partial_charge
O1    O     O_R   0.551770 0.485660 0.433950 -0.630270
O2    O     O_R   0.448310 0.382210 0.433960 -0.610467
C1    C     C_R   0.498178 0.412407 0.412293 0.905992
O3    O     O_R   0.643350 0.551720 0.591610 -0.639147
O4    O     O_R   0.539890 0.448280 0.591620 -0.586289
C2    C     C_R   0.620000 0.501654 0.621232 0.968412
Zn1   Zn    Zn3+2 0.569080 0.569070 0.500000 1.116266
Zn2   Zn    Zn3+2 0.430920 0.430930 0.500000 1.147772
O5    O     O_R   0.551690 0.617790 0.566040 -0.597181
O6    O     O_R   0.448230 0.514340 0.566050 -0.547367
O7    O     O_R   0.460110 0.551720 0.408380 -0.583021
O8    O     O_R   0.356650 0.448280 0.408390 -0.594251
C3    C     C_R   0.500081 0.587447 0.585881 0.987199
C4    C     C_R   0.380125 0.499338 0.379220 0.889060
H1    H     H_    0.745938 0.817690 0.766123 0.219803
C5    C     C_R   0.780003 0.754251 0.726160 0.340344
C6    C     C_R   0.781754 0.688955 0.724041 -0.145333
H2    H     H_    0.806785 0.677685 0.696221 0.195059
C7    C     C_R   0.749949 0.637079 0.756748 0.029766
C8    C     C_R   0.720247 0.652798 0.795001 -0.012707
H3    H     H_    0.697875 0.614553 0.822293 0.227645
C9    C     C_R   0.719490 0.717988 0.798427 -0.170211
H4    H     H_    0.696118 0.729533 0.827855 0.204201
C10   C     C_R   0.748243 0.768064 0.763557 -0.153060
C11   C     C_R   0.813673 0.566161 0.815987 0.270081
C12   C     C_R   0.813476 0.499797 0.812574 -0.201565
C13   C     C_R   0.751823 0.435035 0.744623 -0.089567
C14   C     C_R   0.687633 0.435795 0.680978 -0.071811
C15   C     C_R   0.686629 0.501375 0.686079 -0.120181
C16   C     C_R   0.749724 0.566993 0.752649 -0.113901
C17   C     C_R   0.789960 0.361691 0.697517 -0.087396
H5    H     H_    0.811407 0.404555 0.673215 0.163089
C18   C     C_R   0.793965 0.299059 0.688393 -0.271475
H6    H     H_    0.817661 0.294258 0.656274 0.169928
C19   C     C_R   0.765287 0.241886 0.718103 -0.094021
C20   C     C_R   0.735199 0.250010 0.760498 0.376809
C21   C     C_R   0.730780 0.313137 0.768463 -0.255422
H7    H     H_    0.708578 0.320248 0.800825 0.149883
C22   C     C_R   0.757496 0.368671 0.736900 0.076723
C23   C     C_R   0.413127 0.108489 0.117467 0.302053
C24   C     C_R   0.493455 0.127310 0.135454 -0.151089
C25   C     C_R   0.571858 0.186633 0.201531 -0.259159
C26   C     C_R   0.573636 0.231904 0.250218 0.043890
C27   C     C_R   0.492879 0.213511 0.232824 0.022574
C28   C     C_R   0.412098 0.148236 0.169495 -0.007836
C29   C     C_R   0.653913 0.296438 0.314563 -0.052066
C30   C     C_R   0.652176 0.345582 0.355943 -0.141688
C31   C     C_R   0.573388 0.329154 0.337926 0.072948
C32   C     C_R   0.493246 0.261298 0.278388 0.091963
C33   C     C_R   0.413961 0.242869 0.263814 0.101692
C34   C     C_R   0.333868 0.174310 0.205354 -0.073944
C35   C     C_R   0.333282 0.125313 0.160098 -0.066945
C36   C     C_R   0.574253 0.379669 0.380103 -0.138882
C37   C     C_R   0.496447 0.362019 0.365326 -0.041883
C38   C     C_R   0.417092 0.294376 0.308313 -0.216521
H8    H     H_    0.631407 0.199771 0.211108 0.161067
H9    H     H_    0.712839 0.396405 0.403878 0.195974
H10   H     H_    0.635613 0.431821 0.425888 0.170420
H11   H     H_    0.358211 0.283881 0.298330 0.133718
C39   C     C_R   0.535108 0.602902 0.277942 -0.185740
C40   C     C_R   0.469185 0.592428 0.284292 0.369556
C41   C     C_R   0.390040 0.518354 0.249773 -0.134115
C42   C     C_R   0.376452 0.454952 0.208925 -0.132005
C43   C     C_R   0.443797 0.464913 0.204852 -0.013571
C44   C     C_R   0.523754 0.538854 0.240655 -0.153801
C45   C     C_R   0.251345 0.505435 0.188057 -0.167387
H12   H     H_    0.253886 0.511584 0.139813 0.171704
C46   C     C_R   0.182928 0.496975 0.186904 -0.043380
C47   C     C_R   0.179746 0.490595 0.249974 0.055904
C48   C     C_R   0.246020 0.492296 0.313718 0.324758
C49   C     C_R   0.314366 0.500500 0.314015 -0.152808
C50   C     C_R   0.318004 0.508117 0.251511 0.000418
C51   C     C_R   0.115442 0.545330 0.282404 -0.094051
C52   C     C_R   0.054272 0.534252 0.296204 0.198501
C53   C     C_R   0.986978 0.459336 0.280511 -0.075078
C54   C     C_R   0.979473 0.395844 0.249104 -0.148568
H13   H     H_    0.927266 0.338364 0.236671 0.223643
C55   C     C_R   0.039123 0.404676 0.235194 0.266090
C56   C     C_R   0.107342 0.480011 0.251024 -0.057535
C57   C     C_R   0.521089 0.814455 0.889466 -0.113034
C58   C     C_R   0.509658 0.872293 0.868111 -0.182394
C59   C     C_R   0.507697 0.890180 0.805023 -0.091214
C60   C     C_R   0.518968 0.850187 0.763523 0.087291
C61   C     C_R   0.516953 0.784623 0.778699 0.144412
C62   C     C_R   0.519237 0.767595 0.842128 0.095522
C63   C     C_R   0.529847 0.871273 0.705933 -0.082533
C64   C     C_R   0.525191 0.821753 0.658771 -0.119244
C65   C     C_R   0.517253 0.754538 0.670428 0.007948
C66   C     C_R   0.513607 0.735930 0.730852 0.015284
C67   C     C_R   0.506146 0.668230 0.743419 -0.037775
C68   C     C_R   0.512413 0.654463 0.808143 -0.106430
C69   C     C_R   0.520855 0.704265 0.857629 -0.088899
C70   C     C_R   0.515099 0.706510 0.623644 0.220474
C71   C     C_R   0.502841 0.637261 0.634316 -0.285275
C72   C     C_R   0.495620 0.616628 0.692599 0.211158
H14   H     H_    0.530698 0.837782 0.613853 0.203423
H15   H     H_    0.512455 0.605814 0.822006 0.228737
H16   H     H_    0.526320 0.690890 0.907092 0.209866
O9    O     O_R   0.908320 0.445630 0.037270 -0.621008
O10   O     O_R   0.908390 0.371060 0.962700 -0.559570
C73   C     C_R   0.880533 0.378942 0.999939 0.839631
O11   O     O_R   0.908320 0.537260 0.945670 -0.574310
O12   O     O_R   0.908390 0.462700 0.871100 -0.620723
C74   C     C_R   0.879507 0.499643 0.879670 0.909723
Zn3   Zn    Zn3+2 0.999930 0.549770 0.049790 1.094906
Zn4   Zn    Zn3+2 0.000030 0.450190 0.950210 1.091536
O13   O     O_R   0.091570 0.628900 0.037300 -0.606404
O14   O     O_R   0.091640 0.554330 0.962730 -0.614916
O15   O     O_R   0.091560 0.537260 0.128900 -0.615286
O16   O     O_R   0.091630 0.462690 0.054330 -0.594356
C75   C     C_R   0.121774 0.620992 0.002461 0.898489
C76   C     C_R   0.117676 0.497641 0.120149 0.874367
O17   O     O_R   0.460070 0.908340 0.051740 -0.563932
O18   O     O_R   0.356610 0.908380 0.948360 -0.624251
C77   C     C_R   0.379720 0.878993 0.998896 0.924143
O19   O     O_R   0.551760 0.066040 0.117810 -0.594067
O20   O     O_R   0.448290 0.066080 0.014430 -0.584695
C78   C     C_R   0.498043 0.084831 0.086753 0.930530
Zn5   Zn    Zn3+2 0.569030 0.999920 0.069030 1.106230
Zn6   Zn    Zn3+2 0.430870 0.999980 0.930970 1.098320
O21   O     O_R   0.643290 0.091520 0.051640 -0.634749
O22   O     O_R   0.539830 0.091560 0.948260 -0.591241
O23   O     O_R   0.551610 0.933820 0.985570 -0.655737
O24   O     O_R   0.448150 0.933870 0.882190 -0.598979
C79   C     C_R   0.619889 0.118068 0.998363 0.904021
C80   C     C_R   0.501783 0.914724 0.913611 0.894495
C81   C     C_R   0.746500 0.486965 0.007308 -0.233118
H17   H     H_    0.776141 0.537153 0.052343 0.229910
C82   C     C_R   0.763631 0.431671 0.025570 0.336683
C83   C     C_R   0.724583 0.366030 0.966396 -0.022927
C84   C     C_R   0.664550 0.354739 0.891344 -0.289141
H18   H     H_    0.629897 0.302491 0.846070 0.206262
C85   C     C_R   0.646384 0.409137 0.874184 -0.196884
H19   H     H_    0.599725 0.398805 0.815696 0.206271
C86   C     C_R   0.687212 0.475743 0.932040 0.337593
C87   C     C_R   0.675981 0.240032 0.980341 -0.130470
H20   H     H_    0.619614 0.236458 0.969606 0.162085
C88   C     C_R   0.685923 0.181340 0.996112 -0.041360
C89   C     C_R   0.757627 0.183664 0.009546 0.018154
C90   C     C_R   0.821792 0.248042 0.008866 -0.067369
C91   C     C_R   0.813386 0.309980 0.996905 -0.090995
C92   C     C_R   0.739343 0.305031 0.981629 0.085499
C93   C     C_R   0.798869 0.111611 0.093196 -0.179708
H21   H     H_    0.816590 0.153091 0.139029 0.222143
C94   C     C_R   0.812423 0.053809 0.107024 0.213942
C95   C     C_R   0.792361 0.001764 0.047476 0.141562
C96   C     C_R   0.759092 0.008739 0.974791 0.200922
C97   C     C_R   0.745104 0.066648 0.962634 -0.199309
H22   H     H_    0.719780 0.072553 0.907432 0.276481
C98   C     C_R   0.764534 0.117859 0.021302 -0.074385
C99   C     C_R   0.238740 0.795387 0.229215 -0.158379
C100  C     C_R   0.217936 0.776684 0.156081 0.014470
H23   H     H_    0.163748 0.774670 0.108970 0.225000
C101  C     C_R   0.267064 0.761677 0.142749 -0.020712
C102  C     C_R   0.339125 0.765838 0.203846 -0.094886
C103  C     C_R   0.362258 0.787812 0.277357 0.008322
H24   H     H_    0.419379 0.793881 0.324769 0.242919
C104  C     C_R   0.313967 0.803979 0.291078 0.251298
C105  C     C_R   0.315616 0.820688 0.065244 0.284314
C106  C     C_R   0.312788 0.814500 0.999410 -0.147361
C107  C     C_R   0.244963 0.747399 0.934264 0.105254
C108  C     C_R   0.182004 0.685879 0.936847 -0.080772
H25   H     H_    0.129915 0.633996 0.886949 0.170577
C109  C     C_R   0.186940 0.689398 0.003297 -0.128399
C110  C     C_R   0.253598 0.757082 0.068273 -0.104354
C111  C     C_R   0.211873 0.770325 0.810788 -0.199052
C112  C     C_R   0.215403 0.763336 0.748170 0.187495
C113  C     C_R   0.242867 0.719409 0.736383 0.155368
C114  C     C_R   0.265788 0.680743 0.786457 -0.249202
C115  C     C_R   0.264776 0.689339 0.850607 0.295328
C116  C     C_R   0.241762 0.736923 0.864598 -0.132083
C117  C     C_2   0.764463 0.173828 0.700164 0.535064
H26   H     H_    0.805998 0.178099 0.684165 0.072948
O25   O     O_2   0.714812 0.111558 0.699101 -0.462734
N1    N     N_R   0.712398 0.197223 0.798082 0.237565
O26   O     O_R   0.761907 0.174673 0.835731 -0.286598
O27   O     O_R   0.651330 0.182101 0.805719 -0.376344
N2    N     N_R   0.334386 0.054501 0.043984 0.209256
O28   O     O_R   0.290013 0.077296 0.997040 -0.347706
O29   O     O_R   0.308405 0.983440 0.022815 -0.310817
C118  C     C_2   0.740411 0.313679 0.341201 0.504866
H27   H     H_    0.746263 0.270161 0.323644 0.092770
O30   O     O_2   0.807560 0.377220 0.385470 -0.510335
C119  C     C_2   0.251373 0.152234 0.194118 0.428868
H28   H     H_    0.248833 0.156225 0.242463 0.088966
O31   O     O_2   0.186569 0.131707 0.131139 -0.490457
N3    N     N_R   0.810073 0.806008 0.690478 0.235760
O32   O     O_R   0.809705 0.867003 0.693363 -0.279819
O33   O     O_R   0.837613 0.792412 0.654344 -0.331375
C120  C     C_2   0.252603 0.046107 0.111580 0.575225
H29   H     H_    0.191068 0.036914 0.069207 0.147016
O34   O     O_2   0.254275 0.990285 0.120390 -0.471109
C121  C     C_2   0.596336 0.550190 0.239134 0.377025
H30   H     H_    0.635354 0.601237 0.231162 0.104254
O35   O     O_2   0.615063 0.503924 0.249358 -0.538734
C122  C     C_2   0.616390 0.681266 0.309968 0.516096
H31   H     H_    0.678516 0.689221 0.335610 0.066672
O36   O     O_2   0.614315 0.737491 0.305949 -0.432126
N4    N     N_R   0.484924 0.655986 0.329878 0.263338
O37   O     O_R   0.557650 0.698851 0.397330 -0.275436
O38   O     O_R   0.423626 0.665942 0.308523 -0.341396
C123  C     C_2   0.289983 0.379350 0.169227 0.526965
H32   H     H_    0.257370 0.359750 0.196749 0.073243
O39   O     O_2   0.252398 0.340506 0.104222 -0.464668
C124  C     C_2   0.430626 0.399693 0.160623 0.585792
H33   H     H_    0.458573 0.409970 0.129154 0.095068
O40   O     O_2   0.390782 0.334523 0.160387 -0.542882
N5    N     N_R   0.244909 0.487646 0.379002 0.198377
O41   O     O_R   0.192772 0.421814 0.379247 -0.310276
O42   O     O_R   0.298416 0.548702 0.439283 -0.340773
C125  C     C_2   0.190886 0.625873 0.307155 0.532277
H34   H     H_    0.203133 0.673675 0.341545 0.127981
O43   O     O_2   0.240730 0.640563 0.289995 -0.563574
N6    N     N_R   0.061932 0.599454 0.328195 0.175944
O44   O     O_R   0.052547 0.644791 0.290549 -0.348200
O45   O     O_R   0.083396 0.616115 0.396778 -0.313520
C126  C     C_2   0.923627 0.446683 0.296570 0.663960
H35   H     H_    0.924504 0.494491 0.316190 0.132582
O46   O     O_2   0.868765 0.382122 0.287445 -0.551119
N7    N     N_R   0.033675 0.336940 0.211812 0.196378
O47   O     O_R   0.989849 0.274086 0.221372 -0.367906
O48   O     O_R   0.073405 0.337167 0.182661 -0.425655
C127  C     C_2   0.532636 0.801367 0.960337 0.457154
H36   H     H_    0.593725 0.842092 0.014906 0.131940
O49   O     O_2   0.473995 0.745284 0.957851 -0.484017
C128  C     C_2   0.487012 0.945839 0.779135 0.549088
H37   H     H_    0.435023 0.929141 0.720372 0.097910
O50   O     O_2   0.530475 0.011494 0.822097 -0.515684
C129  C     C_2   0.555498 0.947031 0.696295 0.482463
H38   H     H_    0.527724 0.950169 0.639769 0.110342
O51   O     O_2   0.612429 0.006695 0.750992 -0.436744
N8    N     N_R   0.524649 0.727661 0.564990 0.222951
O52   O     O_R   0.459288 0.688530 0.493980 -0.269184
O53   O     O_R   0.599769 0.784876 0.582778 -0.303529
N9    N     N_R   0.477848 0.543640 0.700502 0.231562
O54   O     O_R   0.407299 0.494555 0.695033 -0.300456
O55   O     O_R   0.530287 0.525059 0.710820 -0.392613
N10   N     N_R   0.665259 0.529854 0.914994 0.204321
O56   O     O_R   0.715395 0.598976 0.963955 -0.333062
O57   O     O_R   0.591640 0.508525 0.852700 -0.345705
N11   N     N_R   0.818048 0.441854 0.103985 0.204894
O58   O     O_R   0.803213 0.382571 0.125733 -0.423289
O59   O     O_R   0.875369 0.510503 0.155207 -0.374310
C130  C     C_2   0.898140 0.249211 0.025589 0.503780
H39   H     H_    0.925863 0.228271 0.069461 0.139119
O60   O     O_2   0.924741 0.264826 0.986437 -0.465072
N12   N     N_R   0.850049 0.050948 0.182471 0.251678
O61   O     O_R   0.837877 0.076070 0.227435 -0.329912
O62   O     O_R   0.904666 0.031949 0.209738 -0.248344
N13   N     N_R   0.807353 0.943300 0.061277 0.268920
O63   O     O_R   0.767473 0.891827 0.083589 -0.329486
O64   O     O_R   0.864266 0.943771 0.055314 -0.240939
N14   N     N_R   0.740227 0.958440 0.913265 0.233819
O65   O     O_R   0.716912 0.888362 0.908891 -0.369228
O66   O     O_R   0.743289 0.981760 0.859332 -0.297725
N15   N     N_R   0.343544 0.830572 0.368051 0.188377
O67   O     O_R   0.344700 0.888170 0.391285 -0.364482
O68   O     O_R   0.383418 0.806745 0.418105 -0.321062
C131  C     C_2   0.179996 0.803303 0.239530 0.535862
H40   H     H_    0.186044 0.804852 0.292173 0.137648
O69   O     O_2   0.122621 0.806732 0.188564 -0.489258
C132  C     C_2   0.393033 0.751232 0.191594 0.556544
H41   H     H_    0.366937 0.719157 0.135445 0.064492
O70   O     O_2   0.468011 0.776598 0.243637 -0.437599
N16   N     N_R   0.380887 0.891786 0.129025 0.198217
O71   O     O_R   0.357201 0.927897 0.150525 -0.306247
O72   O     O_R   0.460507 0.911830 0.173951 -0.339669
N17   N     N_R   0.883145 0.635176 0.881638 0.223756
O73   O     O_R   0.961796 0.672879 0.899326 -0.344537
O74   O     O_R   0.869167 0.657221 0.926593 -0.320912
C133  C     C_2   0.177259 0.813216 0.818866 0.614403
H42   H     H_    0.179419 0.856638 0.792868 0.102074
O75   O     O_2   0.144649 0.799940 0.853390 -0.505341
N18   N     N_R   0.191083 0.801053 0.695830 0.220209
O76   O     O_R   0.246179 0.849615 0.683368 -0.324626
O77   O     O_R   0.111764 0.782356 0.656131 -0.323509
N19   N     N_R   0.243905 0.711793 0.671214 0.225489
O78   O     O_R   0.174609 0.688688 0.603758 -0.245201
O79   O     O_R   0.314921 0.730389 0.679305 -0.421329
C134  C     C_2   0.287877 0.629752 0.769212 0.577106
H43   H     H_    0.266916 0.607625 0.712108 0.111567
O80   O     O_2   0.330584 0.612436 0.818254 -0.474376
N20   N     N_R   0.279805 0.644805 0.898203 0.264431
O81   O     O_R   0.227345 0.569973 0.869508 -0.329422
O82   O     O_R   0.336997 0.678139 0.971374 -0.340262
C135  C     C_2   0.623356 0.367971 0.609167 0.424441
H44   H     H_    0.598218 0.310129 0.611097 0.093838
O83   O     O_2   0.601393 0.376224 0.547894 -0.590643

loop_
_geom_bond_atom_site_label_1
_geom_bond_atom_site_label_2
_geom_bond_distance
_ccdc_geom_bond_type
C27   C32   1.402520 A    
C45   C46   1.392761 A    
C64   C65   1.396607 A    
C130  O60   1.218576 D    
C24   C25   1.389768 A    
C23   C24   1.406924 A    
C70   C71   1.407570 A    
C42   C123  1.489403 S    
C38   H11   1.082050 S    
C58   C80   1.454687 S    
N20   O82   1.301380 A    
C111  C133  1.492615 S    
C7    C8    1.400841 A    
C7    C16   1.488889 S    
C26   C27   1.423460 A    
C40   N4    1.445623 S    
N7    O48   1.300848 A    
C107  C108  1.380911 A    
O19   Zn5   2.028022 S    
C99   C131  1.484132 S    
C67   C72   1.392754 A    
N1    O27   1.301386 A    
C100  C101  1.402077 A    
C84   C85   1.395323 A    
C36   C37   1.387918 A    
C119  H28   1.084978 S    
Zn1   O7    2.022756 S    
C59   C128  1.486333 S    
C14   C15   1.408683 A    
C12   C13   1.418136 A    
C21   H7    1.077143 S    
C123  O39   1.220815 D    
C95   N13   1.432753 S    
C75   C109  1.439012 S    
C127  O49   1.218270 D    
C29   C118  1.490483 S    
C20   C21   1.405879 A    
C54   C55   1.400388 A    
C108  H25   1.085412 S    
O1    C1    1.283812 A    
C47   C48   1.392531 A    
C105  C106  1.404062 A    
C46   C76   1.439282 S    
C135  H44   1.085325 S    
C57   C58   1.411547 A    
C1    C37   1.442318 S    
N6    O45   1.301003 A    
C115  C116  1.416050 A    
C53   C126  1.486287 S    
C48   N5    1.437199 S    
C93   H21   1.083353 S    
N11   O58   1.300228 A    
C130  H39   1.082594 S    
O11   Zn3   2.024007 S    
Zn1   O5    2.040047 S    
N18   O76   1.301154 A    
C4    C49   1.433211 S    
O5    C3    1.281999 A    
N8    O52   1.300389 A    
C87   C92   1.377264 A    
O12   C74   1.281188 A    
C96   C97   1.405502 A    
C25   H8    1.079863 S    
O17   Zn5   2.022315 S    
C102  C132  1.484985 S    
C73   C91   1.442695 S    
H1    C10   1.082503 S    
C93   C98   1.397904 A    
C45   C50   1.383600 A    
C60   C61   1.422680 A    
C13   C22   1.489417 S    
C5    C6    1.408079 A    
C121  O35   1.221309 D    
N15   O68   1.301685 A    
C117  O25   1.220006 D    
C30   C31   1.391941 A    
N9    O54   1.301216 A    
C17   C18   1.393880 A    
C101  C110  1.487611 S    
C48   C49   1.403159 A    
C124  H33   1.084887 S    
C24   C78   1.453348 S    
C15   C16   1.409591 A    
N16   O71   1.300236 A    
C108  C109  1.393327 A    
C121  H30   1.084843 S    
C36   H10   1.085363 S    
C12   C74   1.445754 S    
C65   C66   1.408087 A    
C14   C135  1.493420 S    
C45   H12   1.085367 S    
C99   C100  1.405878 A    
C111  C116  1.418931 A    
C5    C10   1.406708 A    
O1    Zn1   2.018167 S    
N19   O78   1.301170 A    
C52   N6    1.435399 S    
C85   C86   1.401949 A    
C19   C117  1.481900 S    
N9    O55   1.300263 A    
C31   C36   1.388299 A    
C91   C92   1.415015 A    
C72   N9    1.440270 S    
C81   C82   1.405226 A    
O3    Zn1   2.022587 S    
C112  N18   1.435604 S    
C134  O80   1.220108 D    
N7    O47   1.301596 A    
C62   C69   1.406270 A    
Zn6   O22   2.022317 S    
C113  N19   1.437481 S    
C94   C95   1.416670 A    
C44   C121  1.490791 S    
C54   H13   1.083033 S    
N12   O62   1.301197 A    
C51   C52   1.416117 A    
C90   C91   1.426514 A    
C23   C28   1.417591 A    
O9    Zn3   2.011423 S    
N10   O57   1.300333 A    
C123  H32   1.085447 S    
C94   N12   1.439477 S    
C69   H16   1.080983 S    
C34   C35   1.413010 A    
C114  C115  1.417533 A    
N2    O28   1.301184 A    
C18   H6    1.083550 S    
C61   C62   1.415675 A    
C127  H36   1.084709 S    
C122  O36   1.221153 D    
C34   C119  1.489787 S    
C52   C53   1.408928 A    
O20   Zn6   2.030414 S    
N5    O41   1.300575 A    
C68   C69   1.374357 A    
N14   O66   1.301120 A    
C65   C70   1.397536 A    
N6    O44   1.301113 A    
C46   C47   1.413939 A    
O23   C80   1.278443 A    
C132  O70   1.220845 D    
C28   C35   1.426305 A    
C33   C34   1.413118 A    
N13   O63   1.300950 A    
C118  H27   1.082128 S    
C59   C60   1.414220 A    
C81   H17   1.082509 S    
C58   C59   1.416216 A    
C105  C110  1.396692 A    
C39   C40   1.415685 A    
C90   C130  1.494818 S    
C19   C20   1.420842 A    
C103  H24   1.083033 S    
O11   C74   1.289652 A    
C53   C54   1.399461 A    
C99   C104  1.415844 A    
C120  H29   1.083600 S    
O21   C79   1.277661 A    
C57   C62   1.393334 A    
N14   O65   1.300772 A    
C30   H9    1.084903 S    
C85   H19   1.082709 S    
Zn3   O13   2.033484 S    
C9    H4    1.082346 S    
C83   C84   1.402327 A    
C125  H34   1.083516 S    
O8    C4    1.282767 A    
O16   C76   1.289653 A    
Zn2   O8    2.022587 S    
N15   O67   1.301190 A    
C60   C63   1.428013 A    
C41   C42   1.414845 A    
N8    O53   1.301042 A    
C6    H2    1.083028 S    
C51   C56   1.426510 A    
C41   C50   1.490184 S    
C71   C72   1.405765 A    
C114  C134  1.491444 S    
C112  C113  1.409416 A    
C68   H15   1.082517 S    
C55   N7    1.447675 S    
N16   O72   1.300747 A    
N4    O38   1.300355 A    
C101  C102  1.412436 A    
Zn5   O21   2.022382 S    
C63   C64   1.388698 A    
C5    N3    1.439400 S    
C23   N2    1.437367 S    
C97   C98   1.398816 A    
C70   N8    1.437917 S    
Zn2   O6    2.018161 S    
C31   C32   1.413741 A    
C125  O43   1.219041 D    
N17   O74   1.300737 A    
C39   C44   1.416833 A    
C128  H37   1.085287 S    
C128  O50   1.221344 D    
N19   O79   1.300559 A    
C111  C112  1.412249 A    
C129  O51   1.219847 D    
C9    C10   1.395988 A    
C113  C114  1.413297 A    
O15   C76   1.280480 A    
O3    C2    1.275363 A    
C126  O46   1.221068 D    
C25   C26   1.392852 A    
C8    C9    1.395486 A    
C6    C7    1.404115 A    
C131  H40   1.083669 S    
C133  O75   1.220806 D    
C102  C103  1.402955 A    
C11   N17   1.436821 S    
C117  H26   1.085668 S    
C39   C122  1.488874 S    
C87   C88   1.387746 A    
O24   C80   1.290070 A    
C82   C83   1.417262 A    
Zn4   O16   2.024009 S    
C11   C16   1.389687 A    
C93   C94   1.402102 A    
Zn3   O15   2.021858 S    
C37   C38   1.392481 A    
C109  C110  1.413899 A    
C120  O34   1.220493 D    
O9    C73   1.290390 A    
C55   C56   1.420819 A    
C63   C129  1.482039 S    
O13   C75   1.279311 A    
C51   C125  1.495358 S    
C17   H5    1.083308 S    
O2    Zn2   2.040048 S    
C27   C28   1.422145 A    
C81   C86   1.401959 A    
C122  H31   1.084731 S    
C131  O69   1.221362 D    
O6    C3    1.281472 A    
C35   C120  1.485994 S    
O4    Zn2   2.022758 S    
N2    O29   1.301161 A    
C89   C90   1.401442 A    
C86   N10   1.436426 S    
C64   H14   1.083620 S    
O18   C77   1.275845 A    
C132  H41   1.085154 S    
Zn5   O23   2.030415 S    
C79   C88   1.430728 S    
C105  N16   1.439942 S    
C43   C124  1.490696 S    
C77   C106  1.432781 S    
C89   C98   1.491582 S    
O10   Zn4   2.033483 S    
C33   C38   1.402926 A    
C119  O31   1.220586 D    
O14   C75   1.290859 A    
C3    C71   1.440314 S    
C106  C107  1.410348 A    
N20   O81   1.301208 A    
O22   C79   1.281811 A    
C103  C104  1.404178 A    
C115  N20   1.439424 S    
C11   C12   1.409624 A    
C134  H43   1.084284 S    
C21   C22   1.398821 A    
N1    O26   1.300453 A    
C84   H18   1.081849 S    
C43   C44   1.419476 A    
C57   C127  1.487710 S    
C135  O83   1.219657 D    
C82   N11   1.437768 S    
C67   C68   1.395830 A    
O4    C2    1.281132 A    
Zn4   O14   2.011424 S    
C126  H35   1.083848 S    
N10   O56   1.301539 A    
O10   C73   1.279851 A    
C18   C19   1.403690 A    
O19   C78   1.285121 A    
O2    C1    1.283351 A    
O12   Zn4   2.021993 S    
C95   C96   1.418224 A    
C97   H22   1.081980 S    
C40   C41   1.416335 A    
C83   C92   1.486687 S    
C26   C29   1.421333 A    
C104  N15   1.438967 S    
N3    O33   1.301549 A    
C29   C30   1.395158 A    
C47   C56   1.487132 S    
C88   C89   1.406658 A    
N4    O37   1.301852 A    
C96   N14   1.441170 S    
C42   C43   1.420419 A    
C107  C116  1.490342 S    
Zn6   O24   2.028027 S    
C118  O30   1.221649 D    
C2    C15   1.429356 S    
C49   C50   1.408978 A    
C8    H3    1.080583 S    
C20   N1    1.436936 S    
N5    O42   1.299790 A    
C32   C33   1.415289 A    
C61   C66   1.405940 A    
C13   C14   1.394828 A    
C17   C22   1.399523 A    
C129  H38   1.085652 S    
C87   H20   1.085909 S    
N3    O32   1.301563 A    
C100  H23   1.083992 S    
N11   O59   1.300966 A    
C66   C67   1.414752 A    
O20   C78   1.285527 A    
C124  O40   1.219398 D    
N13   O64   1.301103 A    
O7    C4    1.276922 A    
O18   Zn6   2.022379 S    
C133  H42   1.084376 S    
N12   O61   1.301534 A    
N17   O73   1.301121 A    
O17   C77   1.284015 A    
N18   O77   1.301137 A    
