data_mof_unit_1745.cif
_audit_creation_date              2012-12-10T18:21:25-0500
_audit_creation_method            fapswitch 2.2
_symmetry_space_group_name_H-M    P1
_symmetry_Int_Tables_number       1
_space_group_crystal_system       triclinic
_cell_length_a                    14.986278
_cell_length_b                    14.003356
_cell_length_c                    10.684403
_cell_angle_alpha                 90.517764
_cell_angle_beta                  89.524954
_cell_angle_gamma                 90.588574
_cell_volume                      2241.9242235

loop_
_atom_site_label
_atom_site_type_symbol
_atom_type_description
_atom_site_fract_x
_atom_site_fract_y
_atom_site_fract_z
_atom_type_partial_charge
Br1   Br    Br    0.084785 0.254855 0.743279 -0.530304
C1    C     C_R   0.326622 0.499413 0.502998 0.890724
C2    C     C_R   0.039018 0.359978 0.648477 0.297639
C3    C     C_R   0.090507 0.429221 0.581583 0.048371
C4    C     C_R   0.503774 0.499846 0.257662 0.847129
C5    C     C_R   0.045948 0.498576 0.508400 -0.061954
C6    C     C_R   0.094092 0.566885 0.436749 0.121988
C7    C     C_R   0.049221 0.636136 0.366071 0.110029
C8    C     C_R   0.956176 0.637402 0.368045 -0.252767
C9    C     C_R   0.184193 0.432189 0.584193 0.068426
C10   C     C_R   0.230656 0.497902 0.508001 -0.139472
C11   C     C_R   0.186360 0.564489 0.436670 -0.262970
C12   C     C_3   0.589335 0.446310 0.922954 -0.346212
C13   C     C_R   0.554211 0.798099 0.418166 -0.060350
C14   C     C_R   0.554852 0.201703 0.419303 -0.057334
C15   C     C_R   0.446131 0.798013 0.582292 -0.059548
C16   C     C_R   0.446233 0.201835 0.582348 -0.056322
C17   C     C_R   0.444837 0.898686 0.584397 0.012922
C18   C     C_R   0.444886 0.101136 0.584442 0.011267
C19   C     C_R   0.673169 0.500455 0.499830 0.868268
C20   C     C_R   0.500196 0.949296 0.500399 0.086020
C21   C     C_R   0.500231 0.050514 0.500494 0.084893
C22   C     C_R   0.555631 0.898751 0.416417 0.017644
C23   C     C_R   0.815753 0.570764 0.436636 -0.248860
C24   C     C_R   0.555918 0.101095 0.416989 0.017084
C25   C     C_R   0.389869 0.949724 0.668064 -0.198714
C26   C     C_R   0.389887 0.050096 0.668083 -0.187464
C27   C     C_R   0.611178 0.050152 0.333648 -0.198247
C28   C     C_R   0.610945 0.949822 0.333244 -0.205604
C29   C     C_R   0.502818 0.500670 0.742413 0.853555
C30   C     C_3   0.505184 0.605077 0.073725 -0.423149
C31   C     C_3   0.420332 0.451764 0.074070 -0.471748
C32   C     C_3   0.513797 0.607396 0.930931 -0.097379
C33   C     C_3   0.418489 0.454073 0.930484 -0.099417
C34   C     C_R   0.768325 0.501228 0.502466 -0.062378
C35   C     C_3   0.594295 0.447874 0.068133 0.242689
C36   C     C_3   0.507316 0.499929 0.121363 0.056012
C37   C     C_3   0.506461 0.501929 0.878794 0.078015
C38   C     C_R   0.811463 0.431714 0.570915 -0.229755
C39   C     C_R   0.903661 0.431234 0.574440 0.069596
C40   C     C_R   0.952813 0.499964 0.506746 0.067864
C41   C     C_R   0.908238 0.569938 0.437070 0.116427
C42   C     C_R   0.946618 0.362321 0.643841 -0.257266
H1    H     H_    0.558368 0.649356 0.118513 0.182436
H2    H     H_    0.346889 0.087775 0.733424 0.160271
H3    H     H_    0.654451 0.087885 0.268676 0.148814
H4    H     H_    0.654054 0.912203 0.267999 0.140383
H5    H     H_    0.441096 0.639218 0.101769 0.171430
H6    H     H_    0.361289 0.490929 0.111374 0.162426
H7    H     H_    0.457786 0.650539 0.894050 0.146505
H8    H     H_    0.361565 0.499484 0.901993 0.138123
H9    H     H_    0.651036 0.477535 0.880555 0.164480
H10   H     H_    0.586955 0.371714 0.886424 0.173402
H11   H     H_    0.780576 0.623876 0.383157 0.142141
H12   H     H_    0.412060 0.378036 0.110054 0.186898
H13   H     H_    0.773022 0.378822 0.622606 0.154468
H14   H     H_    0.907860 0.309180 0.694440 0.185042
H15   H     H_    0.276011 0.417149 0.721214 0.184333
H16   H     H_    0.266785 0.321853 0.620251 0.227217
H17   H     H_    0.124796 0.668950 0.215285 0.177880
H18   H     H_    0.055580 0.756851 0.258073 0.190943
H19   H     H_    0.607632 0.659182 0.800772 0.222637
H20   H     H_    0.596798 0.725464 0.929269 0.182892
H21   H     H_    0.448018 0.309461 0.915797 0.197252
H22   H     H_    0.338977 0.334629 0.907240 0.204819
H23   H     H_    0.224952 0.614501 0.380736 0.179005
H24   H     H_    0.677133 0.507922 0.203973 0.152908
H25   H     H_    0.682104 0.565916 0.066689 0.206676
H26   H     H_    0.541578 0.310882 0.103931 0.176589
H27   H     H_    0.624556 0.346273 0.201820 0.200303
H28   H     H_    0.921085 0.690381 0.314415 0.142763
H29   H     H_    0.596267 0.757806 0.354421 0.123764
H30   H     H_    0.598156 0.241619 0.357417 0.124586
H31   H     H_    0.404189 0.757636 0.646124 0.131682
H32   H     H_    0.404813 0.242012 0.646782 0.141766
H33   H     H_    0.346871 0.912045 0.733431 0.146590
N1    N     N_R   0.500070 0.750030 0.500050 -0.103901
N2    N     N_R   0.500070 0.249970 0.500050 -0.104840
N3    N     N_3   0.231875 0.374076 0.670153 -0.406201
N4    N     N_3   0.098283 0.705029 0.292977 -0.459194
N5    N     N_3   0.598963 0.654658 0.897335 -0.472822
N6    N     N_3   0.402603 0.357656 0.879066 -0.454575
N7    N     N_3   0.676615 0.498507 0.106796 -0.445749
N8    N     N_3   0.601834 0.348355 0.109867 -0.450324
O1    O     O_R   0.367860 0.580280 0.500020 -0.614866
O2    O     O_R   0.367860 0.419720 0.500020 -0.621660
O3    O     O_R   0.500000 0.580270 0.314790 -0.630350
O4    O     O_R   0.500000 0.419730 0.314790 -0.631986
O5    O     O_R   0.632160 0.580270 0.499960 -0.626627
O6    O     O_R   0.632160 0.419730 0.499960 -0.627293
O7    O     O_R   0.500030 0.580270 0.685200 -0.649384
O8    O     O_R   0.500030 0.419730 0.685200 -0.603348
Zn1   Zn    Zn3+2 0.500020 0.607200 0.499990 0.931173
Zn2   Zn    Zn3+2 0.500020 0.392800 0.499990 0.941177

loop_
_geom_bond_atom_site_label_1
_geom_bond_atom_site_label_2
_ccdc_geom_bond_type
C35   N7    S    
H24   N7    S    
C4    C36   S    
C17   C20   A    
C23   C41   A    
C40   C41   A    
C17   C25   A    
C6    C7    A    
C24   C27   A    
C2    C42   A    
C33   H8    S    
C28   H4    S    
C15   H31   S    
C22   C28   A    
C35   C36   S    
C35   N8    S    
C14   C24   A    
C14   N2    A    
H18   N4    S    
C23   H11   S    
C29   C37   S    
C1    O1    A    
C15   N1    A    
C13   N1    A    
O2    Zn2   S    
C4    O4    A    
O1    Zn1   S    
C39   C42   A    
C7    C8    A    
C5    C40   A    
C25   H33   S    
C30   C32   S    
H27   N8    S    
C31   H12   S    
C26   H2    S    
C20   C21   A    
C19   C34   S    
C1    C10   S    
O6    Zn2   S    
C12   H10   S    
C6    C11   A    
O4    Zn2   S    
C23   C34   A    
C30   H1    S    
C18   C21   A    
C12   C35   S    
C29   O8    A    
H16   N3    S    
C38   C39   A    
C32   H7    S    
C11   H23   S    
C21   C24   A    
C30   C36   S    
Br1   C2    S    
C31   C33   S    
C13   C22   A    
C34   C38   A    
O7    Zn1   S    
C12   H9    S    
C38   H13   S    
C9    N3    S    
C27   H3    S    
O8    Zn2   S    
C8    C41   A    
C31   C36   S    
H21   N6    S    
C12   C37   S    
H15   N3    S    
C3    C5    A    
C39   C40   A    
C14   H30   S    
H19   N5    S    
H20   N5    S    
C30   H5    S    
C20   C22   A    
C25   C26   A    
C3    C9    A    
C2    C3    A    
C27   C28   A    
C18   C26   A    
C16   H32   S    
H17   N4    S    
C33   C37   S    
H25   N7    S    
C13   H29   S    
C8    H28   S    
C29   O7    A    
C10   C11   A    
C5    C6    A    
C19   O5    A    
C32   C37   S    
H26   N8    S    
H22   N6    S    
C19   O6    A    
N2    Zn2   S    
O3    Zn1   S    
N1    Zn1   S    
C16   N2    A    
C16   C18   A    
C1    O2    A    
O5    Zn1   S    
C31   H6    S    
C9    C10   A    
C42   H14   S    
C4    O3    A    
C15   C17   A    
C7    N4    S    
C33   N6    S    
C32   N5    S    
