data_mof_unit_4576.cif
_audit_creation_date              2012-12-11T16:45:23-0500
_audit_creation_method            fapswitch 2.2
_symmetry_space_group_name_H-M    P1
_symmetry_Int_Tables_number       1
_space_group_crystal_system       triclinic
_cell_length_a                    19.867394
_cell_length_b                    17.237857
_cell_length_c                    15.468083
_cell_angle_alpha                 89.999712
_cell_angle_beta                  53.361934
_cell_angle_gamma                 90.157381
_cell_volume                      4250.70049152

loop_
_atom_site_label
_atom_site_type_symbol
_atom_type_description
_atom_site_fract_x
_atom_site_fract_y
_atom_site_fract_z
_atom_type_partial_charge
C1    C     C_R   0.847941 0.679341 0.030158 -0.112628
C2    C     C_R   0.153359 0.312042 0.064680 0.037859
C3    C     C_1   0.632305 0.918124 0.190787 -0.022186
C4    C     C_R   0.290629 0.846404 0.021708 0.034436
C5    C     C_R   0.650665 0.810239 0.068404 0.037928
C6    C     C_R   0.823495 0.650446 0.320232 0.074937
C7    C     C_R   0.184135 0.644766 0.680515 0.067521
C8    C     C_R   0.321116 0.148598 0.319854 0.075145
C9    C     C_R   0.677697 0.149592 0.679839 0.077063
C10   C     C_R   0.685464 0.683981 0.476913 0.002290
C11   C     C_R   0.320916 0.673000 0.512701 -0.021150
C12   C     C_R   0.185091 0.180750 0.482042 -0.002477
C13   C     C_R   0.133186 0.690614 0.997377 -0.116128
C14   C     C_R   0.815135 0.181926 0.520743 0.000049
C15   C     C_R   0.771766 0.695360 0.413031 0.022944
C16   C     C_R   0.236357 0.690890 0.587544 0.024886
C17   C     C_R   0.270902 0.194511 0.412055 0.023797
C18   C     C_R   0.729156 0.194677 0.587104 0.023035
C19   C     C_R   0.307532 0.257691 0.427487 0.028754
C20   C     C_R   0.693553 0.256205 0.567787 0.027812
C21   C     C_R   0.807419 0.756003 0.434014 0.025620
C22   C     C_R   0.202506 0.757835 0.574991 0.030478
C23   C     C_R   0.258326 0.300052 0.521505 -0.228177
C24   C     C_R   0.353494 0.183246 0.022255 -0.114024
C25   C     C_R   0.744354 0.297757 0.473105 -0.228137
C26   C     C_R   0.756036 0.797604 0.528403 -0.227967
C27   C     C_R   0.252172 0.800443 0.480878 -0.229982
C28   C     C_R   0.174626 0.278736 0.597285 0.038112
C29   C     C_R   0.828627 0.277330 0.400742 0.038488
C30   C     C_R   0.671050 0.778287 0.598654 0.039388
C31   C     C_R   0.333888 0.776087 0.401189 0.037755
C32   C     C_R   0.634516 0.727053 0.568680 0.062030
C33   C     C_R   0.370216 0.716817 0.420719 0.062991
C34   C     C_R   0.136296 0.224411 0.573640 0.062042
C35   C     C_R   0.652590 0.179243 0.969185 -0.113010
C36   C     C_R   0.865520 0.224783 0.428393 0.061188
C37   C     C_3   0.574708 0.661202 0.629911 -0.234359
C38   C     C_3   0.421774 0.648998 0.352830 -0.232417
C39   C     C_3   0.079556 0.157847 0.639215 -0.235596
C40   C     C_3   0.922946 0.158113 0.366091 -0.234780
C41   C     C_R   0.889304 0.304849 0.211868 -0.160516
C42   C     C_R   0.113159 0.305808 0.787056 -0.161843
C43   C     C_R   0.393427 0.803873 0.211451 -0.164268
C44   C     C_R   0.610349 0.805027 0.787965 -0.162825
C45   C     C_3   0.632085 0.612299 0.527323 0.030909
C46   C     C_R   0.877655 0.321035 0.306498 0.047267
C47   C     C_3   0.366866 0.599301 0.455644 0.036432
C48   C     C_3   0.134395 0.108289 0.536776 0.031577
C49   C     C_3   0.866549 0.109604 0.469608 0.028751
C50   C     C_2   0.771956 0.191909 0.980233 -0.285747
C51   C     C_2   0.242715 0.203119 0.999090 -0.287142
C52   C     C_2   0.217492 0.726250 0.061677 -0.280525
C53   C     C_2   0.729922 0.693022 0.016866 -0.286082
C54   C     C_2   0.217207 0.803746 0.050615 0.043055
C55   C     C_2   0.687878 0.748921 0.091643 0.049816
C56   C     C_2   0.813558 0.248464 0.906082 0.048571
C57   C     C_R   0.127164 0.322908 0.691138 0.050038
C58   C     C_2   0.195414 0.252787 0.081162 0.047255
C59   C     C_R   0.868033 0.386602 0.894808 0.062274
C60   C     C_R   0.134866 0.387941 0.101696 0.066622
C61   C     C_R   0.332973 0.905722 0.945714 0.072233
C62   C     C_R   0.632580 0.886711 0.104403 0.062886
C63   C     C_R   0.866949 0.586925 0.315195 -0.139112
C64   C     C_R   0.136857 0.584251 0.685486 -0.137084
C65   C     C_R   0.365678 0.086034 0.314936 -0.141930
C66   C     C_R   0.633582 0.086379 0.684967 -0.141638
C67   C     C_R   0.876734 0.299377 0.993357 -0.159310
C68   C     C_R   0.381072 0.820644 0.306451 0.049807
C69   C     C_R   0.124607 0.300189 0.004567 -0.163586
C70   C     C_R   0.340187 0.822855 0.050937 -0.159444
C71   C     C_R   0.623787 0.799628 0.005732 -0.158932
C72   C     C_R   0.860708 0.679643 0.218758 -0.111579
C73   C     C_R   0.145672 0.674295 0.782334 -0.116041
C74   C     C_R   0.358689 0.177914 0.218319 -0.110702
C75   C     C_R   0.640236 0.179124 0.781107 -0.114216
C76   C     C_R   0.901527 0.395772 0.305128 0.045886
C77   C     C_R   0.100915 0.396641 0.693584 0.042730
C78   C     C_R   0.402456 0.896207 0.305105 0.042461
C79   C     C_R   0.621500 0.821299 0.693491 0.044601
C80   C     C_R   0.597729 0.896016 0.695132 0.050143
C81   C     C_R   0.834813 0.584510 0.941788 -0.158106
C82   C     C_R   0.142798 0.599704 0.092776 -0.156697
C83   C     C_R   0.342391 0.091611 0.928926 -0.159443
C84   C     C_R   0.665759 0.084157 0.057066 -0.158343
C85   C     C_R   0.797553 0.650487 0.003986 0.154617
C86   C     C_R   0.165294 0.674522 0.052751 0.156350
C87   C     C_R   0.306992 0.158224 0.989058 0.159879
C88   C     C_R   0.703353 0.150018 0.994398 0.155614
C89   C     C_1   0.672581 0.548094 0.543544 0.039010
C90   C     C_R   0.850374 0.309892 0.930068 0.038161
C91   C     C_1   0.317405 0.541023 0.445482 0.035606
C92   C     C_1   0.178926 0.046511 0.549977 0.037599
C93   C     C_1   0.823599 0.045975 0.456197 0.042983
C94   C     C_1   0.146946 0.846617 0.069416 0.053763
C95   C     C_1   0.682800 0.752089 0.189145 0.049473
C96   C     C_1   0.817610 0.252636 0.809352 0.050108
C97   C     C_1   0.187768 0.251024 0.180538 0.057033
C98   C     C_1   0.869325 0.418224 0.807744 -0.021115
C99   C     C_1   0.137350 0.419783 0.185695 -0.018683
C100  C     C_1   0.321447 0.923442 0.864413 -0.011210
H1    H     H_    0.845474 0.736080 0.061130 0.100020
H2    H     H_    0.414814 0.636439 0.287899 0.144236
H3    H     H_    0.082199 0.142144 0.706983 0.146549
H4    H     H_    0.922229 0.140630 0.297322 0.147916
H5    H     H_    0.776173 0.185283 0.046586 0.133175
H6    H     H_    0.242661 0.202237 0.928921 0.134770
H7    H     H_    0.267317 0.697305 0.058565 0.132620
H8    H     H_    0.726486 0.687238 0.949762 0.133391
H9    H     H_    0.881138 0.249734 0.185739 0.104191
H10   H     H_    0.121388 0.250696 0.812998 0.103376
H11   H     H_    0.389907 0.747211 0.184407 0.099137
H12   H     H_    0.133568 0.745022 0.962918 0.102861
H13   H     H_    0.618763 0.749941 0.813786 0.104750
H14   H     H_    0.858284 0.556095 0.381724 0.124623
H15   H     H_    0.145445 0.554267 0.618680 0.125800
H16   H     H_    0.357291 0.055847 0.381611 0.125679
H17   H     H_    0.641703 0.055541 0.618787 0.125845
H18   H     H_    0.885168 0.245019 0.020611 0.102274
H19   H     H_    0.117535 0.245566 0.976283 0.105714
H20   H     H_    0.328354 0.776614 0.105236 0.109962
H21   H     H_    0.615596 0.745264 0.978131 0.102341
H22   H     H_    0.848954 0.735122 0.198047 0.104905
H23   H     H_    0.352982 0.239899 0.052258 0.097389
H24   H     H_    0.162035 0.726999 0.803442 0.101189
H25   H     H_    0.346038 0.232877 0.197550 0.104571
H26   H     H_    0.652296 0.234718 0.801338 0.103825
H27   H     H_    0.814952 0.552567 0.900747 0.119921
H28   H     H_    0.151740 0.573080 0.148258 0.120367
H29   H     H_    0.329147 0.066541 0.877031 0.120021
H30   H     H_    0.685933 0.052006 0.097482 0.120260
H31   H     H_    0.494510 0.705577 0.597054 0.117523
H32   H     H_    0.459515 0.624742 0.674881 0.126558
H33   H     H_    0.514987 0.681901 0.368222 0.120911
H34   H     H_    0.655283 0.236097 0.938319 0.098585
H35   H     H_    0.536965 0.602103 0.291600 0.132135
H36   H     H_    0.992742 0.197744 0.615642 0.121867
H37   H     H_    0.963182 0.117348 0.693750 0.132717
H38   H     H_    0.007283 0.200724 0.392884 0.122350
H39   H     H_    0.038406 0.119400 0.316599 0.133873
H40   H     H_    0.639711 0.555036 0.405309 0.112432
H41   H     H_    0.581503 0.634690 0.445296 0.097234
H42   H     H_    0.366985 0.533953 0.566569 0.108014
H43   H     H_    0.431758 0.609644 0.521591 0.095221
H44   H     H_    0.136160 0.047289 0.421379 0.112725
H45   H     H_    0.285910 0.347169 0.537317 0.138903
H46   H     H_    0.075628 0.125526 0.463730 0.097580
H47   H     H_    0.861611 0.051864 0.589461 0.112418
H48   H     H_    0.921627 0.130834 0.546634 0.097764
H49   H     H_    0.953370 0.382589 0.383445 0.116207
H50   H     H_    0.964826 0.470939 0.333031 0.104580
H51   H     H_    0.050216 0.382442 0.614034 0.117311
H52   H     H_    0.039174 0.471293 0.662939 0.106730
H53   H     H_    0.453005 0.885484 0.385460 0.115046
H54   H     H_    0.465114 0.972928 0.332153 0.107033
H55   H     H_    0.544947 0.881362 0.618001 0.111737
H56   H     H_    0.717745 0.343627 0.454183 0.140748
H57   H     H_    0.530256 0.968788 0.671830 0.100534
H58   H     H_    0.400117 0.333115 0.326090 0.113206
H59   H     H_    0.422997 0.272025 0.390646 0.107406
H60   H     H_    0.599614 0.331156 0.664979 0.113887
H61   H     H_    0.579712 0.267983 0.599156 0.106904
H62   H     H_    0.903353 0.830162 0.338210 0.120970
H63   H     H_    0.920208 0.766240 0.406246 0.109280
H64   H     H_    0.115888 0.836048 0.679227 0.114631
H65   H     H_    0.086477 0.779850 0.617411 0.109495
H66   H     H_    0.782631 0.842617 0.548779 0.140460
H67   H     H_    0.225898 0.850182 0.467816 0.143173
H68   H     H_    0.572544 0.643106 0.700661 0.145958
N1    N     N_R   0.908660 0.628630 0.995840 -0.049014
N2    N     N_R   0.096530 0.421430 0.063580 -0.063046
N3    N     N_R   0.403470 0.921430 0.936420 -0.064261
N4    N     N_R   0.596530 0.921430 0.063580 -0.062199
N5    N     N_R   0.927500 0.575670 0.211370 -0.044612
N6    N     N_R   0.072500 0.575670 0.788630 -0.045581
N7    N     N_R   0.427500 0.075670 0.211370 -0.045119
N8    N     N_R   0.572500 0.075670 0.788630 -0.045106
N9    N     N_R   0.908660 0.365680 0.995820 -0.046396
N10   N     N_R   0.091340 0.365680 0.004180 -0.046505
N11   N     N_R   0.408660 0.865680 0.995820 -0.047490
N12   N     N_R   0.091340 0.628630 0.004160 -0.048931
N13   N     N_R   0.591340 0.865680 0.004180 -0.046023
N14   N     N_R   0.922310 0.631420 0.151980 -0.043344
N15   N     N_R   0.077690 0.631420 0.848020 -0.043407
N16   N     N_R   0.422310 0.131420 0.151980 -0.044739
N17   N     N_R   0.577690 0.131420 0.848020 -0.044270
N18   N     N_R   0.927500 0.426330 0.211360 -0.058531
N19   N     N_R   0.072500 0.426330 0.788640 -0.058406
N20   N     N_R   0.427500 0.926330 0.211360 -0.056469
N21   N     N_R   0.572500 0.926330 0.788640 -0.058403
N22   N     N_R   0.903470 0.570760 0.936440 -0.045155
N23   N     N_R   0.408660 0.128630 0.995840 -0.048217
N24   N     N_R   0.096530 0.570760 0.063560 -0.045540
N25   N     N_R   0.403470 0.070760 0.936440 -0.046354
N26   N     N_R   0.596530 0.070760 0.063560 -0.045102
N27   N     N_3   0.490903 0.677498 0.659659 -0.203498
N28   N     N_3   0.509872 0.657221 0.310639 -0.199483
N29   N     N_3   0.993466 0.171031 0.675784 -0.199151
N30   N     N_3   0.008190 0.172705 0.332223 -0.198974
N31   N     N_1   0.703977 0.497674 0.556648 -0.099532
N32   N     N_1   0.279382 0.495082 0.436483 -0.096061
N33   N     N_1   0.213301 0.998006 0.561140 -0.102275
N34   N     N_R   0.591340 0.128630 0.004160 -0.048835
N35   N     N_1   0.790430 0.995937 0.445107 -0.096992
N36   N     N_3   0.594698 0.586667 0.474030 -0.214142
N37   N     N_3   0.410571 0.565587 0.496734 -0.212517
N38   N     N_3   0.092571 0.079184 0.490625 -0.211764
N39   N     N_3   0.906110 0.083204 0.519791 -0.212017
N40   N     N_1   0.090861 0.881106 0.084724 -0.101028
N41   N     N_1   0.678464 0.754586 0.267116 -0.107644
N42   N     N_1   0.821160 0.255910 0.731972 -0.106793
N43   N     N_1   0.181419 0.249733 0.259939 -0.107789
N44   N     N_1   0.870275 0.443508 0.737701 -0.093722
N45   N     N_R   0.922310 0.368460 0.151950 -0.044245
N46   N     N_1   0.139358 0.444784 0.253575 -0.095406
N47   N     N_1   0.312181 0.936883 0.798830 -0.095847
N48   N     N_1   0.632229 0.943224 0.260251 -0.094076
N49   N     N_3   0.921537 0.425795 0.373717 -0.213633
N50   N     N_3   0.082033 0.425960 0.623607 -0.212533
N51   N     N_3   0.421749 0.927969 0.373629 -0.215509
N52   N     N_3   0.575418 0.925611 0.628753 -0.214038
N53   N     N_3   0.394954 0.275677 0.351176 -0.209174
N54   N     N_3   0.605779 0.273331 0.640928 -0.209242
N55   N     N_3   0.895626 0.772275 0.362793 -0.205722
N56   N     N_R   0.077690 0.368460 0.848050 -0.043966
N57   N     N_3   0.116705 0.779475 0.654231 -0.208408
N58   N     N_R   0.422310 0.868460 0.151950 -0.043334
N59   N     N_R   0.577690 0.868460 0.848050 -0.044438
N60   N     N_R   0.903470 0.421430 0.936420 -0.062225
Ni1   Ni    Ni4+2 0.000000 0.630300 0.000000 0.211034
Ni2   Ni    Ni4+2 0.500000 0.130300 0.000000 0.207409
Ni3   Ni    Ni4+2 1.000000 0.369700 0.000000 0.202212
Ni4   Ni    Ni4+2 0.500000 0.869700 0.000000 0.204070
Ni5   Ni    Ni4+2 0.988090 0.497570 0.863760 0.212136
Ni6   Ni    Ni4+2 0.011910 0.497570 0.136240 0.210877
Ni7   Ni    Ni4+2 0.488090 0.997570 0.863760 0.208898
Ni8   Ni    Ni4+2 0.511910 0.997570 0.136240 0.212897

loop_
_geom_bond_atom_site_label_1
_geom_bond_atom_site_label_2
_ccdc_geom_bond_type
C83   C87   A    
C21   C26   A    
C52   C86   S    
C100  N47   T    
C80   N21   A    
C71   N13   A    
C11   C47   S    
C19   N53   S    
H41   N36   S    
H46   N38   S    
C60   C99   S    
C66   N8    A    
C4    C70   A    
H39   N30   S    
N8    N17   A    
C7    C73   A    
C22   N57   S    
N21   N59   A    
C28   C57   S    
C6    C72   A    
N17   Ni2   S    
N2    Ni6   S    
C29   C36   A    
N2    N10   A    
C33   C38   S    
C37   N27   S    
C83   H29   S    
C13   H12   S    
N20   N58   A    
C10   C15   A    
C51   H6    S    
C14   C36   A    
C78   N51   S    
C2    C60   A    
C77   N50   S    
C3    C62   S    
C14   C49   S    
C74   N16   A    
C20   C25   A    
N13   Ni4   S    
C40   C49   S    
N26   N34   A    
N18   N45   A    
C41   N45   A    
C42   C57   A    
C25   C29   A    
C11   C16   A    
H42   N37   S    
C84   H30   S    
C14   C18   A    
C9    C66   A    
H48   N39   S    
C6    C15   S    
H57   N52   S    
C63   H14   S    
N4    N13   A    
C49   N39   S    
C52   H7    S    
C84   N26   A    
C43   C68   A    
C66   H17   S    
H52   N50   S    
C13   C86   A    
C50   H5    S    
C48   C92   S    
C41   C46   A    
C31   C33   A    
H64   N57   S    
C61   N3    A    
C64   N6    A    
C2    C69   A    
C45   C89   S    
N15   Ni1   S    
N20   Ni8   S    
C43   N58   A    
C12   C48   S    
N34   Ni2   S    
C72   H22   S    
C50   C88   S    
C56   C90   S    
N59   Ni4   S    
C39   N29   S    
C93   N35   T    
C28   C34   A    
C8    C65   A    
C64   H15   S    
H33   N28   S    
C65   N7    A    
C25   H56   S    
C68   C78   A    
N3    N11   A    
C75   N17   A    
C58   C97   S    
C43   H11   S    
N1    N22   A    
C42   N56   A    
C35   H34   S    
C46   C76   A    
C44   N59   A    
C52   C54   D    
C70   N11   A    
C63   N5    A    
C37   H68   S    
H44   N38   S    
C53   C55   D    
C1    C85   A    
C31   C68   S    
C89   N31   T    
N12   Ni1   S    
C96   N42   T    
C47   N37   S    
C27   C31   A    
C34   C39   S    
C95   N41   T    
C57   C77   A    
C36   C40   S    
C94   N40   T    
C55   C95   S    
C38   N28   S    
N12   N24   A    
N56   Ni3   S    
C70   H20   S    
C51   C58   D    
N3    Ni7   S    
C41   H9    S    
C3    N48   T    
C82   C86   A    
C98   N44   T    
C4    C61   A    
C69   H19   S    
C67   C90   A    
C50   C56   D    
C82   N24   A    
C59   C90   A    
C6    C63   A    
C83   N25   A    
C19   C23   A    
N23   N25   A    
N9    Ni3   S    
C69   N10   A    
C40   H4    S    
C23   H45   S    
C35   C88   A    
C9    C18   S    
N14   Ni1   S    
C11   C33   A    
C76   N49   S    
C73   H24   S    
H61   N54   S    
C10   C45   S    
C8    C74   A    
H36   N29   S    
H51   N50   S    
H55   N52   S    
N22   Ni5   S    
H49   N49   S    
C32   C37   S    
C5    C55   S    
H47   N39   S    
C59   N60   A    
C82   H28   S    
N60   Ni5   S    
N19   Ni5   S    
C45   N36   S    
C30   C79   S    
H38   N30   S    
C7    C16   S    
H37   N29   S    
N5    N14   A    
C26   C30   A    
H58   N53   S    
C22   C27   A    
C51   C87   S    
C67   N9    A    
C77   N19   A    
C65   H16   S    
C61   C100  S    
C78   N20   A    
C23   C28   A    
C91   N32   T    
C12   C34   A    
N58   Ni4   S    
N11   Ni4   S    
N6    Ni5   S    
C1    H1    S    
C59   C98   S    
C76   N18   A    
N5    Ni6   S    
H60   N54   S    
N4    Ni8   S    
C56   C96   S    
H32   N27   S    
C26   H66   S    
C16   C22   A    
C7    C64   A    
C21   N55   S    
C4    C54   S    
C47   C91   S    
C71   H21   S    
C44   C79   A    
H31   N27   S    
C84   C88   A    
N26   Ni8   S    
N45   Ni3   S    
N6    N15   A    
C80   N52   S    
C2    C58   S    
C35   N34   A    
N24   Ni6   S    
C99   N46   T    
H63   N55   S    
C67   H18   S    
C13   N12   A    
C62   N4    A    
C8    C17   S    
C38   C47   S    
C29   C46   S    
C97   N43   T    
C75   H26   S    
C60   N2    A    
H40   N36   S    
C42   H10   S    
N16   Ni2   S    
N10   Ni3   S    
C38   H2    S    
H59   N53   S    
N9    N60   A    
C30   C32   A    
C53   H8    S    
C44   H13   S    
H43   N37   S    
C40   N30   S    
N23   Ni2   S    
C73   N15   A    
H35   N28   S    
C1    N1    A    
C17   C19   A    
H50   N49   S    
N1    Ni1   S    
C5    C62   A    
C24   N23   A    
C18   C20   A    
C24   H23   S    
N21   Ni7   S    
C24   C87   A    
C81   C85   A    
C81   N22   A    
C54   C94   S    
C72   N14   A    
C79   C80   A    
N8    Ni7   S    
C10   C32   A    
C12   C17   A    
C15   C21   A    
H62   N55   S    
C5    C71   A    
N7    Ni8   S    
N19   N56   A    
C74   H25   S    
C48   N38   S    
C39   H3    S    
C20   N54   S    
N7    N16   A    
H53   N51   S    
C53   C85   S    
H65   N57   S    
C9    C75   A    
C49   C93   S    
H54   N51   S    
C37   C45   S    
N25   Ni7   S    
C81   H27   S    
C92   N33   T    
C27   H67   S    
C39   C48   S    
N18   Ni6   S    
