data_mof_unit_2704.cif
_audit_creation_date              2012-12-10T20:49:27-0500
_audit_creation_method            fapswitch 2.2
_symmetry_space_group_name_H-M    P1
_symmetry_Int_Tables_number       1
_space_group_crystal_system       triclinic
_cell_length_a                    15.766323
_cell_length_b                    8.96193
_cell_length_c                    8.113049
_cell_angle_alpha                 89.97178
_cell_angle_beta                  90.145538
_cell_angle_gamma                 89.637735
_cell_volume                      1146.32015344

loop_
_atom_site_label
_atom_site_type_symbol
_atom_type_description
_atom_site_fract_x
_atom_site_fract_y
_atom_site_fract_z
_atom_type_partial_charge
C1    C     C_1   0.500014 0.065130 0.500037 -0.170713
C2    C     C_3   0.969424 0.634555 0.539838 0.305510
C3    C     C_1   0.248838 0.504832 0.499236 -0.142581
C4    C     C_1   0.751162 0.495180 0.500765 -0.142644
C5    C     C_3   0.027554 0.539449 0.651928 0.415742
C6    C     C_3   0.972448 0.460596 0.348082 0.416019
C7    C     C_3   0.083159 0.505571 0.499757 -0.252295
C8    C     C_3   0.916840 0.494469 0.500250 -0.252337
C9    C     C_1   0.173766 0.506884 0.499096 0.207134
C10   C     C_1   0.826234 0.493141 0.500907 0.207050
C11   C     C_3   0.014016 0.133497 0.343346 -0.206009
C12   C     C_1   0.499987 0.934870 0.499963 -0.170713
C13   C     C_3   0.985708 0.866265 0.657520 -0.206093
C14   C     C_3   0.007206 0.241389 0.827458 -0.152908
C15   C     C_3   0.992804 0.758747 0.172624 -0.153362
C16   C     C_R   0.500038 0.217953 0.500026 0.933791
C17   C     C_R   0.499962 0.782047 0.499974 0.933794
C18   C     C_R   0.337503 0.501265 0.499757 0.885321
C19   C     C_R   0.662497 0.498735 0.500243 0.885303
C20   C     C_3   0.975354 0.399322 0.611743 0.322544
C21   C     C_3   0.024647 0.600721 0.388269 0.322941
C22   C     C_3   0.030573 0.365493 0.460168 0.305594
F1    F     F_    0.940171 0.420386 0.195932 -0.661552
F2    F     F_    0.059846 0.579640 0.804073 -0.661597
H1    H     H_    0.008227 0.166405 0.211908 0.197170
H2    H     H_    0.936787 0.799903 0.242726 0.161026
H3    H     H_    0.973766 0.671178 0.083465 0.255844
H4    H     H_    0.017464 0.853832 0.099941 0.144726
H5    H     H_    0.950442 0.130727 0.402770 0.181539
H6    H     H_    0.040561 0.018996 0.346409 0.197187
H7    H     H_    0.049476 0.869147 0.598829 0.181569
H8    H     H_    0.991057 0.832962 0.788911 0.197207
H9    H     H_    0.959186 0.980808 0.654563 0.196902
H10   H     H_    0.026165 0.328980 0.916620 0.256108
H11   H     H_    0.063257 0.200330 0.757428 0.160975
H12   H     H_    0.982585 0.146275 0.900137 0.144595
N1    N     N_1   0.500010 0.500000 0.073640 -0.020822
N2    N     N_1   0.499990 0.500000 0.926360 -0.020823
O1    O     O_R   0.500000 0.285340 0.636850 -0.614353
O2    O     O_3   0.929160 0.772025 0.573799 -0.597801
O3    O     O_3   0.942132 0.293405 0.722506 -0.580469
O4    O     O_3   0.057884 0.706622 0.277508 -0.580150
O5    O     O_R   0.500000 0.714660 0.363150 -0.614351
O6    O     O_R   0.500000 0.285340 0.363150 -0.614119
O7    O     O_R   0.500000 0.714660 0.636850 -0.614121
O8    O     O_R   0.376770 0.500000 0.636850 -0.609612
O9    O     O_R   0.623230 0.500000 0.363150 -0.609625
O10   O     O_R   0.376780 0.500000 0.363100 -0.606445
O11   O     O_R   0.623220 0.500000 0.636900 -0.606468
O12   O     O_3   0.070812 0.228032 0.426072 -0.597513
Zn1   Zn    Zn3+2 0.499990 0.500000 0.682780 1.021939
Zn2   Zn    Zn3+2 0.500010 0.500000 0.317220 1.021945

loop_
_geom_bond_atom_site_label_1
_geom_bond_atom_site_label_2
_ccdc_geom_bond_type
C12   C17   S    
C14   H10   S    
O1    Zn1   S    
C17   O5    A    
C13   H9    S    
O9    Zn2   S    
C3    C9    T    
C7    C22   S    
C5    C7    S    
C19   O11   A    
C13   H8    S    
C15   H3    S    
C4    C19   S    
C22   O12   S    
O6    Zn2   S    
C2    C21   S    
C20   O3    S    
C1    C16   S    
C8    C20   S    
C5    F2    S    
C15   H4    S    
N1    N2    T    
C1    C12   T    
C14   O3    S    
C6    F1    S    
C18   O8    A    
C8    C10   S    
C20   C22   S    
C19   O9    A    
C14   H12   S    
C13   H7    S    
C5    C20   S    
O5    Zn2   S    
C2    C5    S    
O7    Zn1   S    
C16   O1    A    
C4    C10   T    
C21   O4    S    
C6    C22   S    
C2    O2    S    
O10   Zn2   S    
C11   H5    S    
C3    C18   S    
C7    C9    S    
C14   H11   S    
C11   O12   S    
N1    Zn2   S    
C11   H1    S    
C15   H2    S    
C13   O2    S    
C6    C8    S    
N2    Zn1   S    
C7    C21   S    
C6    C21   S    
C15   O4    S    
O8    Zn1   S    
C16   O6    A    
C2    C8    S    
C11   H6    S    
C17   O7    A    
O11   Zn1   S    
C18   O10   A    
