data_mof_unit_3632.cif
_audit_creation_date              2012-12-10T20:45:32-0500
_audit_creation_method            fapswitch 2.2
_symmetry_space_group_name_H-M    P1
_symmetry_Int_Tables_number       1
_space_group_crystal_system       triclinic
_cell_length_a                    10.753446
_cell_length_b                    10.662623
_cell_length_c                    9.853402
_cell_angle_alpha                 90.134774
_cell_angle_beta                  91.785597
_cell_angle_gamma                 91.116176
_cell_volume                      1129.02266916

loop_
_atom_site_label
_atom_site_type_symbol
_atom_type_description
_atom_site_fract_x
_atom_site_fract_y
_atom_site_fract_z
_atom_type_partial_charge
C1    C     C_R   0.498665 0.260231 0.499754 0.877557
C2    C     C_R   0.162260 0.278163 0.019730 -0.152068
C3    C     C_R   0.929833 0.454029 0.392952 -0.251020
C4    C     C_R   0.873087 0.498932 0.507658 -0.121759
C5    C     C_R   0.943514 0.549470 0.618694 -0.061361
C6    C     C_R   0.070094 0.569554 0.603777 0.105387
C7    C     C_R   0.127761 0.513056 0.493175 -0.135966
C8    C     C_R   0.056904 0.455999 0.386040 -0.036270
C9    C     C_R   0.857106 0.685808 0.800037 -0.103362
C10   C     C_R   0.814730 0.701402 0.931756 -0.141520
C11   C     C_R   0.807404 0.598658 0.019198 -0.119524
C12   C     C_R   0.260124 0.504708 0.497722 0.904487
C13   C     C_R   0.841921 0.480098 0.974894 -0.151988
C14   C     C_R   0.883508 0.464112 0.843095 -0.113486
C15   C     C_R   0.891608 0.567090 0.754914 0.182199
C16   C     C_R   0.549359 0.065571 0.607243 0.132472
C17   C     C_R   0.491141 0.128357 0.500587 -0.094664
C18   C     C_R   0.420081 0.063344 0.400767 -0.232169
C19   C     C_R   0.419177 0.933454 0.401299 -0.213474
C20   C     C_R   0.488458 0.871465 0.502353 -0.082509
C21   C     C_R   0.546602 0.937403 0.609060 0.150344
C22   C     C_3   0.679411 0.931095 0.656347 -0.508539
C23   C     C_R   0.497791 0.739785 0.500139 0.888720
C24   C     C_3   0.683845 0.072640 0.650887 -0.503785
C25   C     C_R   0.543164 0.400054 0.072691 0.208594
C26   C     C_R   0.466530 0.603825 0.071128 -0.142623
C27   C     C_R   0.467434 0.604117 0.927245 -0.102098
C28   C     C_R   0.542223 0.399658 0.930095 0.231136
C29   C     C_3   0.491306 0.268662 0.924105 -0.505191
C30   C     C_3   0.494458 0.268700 0.078063 -0.506449
C31   C     C_R   0.740184 0.499027 0.502660 0.880635
C32   C     C_R   0.165185 0.409012 0.029013 -0.131739
C33   C     C_R   0.137139 0.467850 0.150998 -0.079309
C34   C     C_R   0.108333 0.395560 0.265236 0.150551
C35   C     C_R   0.109065 0.264135 0.256234 -0.184128
C36   C     C_R   0.136077 0.205759 0.133760 -0.165590
H1    H     H_    0.180643 0.232761 0.924340 0.137762
H2    H     H_    0.775320 0.610926 0.121329 0.150522
H3    H     H_    0.836713 0.400606 0.042732 0.131078
H4    H     H_    0.911055 0.371977 0.810240 0.121033
H5    H     H_    0.369107 0.112487 0.321374 0.163342
H6    H     H_    0.368413 0.882012 0.321651 0.156329
H7    H     H_    0.687645 0.894202 0.761413 0.202728
H8    H     H_    0.739223 0.886114 0.580843 0.195919
H9    H     H_    0.700742 0.116497 0.752041 0.196467
H10   H     H_    0.744227 0.110211 0.570174 0.199960
H11   H     H_    0.437580 0.686542 0.124356 0.152916
H12   H     H_    0.186453 0.464662 0.940815 0.175045
H13   H     H_    0.440382 0.687480 0.872620 0.177160
H14   H     H_    0.396118 0.262900 0.877348 0.215664
H15   H     H_    0.557733 0.202308 0.881738 0.199594
H16   H     H_    0.401272 0.261877 0.122825 0.234977
H17   H     H_    0.564269 0.204039 0.123004 0.201145
H18   H     H_    0.134307 0.569276 0.155459 0.135810
H19   H     H_    0.084699 0.207180 0.342710 0.133134
H20   H     H_    0.134786 0.104412 0.126655 0.143947
H21   H     H_    0.874856 0.412747 0.309352 0.164309
H22   H     H_    0.867154 0.766166 0.734500 0.131687
H23   H     H_    0.789146 0.793361 0.966753 0.124388
N1    N     N_R   0.499160 0.499140 0.142800 -0.107048
N2    N     N_R   0.499160 0.499180 0.857150 -0.104030
O1    O     O_R   0.500020 0.316790 0.614690 -0.620986
O2    O     O_R   0.500000 0.316760 0.385350 -0.623335
O3    O     O_R   0.316770 0.500030 0.614670 -0.592709
O4    O     O_R   0.316750 0.499990 0.385330 -0.619341
O5    O     O_R   0.500000 0.683240 0.614650 -0.610738
O6    O     O_R   0.499980 0.683210 0.385310 -0.635426
O7    O     O_R   0.683250 0.500010 0.614670 -0.613436
O8    O     O_R   0.683230 0.499970 0.385330 -0.629145
Zn1   Zn    Zn3+2 0.500010 0.500020 0.653130 0.964197
Zn2   Zn    Zn3+2 0.499990 0.499980 0.346870 0.939293
I1    I     I_    0.167584 0.697319 0.741841 -0.463703

loop_
_geom_bond_atom_site_label_1
_geom_bond_atom_site_label_2
_ccdc_geom_bond_type
N2    Zn1   S    
C13   C14   A    
C11   H2    S    
C19   H6    S    
C16   C21   A    
C36   H20   S    
C25   N1    A    
O3    Zn1   S    
C11   C13   A    
C12   O4    A    
O5    Zn1   S    
C1    C17   S    
C19   C20   A    
C20   C23   S    
C33   H18   S    
C24   H10   S    
C32   C33   A    
C33   C34   A    
C9    C15   A    
C7    C8    A    
C16   C24   S    
C8    C34   S    
C21   C22   S    
C1    O1    A    
C25   C28   A    
C6    I1    S    
C32   H12   S    
C2    H1    S    
C26   C27   A    
C29   C30   S    
C26   H11   S    
C24   H9    S    
C1    O2    A    
C23   O5    A    
C2    C32   A    
C28   C29   S    
C14   H4    S    
C29   H15   S    
C9    H22   S    
C6    C7    A    
O6    Zn2   S    
C29   H14   S    
C3    C8    A    
C17   C18   A    
C5    C6    A    
C12   O3    A    
C30   H17   S    
C22   C24   S    
C7    C12   S    
C5    C15   S    
C4    C31   S    
C13   H3    S    
C10   C11   A    
C28   N2    A    
C35   H19   S    
C3    C4    A    
C3    H21   S    
C31   O8    A    
C2    C36   A    
C20   C21   A    
O1    Zn1   S    
C10   H23   S    
O7    Zn1   S    
C34   C35   A    
C9    C10   A    
C18   H5    S    
C23   O6    A    
C25   C30   S    
O8    Zn2   S    
C30   H16   S    
C14   C15   A    
C18   C19   A    
C27   N2    A    
N1    Zn2   S    
O4    Zn2   S    
C26   N1    A    
C31   O7    A    
C22   H7    S    
C22   H8    S    
C27   H13   S    
C16   C17   A    
O2    Zn2   S    
C4    C5    A    
C35   C36   A    
