data_mof_unit_2523.cif
_audit_creation_date              2012-12-10T18:02:05-0500
_audit_creation_method            fapswitch 2.2
_symmetry_space_group_name_H-M    P1
_symmetry_Int_Tables_number       1
_space_group_crystal_system       triclinic
_cell_length_a                    10.782018
_cell_length_b                    9.633712
_cell_length_c                    23.612292
_cell_angle_alpha                 89.798152
_cell_angle_beta                  93.024858
_cell_angle_gamma                 89.641644
_cell_volume                      2449.14568807

loop_
_atom_site_label
_atom_site_type_symbol
_atom_type_description
_atom_site_fract_x
_atom_site_fract_y
_atom_site_fract_z
_atom_type_partial_charge
C1    C     C_R   0.262781 0.500459 0.500259 0.874239
C2    C     C_R   0.737330 0.499632 0.500299 0.944771
C3    C     C_R   0.585580 0.395705 0.243380 0.443466
C4    C     C_R   0.494367 0.367492 0.761824 0.443119
C5    C     C_R   0.587022 0.403646 0.302534 0.362172
C6    C     C_R   0.485817 0.370184 0.702562 0.334489
C7    C     C_R   0.508021 0.499366 0.328948 -0.411200
C8    C     C_R   0.494736 0.497676 0.672441 -0.403956
C9    C     C_R   0.434969 0.593579 0.294958 0.348404
C10   C     C_R   0.501051 0.622907 0.703955 0.332152
C11   C     C_R   0.445360 0.596917 0.236283 0.449907
C12   C     C_R   0.496608 0.621359 0.762999 0.427133
C13   C     C_R   0.516735 0.494377 0.209849 -0.057833
C14   C     C_R   0.497243 0.493343 0.792419 -0.049890
C15   C     C_R   0.069752 0.428539 0.544789 0.281169
C16   C     C_R   0.929883 0.577862 0.459776 0.258643
C17   C     C_R   0.939569 0.423761 0.542763 0.360659
C18   C     C_R   0.060162 0.573829 0.458826 0.312207
C19   C     C_R   0.871482 0.498998 0.500531 -0.210178
C20   C     C_R   0.128869 0.502052 0.501922 -0.229043
C21   C     C_R   0.406094 0.074359 0.472317 0.444573
C22   C     C_R   0.594087 0.925908 0.527584 0.454454
C23   C     C_R   0.593687 0.072542 0.527799 0.441524
C24   C     C_R   0.405908 0.927735 0.472508 0.433269
C25   C     C_R   0.501602 0.500046 0.391284 0.831657
C26   C     C_R   0.498367 0.499570 0.609198 0.843594
C27   C     C_R   0.608837 0.520237 0.883161 0.571704
C28   C     C_R   0.410642 0.448780 0.119129 0.576538
C29   C     C_R   0.393943 0.460357 0.880021 0.561861
C30   C     C_R   0.620749 0.526531 0.122185 0.558631
C31   C     C_R   0.393919 0.458283 0.939887 -0.052909
C32   C     C_R   0.622811 0.520914 0.062430 -0.053817
C33   C     C_R   0.506400 0.488225 0.971157 -0.062782
C34   C     C_R   0.511504 0.486535 0.031137 -0.061905
C35   C     C_R   0.613959 0.520402 0.942542 -0.040755
C36   C     C_R   0.404936 0.450678 0.059765 -0.043199
C37   C     C_R   0.286538 0.426152 0.969552 0.253765
C38   C     C_R   0.730851 0.550575 0.032882 0.253163
C39   C     C_R   0.294245 0.419665 0.028811 -0.218953
C40   C     C_R   0.724679 0.551108 0.973562 -0.219324
Cu1   Cu    Cu3+1 0.500000 0.640660 0.500000 1.019308
Cu2   Cu    Cu3+1 0.500000 0.359340 0.500000 0.999252
H1    H     H_    0.211397 0.393849 0.050581 0.179853
H2    H     H_    0.808114 0.574447 0.951836 0.177762
N1    N     N_R   0.500071 0.491260 0.853377 -0.473737
N2    N     N_R   0.516492 0.488714 0.148937 -0.472540
N3    N     N_R   0.500000 0.852070 0.500000 -0.343871
N4    N     N_R   0.500000 0.147930 0.500000 -0.346604
O1    O     O_R   0.319640 0.618740 0.500000 -0.546022
O2    O     O_R   0.680360 0.381260 0.500000 -0.561512
O3    O     O_R   0.680360 0.618740 0.500000 -0.549746
O4    O     O_R   0.319640 0.381260 0.500000 -0.574592
O5    O     O_R   0.499960 0.618810 0.417880 -0.571028
O6    O     O_R   0.500040 0.381190 0.582120 -0.594213
O7    O     O_R   0.500040 0.618810 0.582120 -0.583113
O8    O     O_R   0.499960 0.381190 0.417880 -0.596040
O9    O     O_2   0.711745 0.548676 0.855188 -0.510448
O10   O     O_2   0.310605 0.409169 0.147066 -0.503803
O11   O     O_2   0.289896 0.430496 0.848316 -0.463913
O12   O     O_2   0.720772 0.570925 0.153571 -0.458165
N5    N     N_2   0.169695 0.401048 0.940654 -0.371580
H3    H     H_    0.120168 0.322327 0.958522 0.249058
C41   C     C_3   0.094644 0.524770 0.931018 -0.564963
H4    H     H_    0.068288 0.569278 0.972076 0.184438
H5    H     H_    0.008824 0.498086 0.905422 0.249888
H6    H     H_    0.146137 0.603846 0.907397 0.254656
N6    N     N_2   0.847203 0.577155 0.061997 -0.373810
H7    H     H_    0.898941 0.651683 0.042660 0.248224
C42   C     C_3   0.919569 0.453310 0.075562 -0.554867
H8    H     H_    0.945857 0.400829 0.036054 0.184149
H9    H     H_    0.865970 0.380252 0.101198 0.255631
H10   H     H_    0.005552 0.481946 0.100654 0.252214
O13   O     O_3   0.655247 0.291454 0.220115 -0.622568
H11   H     H_    0.633636 0.283975 0.179024 0.331385
O14   O     O_3   0.495967 0.238938 0.788150 -0.607285
H12   H     H_    0.516956 0.249270 0.829187 0.336337
O15   O     O_3   0.666830 0.314913 0.332977 -0.616946
H13   H     H_    0.693382 0.359656 0.369260 0.338768
O16   O     O_3   0.469753 0.244906 0.675409 -0.606502
H14   H     H_    0.393782 0.254578 0.650129 0.349103
O17   O     O_3   0.350439 0.683084 0.317427 -0.615419
H15   H     H_    0.313860 0.635444 0.349690 0.338737
O18   O     O_3   0.510040 0.749921 0.677996 -0.603090
H16   H     H_    0.594029 0.751409 0.662928 0.338965
O19   O     O_3   0.379576 0.698801 0.205952 -0.619251
H17   H     H_    0.409100 0.704529 0.167055 0.332090
O20   O     O_3   0.495221 0.747998 0.790399 -0.614319
H18   H     H_    0.477665 0.734426 0.830724 0.334623
O21   O     O_3   0.135399 0.362402 0.589171 -0.696071
H19   H     H_    0.219388 0.402628 0.594335 0.319568
O22   O     O_3   0.857281 0.655434 0.421245 -0.694599
H20   H     H_    0.905341 0.737039 0.409586 0.367687
O23   O     O_3   0.875552 0.353919 0.583296 -0.686004
H21   H     H_    0.934059 0.301588 0.609185 0.403494
O24   O     O_3   0.122748 0.633944 0.415534 -0.708437
H22   H     H_    0.067802 0.635840 0.380584 0.356964
O25   O     O_3   0.309307 0.139121 0.442346 -0.628985
H23   H     H_    0.341802 0.223315 0.425003 0.366442
O26   O     O_3   0.691650 0.861626 0.557141 -0.641013
H24   H     H_    0.660922 0.774827 0.572879 0.352345
O27   O     O_3   0.689792 0.135509 0.558089 -0.606358
H25   H     H_    0.656833 0.220330 0.574838 0.393556
O28   O     O_3   0.309048 0.865089 0.442731 -0.599387
H26   H     H_    0.341358 0.779081 0.426907 0.384785

loop_
_geom_bond_atom_site_label_1
_geom_bond_atom_site_label_2
_ccdc_geom_bond_type
C38   C40   A    
O20   H18   S    
C41   H5    S    
O23   H21   S    
C8    C26   S    
Cu1   Cu2   S    
O24   H22   S    
C25   O8    A    
C26   O7    A    
O25   H23   S    
O19   H17   S    
C28   N2    A    
O27   H25   S    
C6    C8    A    
C25   O5    A    
C13   N2    S    
C33   C35   A    
C10   O18   S    
C42   H9    S    
O13   H11   S    
N5    C41   S    
Cu1   O7    S    
C4    O14   S    
C2    O2    A    
Cu2   O8    S    
C29   O11   S    
C30   O12   S    
C31   C33   A    
C23   N4    A    
C32   C38   A    
C18   C20   A    
C3    C13   A    
C21   N4    A    
C27   N1    A    
C22   N3    A    
C41   H6    S    
C18   O24   S    
N5    H3    S    
C26   O6    A    
Cu1   O1    S    
O17   H15   S    
C14   N1    S    
C15   C20   A    
N6    H7    S    
O16   H14   S    
C4    C6    A    
C27   O9    S    
O22   H20   S    
C5    C7    A    
C39   H1    S    
C27   C35   A    
O15   H13   S    
C31   C37   A    
C29   N1    A    
N6    C42   S    
C32   C34   A    
C42   H10   S    
O14   H12   S    
C15   O21   S    
C21   O25   S    
O18   H16   S    
C29   C31   A    
C33   C34   A    
Cu1   N3    S    
Cu2   N4    S    
C9    C11   A    
Cu1   O5    S    
C10   C12   A    
Cu2   O2    S    
C16   C18   A    
C12   C14   A    
C17   O23   S    
C5    O15   S    
C15   C17   A    
C1    C20   S    
C22   O26   S    
C12   O20   S    
C2    C19   S    
C24   N3    A    
C30   N2    A    
C36   C39   A    
C3    C5    A    
C37   N5    S    
C28   O10   S    
C7    C25   S    
O26   H24   S    
C24   O28   S    
C35   C40   A    
C37   C39   A    
Cu2   O6    S    
C30   C32   A    
C11   C13   A    
C6    O16   S    
C23   O27   S    
C11   O19   S    
C16   C19   A    
C17   C19   A    
C34   C36   A    
C4    C14   A    
C42   H8    S    
C3    O13   S    
C1    O4    A    
C2    O3    A    
C41   H4    S    
C7    C9    A    
C40   H2    S    
C38   N6    S    
C28   C36   A    
C16   O22   S    
C8    C10   A    
C21   C24   A    
C9    O17   S    
O28   H26   S    
C22   C23   A    
O21   H19   S    
C1    O1    A    
Cu1   O3    S    
Cu2   O4    S    
