data_mof_unit_705.cif
_audit_creation_date              2012-12-11T19:44:52-0500
_audit_creation_method            fapswitch 2.2
_symmetry_space_group_name_H-M    P1
_symmetry_Int_Tables_number       1
_space_group_crystal_system       triclinic
_cell_length_a                    8.287157
_cell_length_b                    15.070352
_cell_length_c                    18.975772
_cell_angle_alpha                 101.847943
_cell_angle_beta                  91.702357
_cell_angle_gamma                 98.797127
_cell_volume                      2287.53813705

loop_
_atom_site_label
_atom_site_type_symbol
_atom_type_description
_atom_site_fract_x
_atom_site_fract_y
_atom_site_fract_z
_atom_type_partial_charge
Ba1   Ba    Ba6+2 0.853900 0.540470 0.466700 1.681189
Ba2   Ba    Ba6+2 0.335940 0.459610 0.533310 1.710711
C1    C     C_3   0.704368 0.877705 0.308908 -0.245461
C2    C     C_R   0.024430 0.534364 0.728169 0.053786
C3    C     C_R   0.851584 0.418181 0.805361 -0.182870
C4    C     C_3   0.133867 0.733111 0.276658 0.335750
C5    C     C_R   0.783438 0.432022 0.741043 -0.021156
C6    C     C_R   0.341533 0.574230 0.189499 -0.169646
C7    C     C_R   0.408163 0.570288 0.257127 0.011364
C8    C     C_R   0.138800 0.444168 0.196795 -0.104665
C9    C     C_R   0.172714 0.463401 0.272303 0.040723
C10   C     C_R   0.987240 0.480289 0.842822 -0.006149
C11   C     C_R   0.878002 0.481229 0.699405 -0.227132
C12   C     C_3   0.663364 0.783760 0.326952 0.301923
C13   C     C_R   0.212671 0.505160 0.153805 -0.005252
C14   C     C_R   0.314589 0.522629 0.301002 -0.254213
C15   C     C_R   0.761892 0.426064 0.957647 -0.051417
C16   C     C_3   0.097182 0.756291 0.204108 -0.319967
C17   C     C_R   0.659294 0.393785 0.006557 -0.031989
C18   C     C_R   0.710645 0.413500 0.078473 -0.041264
C19   C     C_R   0.867635 0.459410 0.099599 -0.079615
C20   C     C_R   0.987298 0.470511 0.049512 0.024811
C21   C     C_R   0.931601 0.458174 0.974921 0.034974
C22   C     C_R   0.156074 0.497422 0.073760 -0.001078
C23   C     C_3   0.456962 0.318610 0.312005 0.335631
C24   C     C_R   0.268181 0.514956 0.020236 0.044054
C25   C     C_R   0.212754 0.502408 0.945680 0.015743
C26   C     C_R   0.043389 0.479237 0.921716 -0.013193
C27   C     C_R   0.438368 0.543495 0.037712 -0.081899
C28   C     C_3   0.236538 0.747003 0.628947 0.318220
C29   C     C_R   0.542646 0.573901 0.988713 -0.073945
C30   C     C_R   0.491544 0.553804 0.916609 -0.053363
C31   C     C_R   0.332956 0.509277 0.895309 -0.074632
C32   C     C_R   0.854516 0.172208 0.545446 0.004614
C33   C     C_R   0.789165 0.078090 0.538531 -0.017447
C34   C     C_3   0.472645 0.305631 0.230585 0.323998
C35   C     C_R   0.649910 0.890394 0.527064 -0.003469
C36   C     C_R   0.801171 0.928131 0.565442 0.024046
C37   C     C_R   0.871544 0.019103 0.569128 -0.093673
C38   C     C_R   0.580545 0.796458 0.519489 0.041686
C39   C     C_R   0.429548 0.763223 0.480878 -0.314665
C40   C     C_3   0.247791 0.851059 0.649051 0.365158
C41   C     C_R   0.616434 0.193269 0.475729 0.028647
C42   C     C_R   0.549650 0.099888 0.468290 -0.012029
C43   C     C_R   0.634713 0.042335 0.500803 0.004719
C44   C     C_R   0.398809 0.062830 0.429985 0.004293
C45   C     C_3   0.019969 0.235199 0.721716 0.656261
C46   C     C_R   0.329130 0.972330 0.426080 -0.094827
C47   C     C_R   0.410279 0.913819 0.457718 -0.036151
C48   C     C_R   0.565459 0.948566 0.494904 0.007974
C49   C     C_R   0.341295 0.821195 0.452394 -0.008969
C50   C     C_R   0.764605 0.228691 0.516006 -0.283435
C51   C     C_3   0.935928 0.250778 0.365122 0.343768
C52   C     C_3   0.914282 0.146034 0.342905 0.332849
C53   C     C_3   0.733707 0.671371 0.684535 0.342069
C54   C     C_3   0.760122 0.699162 0.766298 -0.336720
C55   C     C_3   0.091666 0.235724 0.797288 -0.312516
C56   C     C_3   0.515066 0.239590 0.714523 0.680373
C57   C     C_3   0.490525 0.169792 0.762760 0.252800
C58   C     C_R   0.067942 0.543457 0.802491 -0.135878
H1    H     H_    0.731307 0.784297 0.378617 0.083560
H2    H     H_    0.839156 0.897353 0.309367 0.163701
H3    H     H_    0.858270 0.760409 0.782199 0.141089
H4    H     H_    0.796847 0.641379 0.787556 0.039455
H5    H     H_    0.644116 0.714983 0.790876 0.151605
H6    H     H_    0.529592 0.770625 0.333580 -0.079074
H7    H     H_    0.655518 0.929004 0.349077 0.080241
H8    H     H_    0.329583 0.326493 0.325031 -0.004264
H9    H     H_    0.540549 0.383520 0.336303 -0.021237
H10   H     H_    0.440713 0.366979 0.212977 -0.131613
H11   H     H_    0.601512 0.301355 0.217886 0.066080
H12   H     H_    0.274771 0.880966 0.600874 -0.078982
H13   H     H_    0.647672 0.876666 0.254577 0.184899
H14   H     H_    0.140344 0.706458 0.159878 0.063685
H15   H     H_    0.009810 0.307969 0.720454 0.000040
H16   H     H_    0.208353 0.284300 0.810834 0.103151
H17   H     H_    0.004992 0.257930 0.838119 0.113117
H18   H     H_    0.110800 0.165597 0.801351 0.123570
H19   H     H_    0.647336 0.255489 0.708899 -0.015017
H20   H     H_    0.555330 0.112040 0.740776 0.151880
H21   H     H_    0.358599 0.141522 0.761773 0.087560
H22   H     H_    0.072745 0.661793 0.275258 0.064545
H23   H     H_    0.127957 0.868325 0.667629 0.018977
H24   H     H_    0.167792 0.596619 0.826837 0.091943
H25   H     H_    0.797122 0.358540 0.824445 0.117119
H26   H     H_    0.396277 0.628979 0.164675 0.077894
H27   H     H_    0.048438 0.385195 0.173236 0.120380
H28   H     H_    0.831100 0.483164 0.646020 0.049096
H29   H     H_    0.357482 0.527476 0.356230 0.065156
H30   H     H_    0.698112 0.430946 0.909445 0.070645
H31   H     H_    0.532716 0.364788 0.990202 0.076033
H32   H     H_    0.625009 0.399648 0.118220 0.077180
H33   H     H_    0.268124 0.738512 0.284815 -0.051033
H34   H     H_    0.815676 0.272256 0.372116 -0.025199
H35   H     H_    0.893731 0.486228 0.155750 0.119422
H36   H     H_    0.498544 0.538611 0.087158 0.078084
H37   H     H_    0.669674 0.601694 0.005126 0.084432
H38   H     H_    0.579298 0.566569 0.877454 0.099519
H39   H     H_    0.303986 0.479797 0.839218 0.125696
H40   H     H_    0.868087 0.888523 0.593477 0.095925
H41   H     H_    0.989976 0.042712 0.597714 0.102739
H42   H     H_    0.211212 0.949355 0.397168 0.111138
H43   H     H_    0.330580 0.103128 0.403042 0.101585
H44   H     H_    0.375903 0.692014 0.476190 0.067769
H45   H     H_    0.011179 0.272893 0.416661 -0.045379
H46   H     H_    0.963220 0.752966 0.194574 0.164821
H47   H     H_    0.814922 0.300521 0.521189 0.053812
H48   H     H_    0.160229 0.826898 0.203230 0.147947
H49   H     H_    0.357969 0.728722 0.615736 -0.004246
H50   H     H_    0.148662 0.721184 0.580871 -0.012529
H51   H     H_    0.542112 0.856966 0.799959 0.364886
H52   H     H_    0.950241 0.033549 0.187612 0.387754
H53   H     H_    0.351491 0.256164 0.080978 0.318920
H54   H     H_    0.876774 0.116133 0.713104 0.318200
H55   H     H_    0.495635 0.151122 0.623186 0.261869
H56   H     H_    0.856875 0.114856 0.386193 -0.123314
H57   H     H_    0.463725 0.221389 0.864447 0.314414
H58   H     H_    0.036200 0.124611 0.335864 0.042895
H59   H     H_    0.847217 0.650707 0.661903 -0.026272
H60   H     H_    0.631910 0.612513 0.670865 0.077416
O1    O     O_2   0.873950 0.434950 0.324050 -0.480849
O2    O     O_2   0.184276 0.181211 0.533978 -0.449103
O3    O     O_3   0.123353 0.200957 0.668378 -0.555453
O4    O     O_3   0.122400 0.443310 0.412980 -0.498524
O5    O     O_3   0.579970 0.613770 0.540070 -0.504257
O6    O     O_2   0.337870 0.272490 0.457870 -0.460380
O7    O     O_3   0.499446 0.242927 0.337282 -0.586459
O8    O     O_2   0.490795 0.497652 0.751016 -0.515550
O9    O     O_3   0.450886 0.318950 0.746523 -0.596954
O10   O     O_3   0.662890 0.605900 0.373340 -0.475160
O11   O     O_2   0.729084 0.542480 0.242370 -0.509995
O12   O     O_3   0.696186 0.746127 0.657723 -0.584975
O13   O     O_3   0.013430 0.288710 0.311248 -0.577704
O14   O     O_3   0.709717 0.717965 0.270939 -0.586349
O15   O     O_2   0.851830 0.727540 0.542170 -0.486019
O16   O     O_3   0.085020 0.656200 0.410840 -0.484120
O17   O     O_2   0.009482 0.819306 0.465428 -0.499811
O18   O     O_2   0.553334 0.942027 0.688183 -0.349407
O19   O     O_2   0.338677 0.975326 0.772359 -0.301016
O20   O     O_3   0.450962 0.822938 0.764971 -0.486229
O21   O     O_2   0.616494 0.074829 0.278166 -0.252620
O22   O     O_2   0.795774 0.172116 0.214484 -0.226476
O23   O     O_3   0.074653 0.795303 0.331121 -0.594350
O24   O     O_3   0.857101 0.008939 0.213659 -0.509646
O25   O     O_2   0.207549 0.173749 0.224901 -0.258739
O26   O     O_2   0.438700 0.130602 0.155679 -0.177314
O27   O     O_3   0.257229 0.233707 0.107170 -0.484353
O28   O     O_3   0.863877 0.179974 0.709962 -0.804262
O29   O     O_3   0.437507 0.201879 0.645613 -0.679155
O30   O     O_3   0.556820 0.210177 0.833366 -0.718022
O31   O     O_2   0.315750 0.565080 0.676000 -0.445419
O32   O     O_3   0.067310 0.556770 0.587020 -0.506381
O33   O     O_3   0.526830 0.394180 0.626670 -0.433014
O34   O     O_3   0.181935 0.711278 0.688170 -0.600017
O35   O     O_3   0.609740 0.386310 0.459940 -0.492673
O36   O     O_3   0.104690 0.343880 0.589170 -0.476799
P1    P     P_3+3 0.041310 0.408750 0.334260 1.013421
P2    P     P_3+3 0.676060 0.715830 0.563200 0.995986
P3    P     P_3+3 0.129757 0.773694 0.415004 0.934876
P4    P     P_3+3 0.148400 0.591330 0.665750 1.007436
P5    P     P_3+3 0.063309 0.224755 0.585249 1.029512
P6    P     P_3+3 0.625816 0.609747 0.284266 0.945941
P7    P     P_3+3 0.516955 0.271382 0.431917 0.980754
P8    P     P_3+3 0.563540 0.411360 0.718691 0.969948
S1    S     S_3+6 0.402375 0.901433 0.720010 -0.069023
S2    S     S_3+6 0.790036 0.101808 0.260641 -0.005424
S3    S     S_3+6 0.341483 0.206505 0.179847 0.006992

loop_
_geom_bond_atom_site_label_1
_geom_bond_atom_site_label_2
_ccdc_geom_bond_type
O26   S3    D    
O32   P4    S    
C38   C39   A    
Ba2   O35   S    
C4    H22   S    
C17   C18   A    
C53   C54   S    
C32   P5    S    
C53   H59   S    
C51   C52   S    
C25   C31   A    
C18   H32   S    
O21   S2    D    
C15   C21   A    
O2    P5    D    
C28   H50   S    
O18   S1    D    
C55   H16   S    
C38   P2    S    
Ba1   P2    S    
C7    C14   A    
Ba1   O5    S    
C32   C33   A    
C35   C38   A    
C8    C13   A    
C36   C37   A    
O3    P5    S    
C41   C50   A    
C1    H2    S    
C45   C55   S    
C56   O9    S    
C54   H5    S    
O8    P8    D    
Ba1   O32   S    
O19   S1    D    
Ba1   Ba2   S    
C2    C11   A    
Ba1   O35   S    
O16   P3    S    
C50   H47   S    
C42   C44   A    
C6    C7    A    
C47   C49   A    
O20   S1    S    
C52   H56   S    
O7    P7    S    
C54   H4    S    
H57   O30   S    
Ba1   O16   S    
O13   P1    S    
C56   O29   S    
C3    H25   S    
O10   P6    S    
C40   S1    S    
C14   H29   S    
C16   H14   S    
O15   P2    D    
O1    P1    D    
C19   C20   A    
H55   O29   S    
C23   H8    S    
C52   S2    S    
C34   H10   S    
H51   O20   S    
C37   H41   S    
C16   H48   S    
C53   H60   S    
Ba2   O32   S    
C4    C16   S    
C44   C46   A    
C8    H27   S    
O17   P3    D    
C28   H49   S    
C55   H17   S    
C51   O13   S    
C3    C10   A    
C36   H40   S    
Ba1   O10   S    
C3    C5    A    
O5    P2    S    
C19   H35   S    
O11   P6    D    
O35   P7    S    
C56   C57   S    
C12   H1    S    
C34   S3    S    
O12   P2    S    
O14   P6    S    
O9    P8    S    
O24   S2    S    
C31   H39   S    
C33   C37   A    
C41   C42   A    
C16   H46   S    
O34   P4    S    
C35   C36   A    
O22   S2    D    
C9    C14   A    
C45   O3    S    
C29   C30   A    
C28   O34   S    
C4    H33   S    
C46   H42   S    
O4    P1    S    
C2    C58   A    
C40   H12   S    
C12   H6    S    
C54   H3    S    
C21   C26   A    
C1    C12   S    
O27   S3    S    
C56   H19   S    
Ba2   O6    S    
C13   C22   S    
C10   C26   S    
O36   P5    S    
C53   O12   S    
Ba2   O33   S    
C52   H58   S    
C24   C25   A    
C20   C22   A    
C23   H9    S    
O6    P7    D    
C33   C43   A    
O33   P8    S    
C42   C43   A    
C9    P1    S    
O25   S3    D    
C57   O30   S    
Ba2   O31   S    
C45   O28   S    
C46   C47   A    
Ba2   O36   S    
C51   H34   S    
C55   H18   S    
C1    H7    S    
C40   H23   S    
C57   H21   S    
C22   C24   A    
C57   H20   S    
C27   H36   S    
C34   H11   S    
O23   P3    S    
Ba2   O4    S    
C6    C13   A    
C12   O14   S    
C44   H43   S    
C32   C50   A    
C39   H44   S    
O31   P4    D    
H52   O24   S    
Ba1   P1    S    
C23   O7    S    
Ba1   O4    S    
C45   H15   S    
C27   C29   A    
C30   C31   A    
C15   H30   S    
C35   C48   A    
C58   H24   S    
H53   O27   S    
C2    P4    S    
C43   C48   A    
C11   H28   S    
C49   P3    S    
C15   C17   A    
C30   H38   S    
C6    H26   S    
C29   H37   S    
C7    P6    S    
C1    H13   S    
Ba1   O1    S    
C17   H31   S    
C8    C9    A    
C23   C34   S    
H54   O28   S    
C10   C58   A    
Ba2   O5    S    
C51   H45   S    
C5    C11   A    
C5    P8    S    
C18   C19   A    
C24   C27   A    
Ba2   P4    S    
C47   C48   A    
C25   C26   A    
C20   C21   A    
C28   C40   S    
C4    O23   S    
Ba1   O15   S    
C39   C49   A    
C41   P7    S    
