data_mof_unit_3152.cif
_audit_creation_date              2012-12-10T17:16:10-0500
_audit_creation_method            fapswitch 2.2
_symmetry_space_group_name_H-M    P1
_symmetry_Int_Tables_number       1
_space_group_crystal_system       triclinic
_cell_length_a                    19.349086
_cell_length_b                    12.944292
_cell_length_c                    11.718152
_cell_angle_alpha                 99.856325
_cell_angle_beta                  94.029404
_cell_angle_gamma                 92.290914
_cell_volume                      2880.42335042

loop_
_atom_site_label
_atom_site_type_symbol
_atom_type_description
_atom_site_fract_x
_atom_site_fract_y
_atom_site_fract_z
_atom_type_partial_charge
C1    C     C_R   0.502116 0.298882 0.478079 0.821689
C2    C     C_R   0.492773 0.699993 0.521862 0.803227
C3    C     C_R   0.477375 0.812356 0.534330 -0.179218
C4    C     C_R   0.501971 0.184000 0.464171 -0.189988
C5    C     C_R   0.499960 0.010529 0.345157 0.514977
C6    C     C_R   0.455519 0.984626 0.644325 0.503178
C7    C     C_R   0.518150 0.118653 0.359879 0.062097
C8    C     C_R   0.459724 0.875205 0.639572 0.058058
C9    C     C_R   0.480853 0.138665 0.557154 -0.256269
C10   C     C_R   0.480053 0.857915 0.434868 -0.294893
C11   C     C_R   0.473094 0.030190 0.548351 -0.046739
C12   C     C_R   0.482756 0.966051 0.441764 -0.030617
C13   C     C_R   0.439961 0.392160 0.022033 -0.383197
C14   C     C_R   0.569954 0.593888 0.976287 -0.389948
C15   C     C_R   0.441897 0.406179 0.144898 0.607510
C16   C     C_R   0.563431 0.585002 0.854200 0.607588
C17   C     C_R   0.530949 0.542121 0.157879 0.608793
C18   C     C_R   0.472089 0.453747 0.842002 0.614505
C19   C     C_R   0.525729 0.534696 0.034071 -0.147515
C20   C     C_R   0.477849 0.460833 0.965774 -0.144203
C21   C     C_R   0.367645 0.508543 0.500127 0.791093
C22   C     C_R   0.632344 0.496975 0.500093 0.820781
C23   C     C_R   0.260631 0.531300 0.604411 -0.263029
C24   C     C_R   0.742283 0.555790 0.432725 -0.222149
C25   C     C_R   0.189432 0.536806 0.608536 -0.241357
C26   C     C_R   0.814215 0.565407 0.438993 -0.243930
C27   C     C_R   0.147088 0.539997 0.507937 -0.053427
C28   C     C_R   0.854465 0.517907 0.517865 -0.069094
C29   C     C_R   0.177216 0.541967 0.402210 0.477391
C30   C     C_R   0.820699 0.459148 0.591360 0.480627
C31   C     C_R   0.250273 0.542363 0.398389 0.066003
C32   C     C_R   0.747662 0.442162 0.578798 0.049197
C33   C     C_R   0.292015 0.526807 0.499509 -0.118233
C34   C     C_R   0.708357 0.496008 0.502621 -0.107153
C35   C     C_R   0.931255 0.527825 0.519324 0.423302
C36   C     C_R   0.071379 0.539067 0.514252 0.418736
Cu1   Cu    Cu3+1 0.505120 0.507730 0.615930 1.002185
Cu2   Cu    Cu3+1 0.494880 0.492270 0.384070 1.002739
H1    H     H_    0.291209 0.531703 0.684883 0.162038
H2    H     H_    0.712891 0.596783 0.373916 0.197525
H3    H     H_    0.410600 0.325872 0.971166 0.191749
H4    H     H_    0.610076 0.646872 0.023925 0.185735
H5    H     H_    0.167275 0.538337 0.691162 0.172659
H6    H     H_    0.838268 0.611475 0.382207 0.185037
H7    H     H_    0.484379 0.809011 0.351995 0.205530
H8    H     H_    0.471424 0.188602 0.637923 0.247921
N1    N     N_R   0.030795 0.589753 0.444961 -0.168597
N2    N     N_R   0.972209 0.478035 0.589103 -0.169873
N3    N     N_R   0.962132 0.584283 0.447526 -0.251896
N4    N     N_R   0.040825 0.483752 0.587030 -0.253468
N5    N     N_R   0.512830 0.519350 0.790130 -0.258527
N6    N     N_R   0.487170 0.480650 0.209870 -0.254641
O1    O     O_R   0.503640 0.354460 0.582000 -0.539135
O2    O     O_R   0.496360 0.645540 0.418000 -0.585534
O3    O     O_R   0.494980 0.341410 0.386200 -0.552199
O4    O     O_R   0.505020 0.658590 0.613800 -0.541497
O5    O     O_R   0.404470 0.506520 0.597930 -0.581719
O6    O     O_R   0.595530 0.493480 0.402070 -0.541319
O7    O     O_R   0.395820 0.493460 0.402130 -0.545127
O8    O     O_R   0.604180 0.506540 0.597870 -0.551403
O9    O     O_3   0.135129 0.546636 0.302905 -0.573454
C37   C     C_3   0.118342 0.443128 0.244266 -0.339080
H9    H     H_    0.165596 0.401862 0.217770 0.138953
H10   H     H_    0.085119 0.446609 0.164080 0.202389
H11   H     H_    0.088415 0.397268 0.298160 0.171924
O10   O     O_3   0.859150 0.413569 0.671632 -0.567873
C38   C     C_3   0.864665 0.483494 0.778855 -0.325995
H12   H     H_    0.896404 0.448057 0.843101 0.205086
H13   H     H_    0.812968 0.497122 0.812976 0.134261
H14   H     H_    0.891206 0.559773 0.771695 0.166192
C39   C     C_3   0.281021 0.566370 0.288780 -0.368783
C40   C     C_3   0.319552 0.674197 0.310786 -0.806445
H15   H     H_    0.282387 0.736680 0.331408 0.249078
H16   H     H_    0.359709 0.681615 0.384174 0.250217
H17   H     H_    0.345093 0.686437 0.231835 0.224562
H18   H     H_    0.314533 0.504119 0.252142 0.228014
H19   H     H_    0.240531 0.567733 0.217321 0.230489
C41   C     C_3   0.713562 0.361753 0.641279 -0.386378
C42   C     C_3   0.685290 0.264493 0.555453 -0.805987
H20   H     H_    0.647747 0.285627 0.488550 0.229726
H21   H     H_    0.728554 0.224692 0.511671 0.257275
H22   H     H_    0.658576 0.208905 0.602395 0.247430
H23   H     H_    0.750684 0.334406 0.704722 0.241507
H24   H     H_    0.671952 0.395790 0.693587 0.215180
C43   C     C_3   0.442888 0.829623 0.746255 -0.370247
C44   C     C_3   0.504948 0.844377 0.836437 -0.707432
H25   H     H_    0.512529 0.928073 0.878567 0.261166
H26   H     H_    0.495785 0.796317 0.904352 0.214281
H27   H     H_    0.552929 0.820364 0.795017 0.285901
H28   H     H_    0.398425 0.868587 0.786796 0.200887
H29   H     H_    0.424328 0.746113 0.724283 0.201579
C45   C     C_3   0.558016 0.158782 0.266717 -0.324877
C46   C     C_3   0.626974 0.106042 0.250292 -0.816557
H30   H     H_    0.656517 0.108487 0.335532 0.245296
H31   H     H_    0.618913 0.023331 0.205578 0.289099
H32   H     H_    0.658753 0.148343 0.195749 0.235801
H33   H     H_    0.525629 0.145398 0.182913 0.224295
H34   H     H_    0.572781 0.243375 0.288463 0.214619
O11   O     O_3   0.506267 0.946792 0.239220 -0.606029
C47   C     C_3   0.441199 0.936641 0.175040 -0.392515
H35   H     H_    0.424172 0.014044 0.157809 0.178035
H36   H     H_    0.401060 0.898320 0.219776 0.166250
H37   H     H_    0.445970 0.885842 0.089918 0.195806
O12   O     O_3   0.440535 0.047412 0.746840 -0.579373
C48   C     C_3   0.369960 0.071128 0.737647 -0.358026
H38   H     H_    0.335025 0.998915 0.716484 0.146277
H39   H     H_    0.359518 0.122145 0.671813 0.174578
H40   H     H_    0.356916 0.114774 0.822719 0.188041
O13   O     O_3   0.433235 0.371748 0.771374 -0.554037
C49   C     C_3   0.361231 0.382452 0.779429 -0.325539
H41   H     H_    0.335786 0.371452 0.690275 0.195575
H42   H     H_    0.347184 0.458892 0.829666 0.127694
H43   H     H_    0.338820 0.317523 0.818018 0.145669
O14   O     O_3   0.587529 0.595527 0.224966 -0.567181
C50   C     C_3   0.584550 0.705582 0.235034 -0.293984
H44   H     H_    0.589512 0.740901 0.328356 0.197964
H45   H     H_    0.536926 0.732076 0.191716 0.163502
H46   H     H_    0.630826 0.737553 0.199425 0.158639
O15   O     O_3   0.605549 0.645182 0.797026 -0.549531
C51   C     C_3   0.676435 0.638692 0.831757 -0.342503
H47   H     H_    0.689322 0.558807 0.847108 0.141892
H48   H     H_    0.692143 0.698440 0.910127 0.159331
H49   H     H_    0.707652 0.656679 0.761033 0.192113
O16   O     O_3   0.404367 0.340716 0.203850 -0.534467
C52   C     C_3   0.342263 0.295342 0.141679 -0.413647
H50   H     H_    0.353081 0.224477 0.078772 0.170133
H51   H     H_    0.313606 0.352215 0.097507 0.141328
H52   H     H_    0.307800 0.269362 0.204249 0.195933

loop_
_geom_bond_atom_site_label_1
_geom_bond_atom_site_label_2
_ccdc_geom_bond_type
C46   H30   S    
C27   C29   A    
C19   C20   A    
C16   N5    A    
C25   H5    S    
C13   H3    S    
O14   C50   S    
C43   H29   S    
C45   H34   S    
N1    N3    A    
C43   C44   S    
C48   H39   S    
Cu1   Cu2   S    
C24   C26   A    
C21   O7    A    
C4    C7    A    
C22   O8    A    
C39   H18   S    
Cu1   N5    S    
C44   H26   S    
C21   C33   S    
C50   H44   S    
C45   H33   S    
C36   N1    A    
C8    C43   S    
C1    O1    A    
C49   H41   S    
C47   H35   S    
C37   H10   S    
C17   C19   A    
Cu2   O6    S    
Cu1   O4    S    
C41   H23   S    
Cu2   O3    S    
C5    O11   S    
C28   C35   S    
C50   H45   S    
C35   N3    A    
C52   H52   S    
C18   O13   S    
C6    O12   S    
C37   H11   S    
C51   H49   S    
C14   H4    S    
Cu1   O1    S    
N2    N4    A    
O10   C38   S    
C9    H8    S    
C46   H31   S    
C40   H17   S    
C35   N2    A    
C17   N6    A    
C47   H36   S    
O12   C48   S    
C51   H48   S    
C18   N5    A    
C22   C34   S    
C48   H40   S    
C29   O9    S    
C15   O16   S    
C26   H6    S    
C38   H12   S    
C5    C12   A    
C40   H16   S    
C3    C8    A    
C2    O2    A    
C16   O15   S    
C6    C11   A    
C42   H21   S    
C41   C42   S    
C6    C8    A    
C23   C33   A    
C47   H37   S    
C24   C34   A    
C42   H20   S    
C38   H13   S    
C32   C34   A    
C21   O5    A    
C37   H9    S    
O11   C47   S    
Cu2   O2    S    
O15   C51   S    
C50   H46   S    
C10   H7    S    
C31   C33   A    
C15   N6    A    
C9    C11   A    
C49   H43   S    
C30   O10   S    
C10   C12   A    
C46   H32   S    
C13   C15   A    
C52   H50   S    
C14   C16   A    
C39   H19   S    
C36   N4    A    
C51   H47   S    
C5    C7    A    
C13   C20   A    
C44   H25   S    
C14   C19   A    
C17   O14   S    
C40   H15   S    
C44   H27   S    
C22   O6    A    
C42   H22   S    
C43   H28   S    
C27   C36   S    
C25   C27   A    
C48   H38   S    
C26   C28   A    
C1    C4    S    
C38   H14   S    
C28   C30   A    
C2    C3    S    
C1    O3    A    
C39   C40   S    
C29   C31   A    
C3    C10   A    
C2    O4    A    
O13   C49   S    
C30   C32   A    
C23   H1    S    
C7    C45   S    
C31   C39   S    
C45   C46   S    
C24   H2    S    
C18   C20   A    
C23   C25   A    
O9    C37   S    
C49   H42   S    
Cu1   O8    S    
C32   C41   S    
Cu2   O7    S    
C41   H24   S    
Cu2   N6    S    
C52   H51   S    
C4    C9    A    
Cu1   O5    S    
C11   C12   A    
O16   C52   S    
