data_mof_unit_1337.cif
_audit_creation_date              2013-03-05T15:54:10-0500
_audit_creation_method            fapswitch 2.2
_symmetry_space_group_name_H-M    P1
_symmetry_Int_Tables_number       1
_space_group_crystal_system       triclinic
_cell_length_a                    8.228474
_cell_length_b                    14.983953
_cell_length_c                    16.385589
_cell_angle_alpha                 97.582665
_cell_angle_beta                  92.961641
_cell_angle_gamma                 97.959115
_cell_volume                      1978.26590541

loop_
_atom_site_label
_atom_site_type_symbol
_atom_site_description
_atom_site_fract_x
_atom_site_fract_y
_atom_site_fract_z
_atom_type_partial_charge
P1    P     P_3+3 0.987060 0.708150 0.571770 0.469878
O1    O     O_2   0.162570 0.722330 0.548140 -0.396715
O2    O     O_3   0.890730 0.608900 0.545420 -0.369020
O3    O     O_3   0.394120 0.666550 0.400060 -0.377671
O4    O     O_2   0.304634 0.825263 0.455387 -0.395102
O5    O     O_3   0.978636 0.733402 0.679325 -0.576489
O6    O     O_3   0.387641 0.808929 0.302690 -0.535135
H1    H     H_    0.353215 0.673626 0.249701 0.132188
C1    C     C_3   0.393510 0.760996 0.157151 -0.075100
H2    H     H_    0.422990 0.705204 0.111347 0.061793
H3    H     H_    0.260580 0.765135 0.146711 0.175606
P2    P     P_3+3 0.349540 0.428350 0.313090 0.479513
P3    P     P_3+3 0.947832 0.621358 0.251746 0.426781
O7    O     O_2   0.182040 0.455740 0.301680 -0.392879
O8    O     O_3   0.971530 0.620720 0.357690 -0.380806
O9    O     O_2   0.070369 0.562478 0.211614 -0.408327
O10   O     O_3   0.330365 0.308284 0.296057 -0.564365
O11   O     O_3   0.016550 0.731747 0.232003 -0.541697
C2    C     C_3   0.964527 0.794159 0.293290 0.472539
H4    H     H_    0.026462 0.790537 0.354347 0.142490
H5    H     H_    0.829167 0.781227 0.296660 0.028754
C3    C     C_3   0.011104 0.890025 0.272797 -0.887800
H6    H     H_    0.146753 0.906199 0.272406 0.280824
H7    H     H_    0.954942 0.895960 0.211104 0.296194
C4    C     C_3   0.764705 0.350686 0.289318 0.366594
H8    H     H_    0.659478 0.375394 0.319383 0.126392
H9    H     H_    0.873108 0.404805 0.299441 0.129036
C5    C     C_3   0.720840 0.325810 0.196967 -0.941475
H10   H     H_    0.602498 0.279085 0.185746 0.272088
H11   H     H_    0.709951 0.387269 0.167601 0.230396
H12   H     H_    0.818309 0.291494 0.167736 0.284600
Ba1   Ba    Ba6+2 0.163630 0.544320 0.462600 1.546237
C6    C     C_3   0.120138 0.721672 0.725517 0.687601
H13   H     H_    0.201995 0.682735 0.688493 0.073870
C7    C     C_3   0.061725 0.668380 0.794292 -1.007171
H14   H     H_    0.167979 0.656334 0.833635 0.209984
H15   H     H_    0.987788 0.602556 0.767348 0.263798
H16   H     H_    0.982310 0.707163 0.833900 0.272665
C8    C     C_3   0.189486 0.263520 0.246069 0.391366
H17   H     H_    0.077625 0.284540 0.272684 0.099552
C9    C     C_3   0.195222 0.286143 0.156327 -0.159940
H18   H     H_    0.124972 0.343555 0.151993 0.101305
H19   H     H_    0.324301 0.307191 0.142320 0.155994
P4    P     P_3+3 0.823240 0.291840 0.428170 0.498509
O12   O     O_2   0.647720 0.277620 0.451840 -0.333289
O13   O     O_3   0.919570 0.391090 0.454510 -0.394157
O14   O     O_3   0.416180 0.333440 0.599870 -0.371290
O15   O     O_3   0.800693 0.272757 0.320316 -0.564787
P5    P     P_3+3 0.860288 0.379445 0.749258 0.468108
O16   O     O_3   0.378690 0.546410 0.598100 -0.391033
O17   O     O_3   0.838770 0.379270 0.642240 -0.389530
O18   O     O_2   0.728757 0.433011 0.787938 -0.355949
O19   O     O_3   0.802664 0.267705 0.768894 -0.534126
Ba2   Ba    Ba6+2 0.646550 0.455670 0.537340 1.576315
P6    P     P_3+3 0.432573 0.783611 0.402185 0.443611
C10   C     C_3   0.429074 0.739609 0.244433 0.279735
H20   H     H_    0.561077 0.732818 0.253313 0.026796
O20   O     O_3   0.431610 0.453580 0.401830 -0.346424
C11   C     C_3   0.563720 0.734601 0.661396 0.439759
H21   H     H_    0.656507 0.696485 0.631856 0.130209
H22   H     H_    0.461748 0.736344 0.614868 0.092988
C12   C     C_3   0.645961 0.831709 0.691820 -1.014572
H23   H     H_    0.755989 0.831158 0.733760 0.291330
H24   H     H_    0.683885 0.866794 0.638896 0.221464
H25   H     H_    0.560362 0.870843 0.726230 0.264728
P7    P     P_3+3 0.456038 0.577042 0.701113 0.437563
O21   O     O_2   0.628250 0.544210 0.698290 -0.325728
O22   O     O_3   0.501848 0.695170 0.728693 -0.593145
H26   H     H_    0.966848 0.939859 0.319611 0.209419
C13   C     C_3   0.847000 0.207701 0.702985 0.409643
H27   H     H_    0.771768 0.212259 0.645772 0.123615
H28   H     H_    0.979505 0.223883 0.692236 0.013260
C14   C     C_3   0.811629 0.109205 0.720468 -0.466493
H29   H     H_    0.688933 0.095453 0.745359 0.215320
H30   H     H_    0.806991 0.063788 0.660707 0.149679
P8    P     P_3+3 0.373023 0.214463 0.591664 0.452771
C15   C     C_3   0.385231 0.245790 0.750567 0.233413
H31   H     H_    0.258507 0.262950 0.743416 0.025546
O23   O     O_2   0.499319 0.173310 0.537234 -0.393725
O24   O     O_3   0.412980 0.178436 0.686973 -0.562402
H32   H     H_    0.475879 0.307993 0.750867 0.180150
H33   H     H_    0.303386 0.153986 0.836352 0.124934
C16   C     C_3   0.406396 0.209361 0.832573 -0.088441
H34   H     H_    0.522987 0.180122 0.836284 0.155526
C17   C     C_R   0.643744 0.826782 0.447656 0.198147
H35   H     H_    0.676182 0.693262 0.474257 0.178297
H36   H     H_    0.515548 0.958434 0.383242 0.184879
C18   C     C_R   0.886965 0.790632 0.518451 0.333894
C19   C     C_R   0.072004 0.231448 0.515709 -0.480365
C20   C     C_R   0.164426 0.170761 0.545816 0.262965
C21   C     C_R   0.101046 0.078633 0.539447 -0.290967
C22   C     C_R   0.944009 0.043895 0.499225 0.022856
C23   C     C_R   0.854605 0.105949 0.461614 -0.076862
C24   C     C_R   0.875459 0.948974 0.493153 0.047600
C25   C     C_R   0.715784 0.918999 0.453573 -0.014065
C26   C     C_R   0.633988 0.980132 0.416540 -0.234074
C27   C     C_R   0.706693 0.068768 0.413291 0.164977
C28   C     C_R   0.958625 0.882543 0.525530 -0.329178
C29   C     C_R   0.731695 0.763629 0.478407 -0.528754
C30   C     C_R   0.919856 0.201661 0.472721 0.239553
H37   H     H_    0.079357 0.899743 0.556237 0.166136
H38   H     H_    0.123312 0.302758 0.522518 0.186792
H39   H     H_    0.178386 0.036117 0.566090 0.162423
C31   C     C_R   0.630100 0.538558 0.268450 -0.507934
C32   C     C_R   0.473474 0.492432 0.241840 0.280287
C33   C     C_R   0.413676 0.493135 0.160122 -0.357244
C34   C     C_R   0.514954 0.530890 0.102662 0.158719
C35   C     C_R   0.677688 0.571350 0.129043 0.021063
C36   C     C_R   0.734443 0.575608 0.212645 0.155077
C37   C     C_R   0.379436 0.523567 0.854929 -0.253508
C38   C     C_R   0.331195 0.515601 0.770978 0.257206
C39   C     C_R   0.272468 0.484172 0.909789 0.232815
N1    N     N_2   0.460427 0.528729 0.017883 -0.043860
N2    N     N_2   0.318341 0.488237 0.995973 -0.039276
C40   C     C_R   0.178677 0.467207 0.740244 -0.459241
H40   H     H_    0.498696 0.561603 0.876924 0.169067
C41   C     C_R   0.068505 0.430856 0.793272 0.219094
C42   C     C_R   0.115879 0.438316 0.877926 -0.263637
H41   H     H_    0.288229 0.465173 0.141154 0.175339
H42   H     H_    0.031273 0.408822 0.918899 0.179837
H43   H     H_    0.674590 0.540884 0.332087 0.174553
H44   H     H_    0.141509 0.462637 0.675316 0.177403
N3    N     N_2   0.208338 0.809465 0.763727 -0.109476
H45   H     H_    0.314973 0.805496 0.798118 0.189905
C43   C     C_3   0.223005 0.883652 0.715105 -0.897459
H46   H     H_    0.099561 0.901064 0.699493 0.255470
H47   H     H_    0.296514 0.945024 0.751669 0.245966
H48   H     H_    0.285272 0.865359 0.658105 0.251905
N4    N     N_2   0.182362 0.165738 0.246638 -0.082878
H49   H     H_    0.089404 0.126046 0.208073 0.204718
C44   C     C_3   0.185524 0.134569 0.326339 -0.866111
H50   H     H_    0.230510 0.067814 0.320797 0.246426
H51   H     H_    0.059378 0.124913 0.346315 0.220911
H52   H     H_    0.266661 0.182724 0.373535 0.276825
N5    N     N_R   0.122381 0.210549 0.093635 0.262663
O25   O     O_R   0.208398 0.147028 0.068056 -0.337450
O26   O     O_R   0.980715 0.212717 0.055338 -0.391488
N6    N     N_R   0.490737 0.846236 0.144147 0.270761
O27   O     O_R   0.649927 0.852724 0.143790 -0.417039
O28   O     O_R   0.417795 0.913131 0.125079 -0.356962
N7    N     N_2   0.939213 0.087071 0.775679 -0.126009
H53   H     H_    0.945040 0.018198 0.769080 0.188662
C45   C     C_3   0.941711 0.126286 0.861405 -0.568080
H54   H     H_    0.034412 0.098374 0.898470 0.248702
H55   H     H_    0.819420 0.109483 0.885889 0.239039
H56   H     H_    0.977618 0.201163 0.868416 0.273814
N8    N     N_R   0.409671 0.281713 0.901558 0.248755
O29   O     O_R   0.291050 0.279869 0.950955 -0.374883
O30   O     O_R   0.539149 0.343130 0.918936 -0.381289
N9    N     N_2   0.633817 0.115836 0.354942 -0.082063
H57   H     H_    0.511678 0.118909 0.363346 0.198252
C46   C     C_3   0.658942 0.083156 0.269969 -0.669125
H58   H     H_    0.601503 0.124595 0.228449 0.267339
H59   H     H_    0.601416 0.011168 0.253240 0.262621
H60   H     H_    0.792443 0.088891 0.260504 0.230979
N10   N     N_2   0.780512 0.609432 0.071228 -0.103183
H61   H     H_    0.860779 0.667041 0.094912 0.226374
C47   C     C_3   0.857203 0.544318 0.018839 -0.806933
H62   H     H_    0.942022 0.511722 0.056390 0.253922
H63   H     H_    0.928651 0.579681 0.973769 0.236964
H64   H     H_    0.762895 0.491031 0.983787 0.291794

loop_
_geom_bond_atom_site_label_1
_geom_bond_atom_site_label_2
_geom_bond_distance
_ccdc_geom_bond_type
C45   H56   1.109025 S    
P7    O22   1.750946 S    
C9    H18   1.108522 S    
C23   C27   1.419457 A    
C19   H38   1.082190 S    
C14   H30   1.111993 S    
C14   H29   1.111400 S    
C25   C26   1.391233 A    
P8    O23   1.543935 D    
Ba1   O20   2.898679 S    
P2    C32   1.863506 S    
C44   H52   1.109231 S    
H1    C10   1.109854 S    
C39   N2    1.433975 S    
N5    O25   1.301717 A    
C8    C9    1.553615 S    
C14   N7    1.451894 S    
C15   H31   1.112088 S    
C10   H20   1.108834 S    
C4    C5    1.522008 S    
O16   Ba2   2.897793 S    
P3    O11   1.749691 S    
C5    H10   1.109479 S    
C7    H15   1.108603 S    
O14   P8    1.754666 S    
O11   C2    1.404884 S    
N7    C45   1.447284 S    
C31   C36   1.401627 A    
C33   H41   1.072550 S    
O2    Ba2   2.817952 S    
N3    C43   1.446203 S    
C33   C34   1.411404 A    
C24   C28   1.425145 A    
C45   H54   1.110463 S    
C45   H55   1.111360 S    
C35   C36   1.414677 A    
O1    Ba1   2.846072 S    
P1    O1    1.508387 D    
O10   C8    1.416383 S    
C37   C38   1.396839 A    
C34   N1    1.432401 S    
C12   H24   1.108433 S    
C47   H64   1.109465 S    
P5    C41   1.846399 S    
C2    H4    1.110350 S    
C40   C41   1.393924 A    
P2    O10   1.767416 S    
C43   H48   1.109387 S    
P3    C36   1.843362 S    
C27   N9    1.416655 S    
C13   H27   1.111476 S    
O6    P6    1.754487 S    
P7    C38   1.830612 S    
C1    H2    1.109226 S    
C3    H26   1.109765 S    
C21   C22   1.417811 A    
P2    O20   1.547903 S    
P1    C18   1.860542 S    
P7    O21   1.563968 D    
C11   H21   1.108771 S    
C40   H44   1.082318 S    
P2    Ba1   3.370640 S    
C47   H63   1.110696 S    
C9    H19   1.109855 S    
O2    Ba1   2.896645 S    
O6    C10   1.405826 S    
O19   C13   1.408211 S    
Ba1   Ba2   4.521361 S    
C31   C32   1.394459 A    
P4    O13   1.579560 S    
C37   C39   1.417438 A    
C3    H6    1.109451 S    
C11   H22   1.109588 S    
C19   C30   1.390641 A    
N8    O29   1.299494 A    
P1    O5    1.760041 S    
N3    H45   1.031117 S    
C2    C3    1.520255 S    
O7    Ba1   2.812562 S    
C8    H17   1.105491 S    
Ba2   O21   2.812627 S    
C8    N4    1.459485 S    
P5    O17   1.752964 S    
C4    H8    1.101908 S    
P1    Ba1   3.381465 S    
P1    O2    1.579583 S    
C7    H14   1.108491 S    
P6    C17   1.849490 S    
C12   H23   1.109631 S    
C17   C29   1.396734 A    
C11   O22   1.403884 S    
C1    H3    1.109857 S    
C1    N6    1.457131 S    
C16   H34   1.110600 S    
C35   N10   1.425017 S    
C46   H60   1.110472 S    
C15   H32   1.109495 S    
C34   C35   1.411972 A    
P5    O18   1.547407 D    
C26   C27   1.388001 A    
O13   Ba2   2.897557 S    
C13   C14   1.531716 S    
C22   C24   1.444185 A    
C6    H13   1.104422 S    
C1    C10   1.528853 S    
C17   C25   1.414905 A    
H35   C29   1.081424 S    
O16   P7    1.751703 S    
C23   C30   1.444291 A    
Ba1   O16   2.760854 S    
O3    Ba1   2.781313 S    
N6    O28   1.300944 A    
O14   Ba2   2.780629 S    
C16   N8    1.455704 S    
C46   H59   1.108996 S    
O12   Ba2   2.846498 S    
P3    O8    1.738267 S    
O3    P6    1.734072 S    
C47   H62   1.110672 S    
N9    C46   1.448786 S    
C44   H50   1.108070 S    
C37   H40   1.082621 S    
C9    N5    1.462448 S    
P4    O12   1.508704 D    
C43   H47   1.110671 S    
N1    N2    1.251652 D    
Ba2   O20   2.760391 S    
C15   O24   1.402616 S    
N5    O26   1.301526 A    
N10   H61   1.029169 S    
C11   C12   1.524696 S    
C12   H25   1.107254 S    
C2    H5    1.109310 S    
N9    H57   1.027900 S    
Ba1   O13   2.817347 S    
O4    P6    1.546251 D    
C5    H12   1.107229 S    
P8    O24   1.748431 S    
C21   H39   1.076283 S    
C44   H51   1.100680 S    
O8    Ba1   2.739304 S    
C38   C40   1.393104 A    
H36   C26   1.078750 S    
C31   H43   1.081650 S    
C4    H9    1.108893 S    
C28   H37   1.072257 S    
N8    O30   1.300399 A    
C32   C33   1.404358 A    
O5    C6    1.400070 S    
O17   Ba2   2.739788 S    
N10   C47   1.446548 S    
N4    H49   1.031023 S    
C41   C42   1.406991 A    
C39   C42   1.412641 A    
P4    C30   1.867783 S    
C20   C21   1.394802 A    
C43   H46   1.108791 S    
P5    O19   1.752070 S    
C5    H11   1.105863 S    
C22   C23   1.441994 A    
C6    C7    1.525059 S    
C3    H7    1.109131 S    
C24   C25   1.421367 A    
C42   H42   1.082642 S    
C18   C29   1.388066 A    
N6    O27   1.300378 A    
P4    Ba2   3.382014 S    
P2    O7    1.501094 D    
C46   H58   1.109634 S    
H33   C16   1.111296 S    
P3    O9    1.545704 D    
C6    N3    1.456197 S    
C15   C16   1.526297 S    
C7    H16   1.111470 S    
C13   H28   1.111976 S    
C19   C20   1.385546 A    
N7    H53   1.031392 S    
C4    O15   1.394968 S    
C18   C28   1.408434 A    
P4    O15   1.748546 S    
P8    C20   1.834389 S    
N4    C44   1.444000 S    
