data_mof_unit_2832.cif
_audit_creation_date              2012-12-10T17:54:26-0500
_audit_creation_method            fapswitch 2.2
_symmetry_space_group_name_H-M    P1
_symmetry_Int_Tables_number       1
_space_group_crystal_system       triclinic
_cell_length_a                    27.741286
_cell_length_b                    10.635494
_cell_length_c                    9.909851
_cell_angle_alpha                 89.903612
_cell_angle_beta                  90.017684
_cell_angle_gamma                 92.095882
_cell_volume                      2921.86485135

loop_
_atom_site_label
_atom_site_type_symbol
_atom_type_description
_atom_site_fract_x
_atom_site_fract_y
_atom_site_fract_z
_atom_type_partial_charge
C1    C     C_R   0.500667 0.260741 0.500130 0.851461
C2    C     C_R   0.972721 0.377208 0.529236 0.044486
C3    C     C_R   0.975798 0.607569 0.495203 0.085262
C4    C     C_R   0.406060 0.499540 0.499944 0.911972
C5    C     C_R   0.949033 0.492135 0.511087 0.074138
C6    C     C_R   0.944326 0.266173 0.553283 -0.215462
C7    C     C_R   0.894365 0.267137 0.552818 -0.130819
C8    C     C_R   0.870823 0.378702 0.529106 -0.020002
C9    C     C_R   0.897969 0.491606 0.508547 -0.056555
C10   C     C_R   0.873931 0.603983 0.485328 -0.024051
C11   C     C_R   0.823509 0.601340 0.483020 0.510918
C12   C     C_R   0.278497 0.472716 0.625691 -0.078532
C13   C     C_R   0.820436 0.380363 0.526232 0.505492
C14   C     C_R   0.721250 0.477217 0.623092 -0.109083
C15   C     C_R   0.671252 0.479896 0.622516 -0.203607
C16   C     C_R   0.502135 0.739562 0.499873 1.069707
C17   C     C_R   0.672278 0.508350 0.379081 -0.184310
C18   C     C_R   0.722312 0.505937 0.380075 -0.102995
C19   C     C_R   0.746740 0.490590 0.502035 0.316433
C20   C     C_R   0.023752 0.376965 0.523346 0.065820
C21   C     C_R   0.050526 0.493149 0.514135 0.075417
C22   C     C_R   0.026768 0.608733 0.504473 -0.043368
C23   C     C_R   0.252771 0.492888 0.507071 0.207368
C24   C     C_R   0.049112 0.263995 0.524703 -0.209854
C25   C     C_R   0.104919 0.722269 0.507257 0.701309
C26   C     C_R   0.950486 0.718084 0.468709 -0.210718
C27   C     C_R   0.900533 0.716102 0.464313 -0.138870
C28   C     C_R   0.593862 0.498686 0.500022 0.942267
C29   C     C_R   0.054953 0.722137 0.505323 -0.305882
C30   C     C_R   0.583963 0.142976 0.611305 -0.152592
C31   C     C_R   0.623671 0.083897 0.664419 -0.224382
C32   C     C_R   0.625093 0.953562 0.663034 -0.155664
C33   C     C_R   0.586808 0.881377 0.608898 0.629241
C34   C     C_R   0.101630 0.493678 0.514097 -0.126087
C35   C     C_R   0.545471 0.939780 0.556302 -0.105966
C36   C     C_R   0.544426 0.071748 0.557249 0.043077
C37   C     C_R   0.504182 0.129014 0.500166 -0.133846
C38   C     C_R   0.466471 0.060773 0.439777 -0.283765
C39   C     C_R   0.466897 0.932410 0.439649 0.627089
C40   C     C_R   0.176029 0.381177 0.516312 0.526714
C41   C     C_R   0.505427 0.872399 0.499164 -0.253826
C42   C     C_R   0.436444 0.334798 0.140390 -0.044935
C43   C     C_R   0.405100 0.253444 0.070260 -0.136594
C44   C     C_R   0.405116 0.253378 0.930546 -0.183293
C45   C     C_R   0.125640 0.379208 0.518232 -0.003336
C46   C     C_R   0.436495 0.334617 0.860131 -0.125390
C47   C     C_R   0.468690 0.418520 0.927811 0.141005
C48   C     C_R   0.468681 0.418593 0.072432 0.059972
C49   C     C_R   0.530029 0.577897 0.071349 0.660797
C50   C     C_R   0.529984 0.577795 0.928185 -0.205617
C51   C     C_R   0.179329 0.605618 0.507878 0.573588
C52   C     C_R   0.276889 0.514572 0.385096 -0.180702
C53   C     C_R   0.326991 0.516599 0.381210 0.638402
C54   C     C_R   0.328545 0.475003 0.622742 -0.284690
C55   C     C_R   0.099057 0.265398 0.522495 -0.105825
C56   C     C_R   0.128810 0.608464 0.509453 -0.182093
C57   C     C_R   0.353277 0.497183 0.500699 -0.177217
C58   C     C_R   0.646443 0.495791 0.500464 -0.025407
F1    F     F_    0.129492 0.835125 0.507027 -0.608384
F2    F     F_    0.591770 0.755501 0.605141 -0.693591
F3    F     F_    0.428992 0.865971 0.384595 -0.634103
F4    F     F_    0.560794 0.657689 0.138210 -0.643933
F5    F     F_    0.349376 0.539179 0.261325 -0.630567
H1    H     H_    0.256648 0.530285 0.293508 0.172275
H2    H     H_    0.116775 0.176264 0.523609 0.218777
H3    H     H_    0.652116 0.469376 0.717345 0.167432
H4    H     H_    0.874236 0.179557 0.571243 0.193177
H5    H     H_    0.959509 0.176795 0.575753 0.143815
H6    H     H_    0.347786 0.459120 0.715986 0.198962
H7    H     H_    0.653940 0.520723 0.283737 0.188886
H8    H     H_    0.882835 0.803300 0.443998 0.192555
H9    H     H_    0.039458 0.813470 0.507449 0.167815
H10   H     H_    0.584984 0.244552 0.611557 0.150910
H11   H     H_    0.656391 0.908018 0.702627 0.179619
H12   H     H_    0.968164 0.807745 0.447474 0.145282
H13   H     H_    0.380682 0.189936 0.876192 0.170037
H14   H     H_    0.554463 0.641341 0.874092 0.203768
H15   H     H_    0.740291 0.465594 0.717454 0.143257
H16   H     H_    0.031498 0.172101 0.524086 0.147259
H17   H     H_    0.742184 0.516255 0.286427 0.145155
H18   H     H_    0.436142 0.107340 0.395247 0.162434
H19   H     H_    0.653703 0.139533 0.705226 0.181862
H20   H     H_    0.259634 0.456049 0.720063 0.164455
H21   H     H_    0.434327 0.329238 0.247444 0.185189
H22   H     H_    0.380671 0.190017 0.124843 0.168716
H23   H     H_    0.434448 0.328916 0.753069 0.198089
N1    N     N_R   0.201489 0.493173 0.510742 -0.356628
N2    N     N_R   0.798067 0.490625 0.503369 -0.357548
N3    N     N_R   0.499540 0.498800 0.142780 -0.171396
N4    N     N_R   0.499520 0.498720 0.857170 -0.151724
O1    O     O_R   0.500000 0.316780 0.614690 -0.649022
O2    O     O_R   0.571250 0.499990 0.614680 -0.599471
O3    O     O_R   0.571240 0.499970 0.385350 -0.593708
O4    O     O_2   0.199538 0.272263 0.519116 -0.520524
O5    O     O_2   0.793914 0.272829 0.545269 -0.554397
O6    O     O_2   0.206327 0.713724 0.503601 -0.441141
O7    O     O_2   0.799971 0.708488 0.461748 -0.543797
O8    O     O_R   0.500000 0.316750 0.385360 -0.652608
O9    O     O_R   0.428760 0.500030 0.614650 -0.651589
O10   O     O_R   0.428750 0.500010 0.385320 -0.573588
O11   O     O_R   0.500000 0.683250 0.614640 -0.591317
O12   O     O_R   0.500000 0.683220 0.385310 -0.535366
Zn1   Zn    Zn3+2 0.500000 0.500020 0.653130 0.975971
Zn2   Zn    Zn3+2 0.500000 0.499980 0.346870 1.052110

loop_
_geom_bond_atom_site_label_1
_geom_bond_atom_site_label_2
_ccdc_geom_bond_type
C10   C27   A    
O9    Zn1   S    
C34   C56   A    
C8    C13   A    
C22   C29   A    
C35   C36   A    
C25   C56   A    
C7    C8    A    
C39   C41   A    
C31   C32   A    
C24   C55   A    
C12   C23   A    
C26   C27   A    
C31   H19   S    
C13   O5    S    
C40   N1    A    
C36   C37   A    
C18   C19   A    
C32   H11   S    
C38   C39   A    
O10   Zn2   S    
C51   C56   A    
C44   H13   S    
O2    Zn1   S    
C50   N4    A    
C20   C24   A    
C8    C9    A    
C4    C57   S    
C40   O4    S    
C9    C10   A    
C1    C37   S    
C17   C58   A    
C29   H9    S    
C6    H5    S    
C17   H7    S    
C1    O1    A    
C23   N1    S    
C21   C22   A    
C2    C6    A    
O3    Zn2   S    
C55   H2    S    
C44   C46   A    
C17   C18   A    
C25   C29   A    
C40   C45   A    
C39   F3    S    
C2    C20   A    
C43   H22   S    
C42   H21   S    
C19   N2    S    
C52   H1    S    
C51   N1    A    
C30   H10   S    
C53   C57   A    
C21   C34   A    
C15   H3    S    
C12   H20   S    
C28   O3    A    
C43   C44   A    
C5    C9    A    
C37   C38   A    
O1    Zn1   S    
C15   C58   A    
C24   H16   S    
C47   C48   A    
C11   N2    A    
C26   H12   S    
C28   O2    A    
C34   C45   A    
C42   C48   A    
O12   Zn2   S    
C16   O12   A    
C33   F2    S    
C48   N3    A    
C4    O10   A    
C38   H18   S    
C47   N4    A    
C2    C5    A    
C42   C43   A    
C50   H14   S    
C27   H8    S    
C52   C53   A    
O11   Zn1   S    
C46   C47   A    
C49   F4    S    
C14   C19   A    
C3    C26   A    
C49   N3    A    
C3    C5    A    
C1    O8    A    
C6    C7    A    
C28   C58   S    
C51   O6    S    
C30   C36   A    
C11   O7    S    
C32   C33   A    
N3    Zn2   S    
C53   F5    S    
C23   C52   A    
C30   C31   A    
C54   H6    S    
O8    Zn2   S    
C13   N2    A    
C33   C35   A    
C14   H15   S    
C35   C41   A    
N4    Zn1   S    
C10   C11   A    
C7    H4    S    
C16   O11   A    
C20   C21   A    
C45   C55   A    
C18   H17   S    
C49   C50   A    
C4    O9    A    
C14   C15   A    
C3    C22   A    
C25   F1    S    
C16   C41   S    
C12   C54   A    
C46   H23   S    
C54   C57   A    
