data_mof_unit_3857.cif
_audit_creation_date              2013-03-05T15:58:17-0500
_audit_creation_method            fapswitch 2.2
_symmetry_space_group_name_H-M    P1
_symmetry_Int_Tables_number       1
_space_group_crystal_system       triclinic
_cell_length_a                    12.590342
_cell_length_b                    13.218813
_cell_length_c                    15.4048
_cell_angle_alpha                 83.075721
_cell_angle_beta                  98.612094
_cell_angle_gamma                 96.890429
_cell_volume                      2502.81191255

loop_
_atom_site_label
_atom_site_type_symbol
_atom_site_description
_atom_site_fract_x
_atom_site_fract_y
_atom_site_fract_z
_atom_type_partial_charge
O1    O     O_R   0.374950 0.371210 0.521360 -0.563648
O2    O     O_R   0.542050 0.338030 0.492790 -0.626783
C1    C     C_R   0.444177 0.307779 0.512757 0.864292
O3    O     O_R   0.368720 0.526070 0.390200 -0.571021
O4    O     O_R   0.535820 0.492890 0.361630 -0.621783
C2    C     C_R   0.437060 0.517834 0.335711 0.891394
Zn1   Zn    Zn3+2 0.388420 0.522150 0.519080 1.063652
Zn2   Zn    Zn3+2 0.611580 0.477850 0.480920 0.930614
O5    O     O_R   0.457950 0.661970 0.507210 -0.579840
O6    O     O_R   0.625050 0.628790 0.478640 -0.648463
O7    O     O_R   0.464180 0.507110 0.638370 -0.546257
O8    O     O_R   0.631280 0.473930 0.609800 -0.655823
C3    C     C_R   0.557004 0.691345 0.490686 0.903265
C4    C     C_R   0.565896 0.490713 0.663896 0.891295
C5    C     C_R   0.411216 0.553956 0.241927 -0.182994
C6    C     C_R   0.610624 0.494229 0.757282 -0.161166
C7    C     C_R   0.348544 0.682981 0.126068 -0.184420
C8    C     C_R   0.345095 0.633557 0.211262 0.307146
C9    C     C_R   0.473409 0.521842 0.185111 -0.245167
C10   C     C_R   0.485671 0.576863 0.103349 0.063728
C11   C     C_R   0.419958 0.657353 0.072050 -0.039090
C12   C     C_R   0.560688 0.551986 0.051518 0.086771
C13   C     C_R   0.555289 0.594801 0.962903 0.013709
C14   C     C_R   0.502047 0.683747 0.937747 -0.186669
C15   C     C_R   0.431931 0.713523 0.989704 0.306560
C16   C     C_R   0.642176 0.487311 0.085348 -0.190042
C17   C     C_R   0.704980 0.454493 0.029690 -0.181219
C18   C     C_R   0.681615 0.477723 0.938633 0.132775
C19   C     C_R   0.603169 0.546017 0.903312 -0.001218
C20   C     C_R   0.731895 0.428893 0.882801 -0.172882
C21   C     C_R   0.696599 0.437049 0.792798 -0.234228
C22   C     C_R   0.566986 0.552982 0.811177 0.266508
H1    H     H_    0.732789 0.393856 0.751550 0.182619
H2    H     H_    0.766391 0.404378 0.057510 0.151436
H3    H     H_    0.300102 0.746060 0.105445 0.218828
H4    H     H_    0.515509 0.455038 0.207910 0.159975
H5    H     H_    0.514279 0.731470 0.877460 0.223653
H6    H     H_    0.660849 0.463184 0.154916 0.145099
H7    H     H_    0.794209 0.379314 0.909368 0.159891
C23   C     C_R   0.731534 0.934930 0.531001 -0.169617
H8    H     H_    0.764516 0.781680 0.522115 0.157532
H9    H     H_    0.755001 0.114755 0.595881 0.162610
H10   H     H_    0.814758 0.958811 0.555976 0.155778
C24   C     C_R   0.593819 0.799573 0.489850 -0.035161
C25   C     C_R   0.299086 0.164488 0.485316 0.290042
C26   C     C_R   0.276636 0.078874 0.438549 -0.179467
C27   C     C_R   0.358702 0.021924 0.427359 0.015246
C28   C     C_R   0.462866 0.038997 0.478190 0.043167
C29   C     C_R   0.487388 0.129182 0.521143 0.036666
C30   C     C_R   0.543292 0.970532 0.488774 0.080479
C31   C     C_R   0.651149 0.001253 0.524994 0.169158
C32   C     C_R   0.674596 0.092715 0.563187 -0.228549
C33   C     C_R   0.591974 0.151603 0.567282 -0.128560
C34   C     C_R   0.515877 0.867806 0.476735 -0.230113
C35   C     C_R   0.702978 0.834148 0.512020 -0.186493
C36   C     C_R   0.408113 0.197635 0.514707 -0.221778
H11   H     H_    0.432164 0.837905 0.465253 0.188020
H12   H     H_    0.195560 0.059523 0.405977 0.200721
H13   H     H_    0.611008 0.215800 0.606427 0.164589
C37   C     C_R   0.137751 0.647961 0.615933 -0.262841
H14   H     H_    0.309908 0.666305 0.626325 0.207530
H15   H     H_    0.939412 0.672306 0.639869 0.166444
H16   H     H_    0.135300 0.705556 0.659876 0.179104
N1    N     N_R   0.239390 0.551900 0.544730 -0.117668
C38   C     C_R   0.757571 0.380640 0.395886 0.007215
C39   C     C_R   0.852959 0.357660 0.371807 -0.231153
C40   C     C_R   0.950597 0.404388 0.410258 -0.108061
C41   C     C_R   0.952728 0.473561 0.473999 0.009943
C42   C     C_R   0.853280 0.495632 0.494940 0.234410
C43   C     C_R   0.048838 0.522530 0.516721 -0.013656
C44   C     C_R   0.043574 0.596007 0.575924 0.167508
C45   C     C_R   0.944479 0.616995 0.594449 -0.258215
C46   C     C_R   0.850643 0.566369 0.555163 -0.206473
C47   C     C_R   0.150855 0.501232 0.503675 0.043535
C48   C     C_R   0.236039 0.625312 0.598133 0.097586
N2    N     N_R   0.759950 0.448600 0.455730 -0.131296
H17   H     H_    0.163405 0.445412 0.461856 0.156948
H18   H     H_    0.680958 0.345305 0.366108 0.144706
H19   H     H_    0.022263 0.386318 0.387666 0.184155
H20   H     H_    0.851262 0.304640 0.323140 0.167056
H21   H     H_    0.777112 0.584844 0.572692 0.213432
N3    N     N_R   0.371821 0.798988 0.956278 0.210036
O9    O     O_R   0.420294 0.882198 0.919647 -0.358988
O10   O     O_R   0.266757 0.786414 0.945615 -0.357880
N4    N     N_R   0.211769 0.219716 0.497534 0.209203
O11   O     O_R   0.125896 0.221607 0.438929 -0.443104
O12   O     O_R   0.208423 0.249785 0.574395 -0.361747
N5    N     N_3   0.336289 0.958898 0.355778 -0.422851
H22   H     H_    0.406797 0.944055 0.333677 0.220336
H23   H     H_    0.290397 0.891245 0.375696 0.245117
N6    N     N_R   0.479495 0.611119 0.772859 0.181348
O13   O     O_R   0.381782 0.580129 0.789417 -0.383021
O14   O     O_R   0.496711 0.691587 0.717168 -0.436911
N7    N     N_R   0.279993 0.670476 0.266849 0.208714
O15   O     O_R   0.326392 0.717063 0.334389 -0.438642
O16   O     O_R   0.178463 0.679254 0.238803 -0.376586

loop_
_geom_bond_atom_site_label_1
_geom_bond_atom_site_label_2
_geom_bond_distance
_ccdc_geom_bond_type
C5    C8    1.412780 A    
C9    C10   1.396289 A    
C33   H13   1.082824 S    
N4    O11   1.301269 A    
H14   C48   1.077986 S    
C6    C21   1.400566 A    
C5    C9    1.390676 A    
C16   C17   1.386945 A    
C30   C34   1.388001 A    
C38   N2    1.357487 A    
C37   H16   1.083962 S    
C13   C19   1.422558 A    
C18   C19   1.421647 A    
C19   C22   1.419643 A    
C9    H4    1.079771 S    
C20   C21   1.386489 A    
O7    C4    1.317906 A    
C22   N6    1.432276 S    
Zn2   N2    2.053336 S    
C42   N2    1.354551 A    
O5    C3    1.313747 A    
H8    C35   1.082759 S    
C2    C5    1.466719 S    
C23   H10   1.083868 S    
C25   C36   1.413735 A    
C41   C42   1.410039 A    
C47   H17   1.075891 S    
C43   C47   1.395381 A    
C13   C14   1.408324 A    
C21   H1    1.083501 S    
C42   C46   1.400695 A    
C43   C44   1.423618 A    
C28   C30   1.416280 A    
C39   C40   1.389792 A    
C26   H12   1.083550 S    
O3    Zn1   1.958750 S    
C46   H21   1.065202 S    
Zn1   O7    1.938744 S    
N4    O12   1.301575 A    
C17   H2    1.084219 S    
C31   C32   1.388844 A    
C40   H19   1.076155 S    
C14   C15   1.394918 A    
C14   H5    1.078173 S    
N6    O13   1.301629 A    
C16   H6    1.079627 S    
C37   C44   1.394722 A    
C30   C31   1.419751 A    
C25   C26   1.392310 A    
C7    C11   1.407392 A    
C40   C41   1.415523 A    
O1    C1    1.310353 A    
C25   N4    1.436892 S    
N6    O14   1.301838 A    
C1    C36   1.470317 S    
C27   C28   1.431102 A    
Zn2   O8    1.958750 S    
C23   C35   1.391794 A    
C7    C8    1.398080 A    
H15   C45   1.084481 S    
C10   C11   1.420248 A    
N7    O16   1.300866 A    
O3    C2    1.310561 A    
C28   C29   1.412464 A    
N5    H23   1.044375 S    
C38   C39   1.385749 A    
N3    O10   1.301203 A    
C15   N3    1.436108 S    
C8    N7    1.431854 S    
C4    C6    1.468345 S    
C29   C36   1.410763 A    
C32   C33   1.384854 A    
Zn1   O5    1.947831 S    
C11   C15   1.409439 A    
C26   C27   1.391149 A    
C38   H18   1.081696 S    
O1    Zn1   1.978561 S    
Zn2   O6    1.978560 S    
O2    Zn2   1.947831 S    
C10   C12   1.414708 A    
C45   C46   1.379745 A    
O6    C3    1.306434 A    
O4    Zn2   1.938744 S    
C6    C22   1.410258 A    
C23   C31   1.402415 A    
C39   H20   1.082593 S    
C37   C48   1.380762 A    
C27   N5    1.435812 S    
C18   C20   1.397170 A    
O2    C1    1.318560 A    
O8    C4    1.309657 A    
C44   C45   1.387008 A    
C24   C35   1.400256 A    
O4    C2    1.316121 A    
C29   C33   1.415543 A    
N1    C48   1.353878 A    
C20   H7    1.084010 S    
N7    O15   1.299675 A    
Zn1   N1    2.065912 S    
C24   C34   1.387942 A    
N5    H22   1.044457 S    
C41   C43   1.411617 A    
N3    O9    1.301213 A    
C12   C16   1.413512 A    
C17   C18   1.393800 A    
N1    C47   1.342746 A    
C12   C13   1.408402 A    
C7    H3    1.080875 S    
C3    C24   1.449140 S    
H9    C32   1.084095 S    
C34   H11   1.076775 S    
