data_mof_unit_448.cif
_audit_creation_date              2012-12-10T18:23:13-0500
_audit_creation_method            fapswitch 2.2
_symmetry_space_group_name_H-M    P1
_symmetry_Int_Tables_number       1
_space_group_crystal_system       triclinic
_cell_length_a                    27.76344
_cell_length_b                    10.642228
_cell_length_c                    9.517886
_cell_angle_alpha                 87.514495
_cell_angle_beta                  91.113607
_cell_angle_gamma                 88.945401
_cell_volume                      2808.50295824

loop_
_atom_site_label
_atom_site_type_symbol
_atom_type_description
_atom_site_fract_x
_atom_site_fract_y
_atom_site_fract_z
_atom_type_partial_charge
C1    C     C_R   0.501044 0.259731 0.502462 0.784929
C2    C     C_R   0.873521 0.398107 0.561504 -0.006210
C3    C     C_R   0.354057 0.491736 0.496236 -0.046376
C4    C     C_R   0.645943 0.508263 0.503763 -0.046375
C5    C     C_R   0.974549 0.386835 0.525777 0.065144
C6    C     C_R   0.025451 0.613161 0.474220 0.065144
C7    C     C_R   0.975236 0.618367 0.501749 -0.004415
C8    C     C_R   0.024764 0.381629 0.498248 -0.004414
C9    C     C_R   0.949878 0.505302 0.524094 0.067539
C10   C     C_R   0.050121 0.494694 0.475904 0.067539
C11   C     C_R   0.947937 0.277236 0.556662 -0.210768
C12   C     C_R   0.498956 0.740269 0.497538 0.784930
C13   C     C_R   0.052063 0.722760 0.443335 -0.210768
C14   C     C_R   0.898437 0.282950 0.572586 -0.155173
C15   C     C_R   0.101563 0.717047 0.427411 -0.155173
C16   C     C_R   0.407470 0.498372 0.499196 0.790004
C17   C     C_R   0.592530 0.501628 0.500804 0.790005
C18   C     C_R   0.050035 0.266464 0.484395 -0.199530
C19   C     C_R   0.949965 0.733533 0.515603 -0.199529
C20   C     C_3   0.505278 0.031315 0.635499 -0.187820
C21   C     C_3   0.494722 0.968685 0.364501 -0.187826
C22   C     C_3   0.541176 0.948862 0.555290 -0.209352
C23   C     C_R   0.100856 0.489557 0.457587 -0.069659
C24   C     C_3   0.458824 0.051138 0.444711 -0.209357
C25   C     C_3   0.498559 0.877378 0.494161 -0.058344
C26   C     C_3   0.501441 0.122622 0.505839 -0.058345
C27   C     C_3   0.463026 0.958542 0.573558 0.214744
C28   C     C_3   0.536974 0.041458 0.426442 0.214742
C29   C     C_3   0.498125 0.612747 0.042978 0.269422
C30   C     C_3   0.501875 0.387253 0.957022 0.269422
C31   C     C_3   0.461415 0.554574 0.943707 -0.141169
C32   C     C_3   0.538585 0.445426 0.056293 -0.141169
C33   C     C_3   0.536523 0.558734 0.949860 0.241130
C34   C     C_R   0.899144 0.510440 0.542411 -0.069659
C35   C     C_3   0.463477 0.441265 0.050140 0.241130
C36   C     C_R   0.177145 0.374291 0.471608 0.524039
C37   C     C_R   0.822855 0.625706 0.528390 0.524040
C38   C     C_R   0.176804 0.596944 0.432381 0.533841
C39   C     C_R   0.823196 0.403053 0.567617 0.533842
C40   C     C_R   0.274327 0.547744 0.579551 -0.091578
C41   C     C_R   0.725673 0.452255 0.420446 -0.091578
C42   C     C_R   0.324594 0.551181 0.595266 0.139598
C43   C     C_R   0.675406 0.448819 0.404732 0.139599
C44   C     C_R   0.331715 0.424129 0.390110 -0.284071
C45   C     C_R   0.126172 0.372736 0.459905 -0.068282
C46   C     C_R   0.668285 0.575868 0.609891 -0.284071
C47   C     C_R   0.281696 0.421477 0.375950 -0.104889
C48   C     C_R   0.718304 0.578519 0.624050 -0.104890
C49   C     C_R   0.252798 0.485027 0.469303 0.314623
C50   C     C_R   0.747202 0.514970 0.530696 0.314623
C51   C     C_3   0.419936 0.910426 0.655252 -0.428098
C52   C     C_3   0.394214 0.016122 0.728834 -0.807831
C53   C     C_3   0.580064 0.089575 0.344750 -0.428092
C54   C     C_3   0.605790 0.983876 0.271182 -0.807812
C55   C     C_3   0.492915 0.747532 0.085946 -0.846965
C56   C     C_R   0.873828 0.627261 0.540093 -0.068282
C57   C     C_3   0.507084 0.252468 0.914054 -0.846967
C58   C     C_3   0.581683 0.619975 0.891879 -0.378221
C59   C     C_3   0.607968 0.698056 0.998953 -0.895891
C60   C     C_3   0.418317 0.380024 0.108121 -0.378222
C61   C     C_3   0.392031 0.301946 0.001046 -0.895887
C62   C     C_3   0.120365 0.134706 0.413171 -0.347119
C63   C     C_3   0.092670 0.082265 0.288479 -0.878374
C64   C     C_3   0.879635 0.865291 0.586827 -0.347120
C65   C     C_3   0.907330 0.917731 0.711520 -0.878374
C66   C     C_3   0.654969 0.383701 0.280761 -0.858940
C67   C     C_R   0.099371 0.260613 0.456319 0.173220
C68   C     C_3   0.345030 0.616302 0.719235 -0.858939
C69   C     C_R   0.900629 0.739384 0.543679 0.173220
C70   C     C_R   0.126479 0.601889 0.438493 -0.006210
Cu1   Cu    Cu3+1 0.500010 0.499990 0.643150 0.922682
Cu2   Cu    Cu3+1 0.499990 0.500010 0.356850 0.922683
H1    H     H_    0.352923 0.370573 0.319445 0.154274
H2    H     H_    0.251450 0.593230 0.653925 0.143180
H3    H     H_    0.879608 0.195796 0.591574 0.185825
H4    H     H_    0.120392 0.804201 0.408422 0.185825
H5    H     H_    0.964115 0.184720 0.570193 0.133127
H6    H     H_    0.035885 0.815276 0.429803 0.133127
H7    H     H_    0.031736 0.178363 0.488164 0.141785
H8    H     H_    0.968264 0.821634 0.511834 0.141785
H9    H     H_    0.575111 0.904884 0.599290 0.137140
H10   H     H_    0.424889 0.095115 0.400711 0.137141
H11   H     H_    0.418630 0.055709 0.808489 0.237709
H12   H     H_    0.647077 0.629422 0.680557 0.154274
H13   H     H_    0.382209 0.091977 0.651473 0.257871
H14   H     H_    0.362147 0.978417 0.783013 0.252444
H15   H     H_    0.394424 0.868401 0.580192 0.202774
H16   H     H_    0.432500 0.837437 0.735257 0.210455
H17   H     H_    0.617798 0.908031 0.348554 0.257866
H18   H     H_    0.581376 0.944272 0.191533 0.237708
H19   H     H_    0.637856 0.021584 0.216998 0.252442
H20   H     H_    0.567499 0.162557 0.264736 0.210451
H21   H     H_    0.605574 0.131611 0.419809 0.202770
H22   H     H_    0.491349 0.811390 0.990507 0.205866
H23   H     H_    0.510128 0.052350 0.747478 0.147215
H24   H     H_    0.459037 0.759247 0.144348 0.236874
H25   H     H_    0.524443 0.771905 0.151388 0.248749
H26   H     H_    0.508651 0.188610 0.009493 0.205864
H27   H     H_    0.475557 0.228095 0.848612 0.248752
H28   H     H_    0.540963 0.240752 0.855652 0.236874
H29   H     H_    0.590169 0.791795 0.004050 0.252449
H30   H     H_    0.608808 0.650253 0.104954 0.269619
H31   H     H_    0.645586 0.712914 0.965304 0.253261
H32   H     H_    0.606322 0.542822 0.862011 0.211484
H33   H     H_    0.572040 0.681423 0.798102 0.229288
H34   H     H_    0.489872 0.947650 0.252523 0.147215
H35   H     H_    0.391191 0.349751 0.895046 0.269619
H36   H     H_    0.409830 0.208207 0.995946 0.252451
H37   H     H_    0.354414 0.287088 0.034695 0.253260
H38   H     H_    0.427960 0.318576 0.201897 0.229287
H39   H     H_    0.393678 0.457178 0.137991 0.211485
H40   H     H_    0.056655 0.048930 0.319915 0.241246
H41   H     H_    0.088433 0.155200 0.201781 0.268982
H42   H     H_    0.112939 0.000755 0.248437 0.253892
H43   H     H_    0.157769 0.141988 0.376993 0.259176
H44   H     H_    0.119887 0.065644 0.504081 0.209091
H45   H     H_    0.429946 0.605197 0.893988 0.135492
H46   H     H_    0.911567 0.844797 0.798218 0.268982
H47   H     H_    0.943346 0.951066 0.680084 0.241246
H48   H     H_    0.887062 0.999242 0.751561 0.253892
H49   H     H_    0.880113 0.934353 0.495918 0.209091
H50   H     H_    0.842231 0.858008 0.623005 0.259176
H51   H     H_    0.682626 0.325701 0.229275 0.231267
H52   H     H_    0.625804 0.320766 0.314179 0.228201
H53   H     H_    0.641038 0.455666 0.202137 0.239664
H54   H     H_    0.317373 0.674303 0.770719 0.231268
H55   H     H_    0.358961 0.544340 0.797860 0.239663
H56   H     H_    0.570054 0.394803 0.106011 0.135492
H57   H     H_    0.374196 0.679238 0.685814 0.228199
H58   H     H_    0.265393 0.370151 0.292121 0.149729
H59   H     H_    0.734607 0.629843 0.707880 0.149728
H60   H     H_    0.748550 0.406770 0.346072 0.143179
N1    N     N_R   0.201148 0.484922 0.454380 -0.455350
N2    N     N_R   0.798852 0.515075 0.545619 -0.455351
N3    N     N_3   0.500040 0.499970 0.858290 -0.199699
N4    N     N_3   0.499960 0.500030 0.141710 -0.199699
O1    O     O_R   0.500020 0.316850 0.620870 -0.570874
O2    O     O_2   0.797562 0.731231 0.489430 -0.557412
O3    O     O_2   0.798588 0.296256 0.591688 -0.546453
O4    O     O_2   0.201412 0.703740 0.408309 -0.546453
O5    O     O_R   0.499980 0.683150 0.379130 -0.570873
O6    O     O_R   0.500000 0.316860 0.379090 -0.597052
O7    O     O_R   0.500000 0.683140 0.620910 -0.597053
O8    O     O_R   0.430270 0.500020 0.620880 -0.569530
O9    O     O_R   0.569730 0.499980 0.379120 -0.569530
O10   O     O_R   0.430250 0.500030 0.379090 -0.593599
O11   O     O_R   0.569750 0.499970 0.620910 -0.593600
O12   O     O_2   0.202438 0.268766 0.510569 -0.557412

loop_
_geom_bond_atom_site_label_1
_geom_bond_atom_site_label_2
_ccdc_geom_bond_type
Cu1   O11   S    
C38   C70   A    
C3    C42   A    
C34   C56   A    
C33   C58   S    
C23   C45   A    
C24   C27   S    
C61   H37   S    
C36   N1    A    
C47   C49   A    
C4    C46   A    
C53   C54   S    
Cu2   O6    S    
C30   C35   S    
C52   H13   S    
C17   O11   A    
C24   C26   S    
C54   H18   S    
Cu1   N3    S    
C11   C14   A    
C64   H50   S    
Cu2   N4    S    
Cu2   O9    S    
C57   H27   S    
C30   C57   S    
C29   C33   S    
C12   O5    A    
C16   O10   A    
C38   N1    A    
C63   H40   S    
C61   H36   S    
C24   H10   S    
C31   H45   S    
C21   C25   S    
C1    O6    A    
C11   H5    S    
C37   C56   A    
C2    C39   A    
C36   O12   S    
C18   H7    S    
C22   C25   S    
C45   C67   A    
C65   H46   S    
C48   H59   S    
C21   H34   S    
C44   C47   A    
C2    C34   A    
C40   C42   A    
C15   H4    S    
C22   C28   S    
C42   C68   S    
C41   C43   A    
C23   C70   A    
C44   H1    S    
C55   H22   S    
C2    C14   A    
C27   C51   S    
C39   O3    S    
Cu2   O5    S    
C46   C48   A    
C3    C44   A    
C47   H58   S    
C53   H21   S    
C51   C52   S    
C59   H29   S    
C22   H9    S    
C54   H17   S    
Cu1   O1    S    
C50   N2    S    
C51   H15   S    
C32   N4    S    
C29   C55   S    
C58   C59   S    
C57   H28   S    
C8    C18   A    
C35   C60   S    
C35   N4    S    
C52   H11   S    
C17   O9    A    
C5    C9    A    
C62   C63   S    
C41   H60   S    
C33   N3    S    
C55   H25   S    
C53   H20   S    
C65   H47   S    
C36   C45   A    
C64   C69   S    
C68   H55   S    
C46   H12   S    
C4    C17   S    
C62   C67   S    
C31   N3    S    
C4    C43   A    
C20   H23   S    
C20   C22   S    
C30   N3    S    
C7    C19   A    
C37   O2    S    
C13   C15   A    
C9    C34   A    
C66   H52   S    
C19   C69   A    
C58   H32   S    
C63   H42   S    
C68   H54   S    
C41   C50   A    
C1    O1    A    
Cu1   O7    S    
C7    C9    A    
C15   C70   A    
C49   N1    S    
C13   H6    S    
C16   O8    A    
C37   N2    A    
C59   H30   S    
C21   C28   S    
C55   H24   S    
C51   H16   S    
C6    C10   A    
C5    C8    A    
C28   C53   S    
C66   H53   S    
C5    C11   A    
C6    C7    A    
C20   C27   S    
C10   C23   A    
C25   C27   S    
C26   C28   S    
C12   O7    A    
C12   C25   S    
C58   H33   S    
C59   H31   S    
C32   C33   S    
C32   H56   S    
C52   H14   S    
C18   C67   A    
C62   H43   S    
C29   C31   S    
C60   H39   S    
C64   C65   S    
C6    C13   A    
C30   C32   S    
C40   C49   A    
C1    C26   S    
C20   C26   S    
C43   C66   S    
Cu2   O10   S    
C57   H26   S    
C48   C50   A    
C65   H48   S    
C40   H2    S    
C31   C35   S    
C19   H8    S    
C61   H35   S    
C60   H38   S    
C62   H44   S    
C63   H41   S    
C54   H19   S    
C29   N4    S    
Cu1   Cu2   S    
C68   H57   S    
C8    C10   A    
C56   C69   A    
C21   C24   S    
C38   O4    S    
C66   H51   S    
C60   C61   S    
C3    C16   S    
C64   H49   S    
C14   H3    S    
Cu1   O8    S    
C39   N2    A    
