data_mof_unit_3537.cif
_audit_creation_date              2012-12-10T17:19:24-0500
_audit_creation_method            fapswitch 2.2
_symmetry_space_group_name_H-M    P1
_symmetry_Int_Tables_number       1
_space_group_crystal_system       triclinic
_cell_length_a                    14.993334
_cell_length_b                    10.759909
_cell_length_c                    9.64001
_cell_angle_alpha                 90.839108
_cell_angle_beta                  89.210227
_cell_angle_gamma                 92.372855
_cell_volume                      1553.55773654

loop_
_atom_site_label
_atom_site_type_symbol
_atom_type_description
_atom_site_fract_x
_atom_site_fract_y
_atom_site_fract_z
_atom_type_partial_charge
C1    C     C_R   0.494244 0.262723 0.499322 0.774955
C2    C     C_R   0.909734 0.612307 0.498736 0.086210
C3    C     C_R   0.949405 0.271519 0.508403 -0.199990
C4    C     C_R   0.042148 0.272857 0.510401 -0.239563
C5    C     C_R   0.091492 0.385802 0.507506 0.140396
C6    C     C_R   0.047349 0.499280 0.504760 0.065840
C7    C     C_R   0.097219 0.613437 0.504215 0.076552
C8    C     C_R   0.053498 0.725714 0.503999 -0.291920
C9    C     C_R   0.960169 0.726384 0.500712 0.262454
C10   C     C_R   0.184493 0.387248 0.507028 -0.262127
C11   C     C_R   0.233177 0.500436 0.503534 -0.038754
C12   C     C_R   0.329322 0.500509 0.500962 0.776290
C13   C     C_R   0.190334 0.613213 0.503252 -0.233699
C14   C     C_R   0.361644 0.123996 0.671590 -0.188727
C15   C     C_R   0.302079 0.056755 0.756948 -0.149285
C16   C     C_R   0.303106 0.927661 0.758838 -0.142051
C17   C     C_R   0.363665 0.864962 0.675333 -0.189841
C18   C     C_R   0.425901 0.931194 0.589589 0.089239
C19   C     C_R   0.424978 0.062678 0.587952 0.101926
C20   C     C_R   0.484737 0.128305 0.497429 -0.102856
C21   C     C_R   0.537356 0.064792 0.402129 -0.205633
C22   C     C_R   0.539605 0.937206 0.405229 -0.211440
C23   C     C_R   0.495395 0.736828 0.500758 0.784045
C24   C     C_R   0.486912 0.870240 0.500970 -0.100599
C25   C     C_R   0.635784 0.631524 0.145262 -0.207549
C26   C     C_R   0.717130 0.657453 0.080612 -0.259749
C27   C     C_R   0.724842 0.644933 0.937576 0.221617
C28   C     C_R   0.644563 0.628586 0.862684 0.225382
C29   C     C_R   0.569445 0.563144 0.926413 0.135476
C30   C     C_R   0.567518 0.563944 0.075286 0.167027
C31   C     C_R   0.435577 0.438359 0.073929 -0.050168
C32   C     C_R   0.435283 0.438985 0.926406 -0.059204
C33   C     C_R   0.670826 0.499357 0.499064 0.793547
C34   C     C_R   0.816454 0.609391 0.496172 -0.324770
C35   C     C_R   0.767414 0.496360 0.497206 -0.114910
C36   C     C_R   0.810351 0.382418 0.496590 0.211450
C37   C     C_R   0.904088 0.383354 0.501942 0.098916
C38   C     C_R   0.953611 0.498408 0.501965 -0.049445
Cu1   Cu    Cu3+1 0.499990 0.499990 0.640660 0.944190
Cu2   Cu    Cu3+1 0.500010 0.500010 0.359340 0.935673
H1    H     H_    0.781007 0.695063 0.494493 0.162095
H2    H     H_    0.355289 0.223567 0.669029 0.140475
H3    H     H_    0.359044 0.764609 0.676486 0.157923
H4    H     H_    0.584205 0.890628 0.333950 0.146082
H5    H     H_    0.382793 0.387195 0.128763 0.138012
H6    H     H_    0.075314 0.185349 0.513988 0.145209
H7    H     H_    0.219203 0.300755 0.508388 0.122706
H8    H     H_    0.229587 0.700178 0.501502 0.127945
N1    N     N_R   0.500860 0.501210 0.147910 -0.184805
N2    N     N_R   0.500890 0.501290 0.852040 -0.182881
O1    O     O_R   0.499990 0.319640 0.618810 -0.582361
O2    O     O_R   0.500000 0.319660 0.381240 -0.575048
O3    O     O_R   0.370250 0.499960 0.618800 -0.597886
O4    O     O_R   0.370260 0.499980 0.381230 -0.575671
O5    O     O_R   0.500000 0.680340 0.618760 -0.543540
O6    O     O_R   0.500010 0.680360 0.381190 -0.598645
O7    O     O_R   0.629740 0.500020 0.618770 -0.577989
O8    O     O_R   0.629750 0.500040 0.381200 -0.583644
H9    H     H_    0.253837 0.104960 0.820049 0.132639
H10   H     H_    0.255692 0.875656 0.823490 0.138536
H11   H     H_    0.629127 0.665487 0.249203 0.206732
H12   H     H_    0.772103 0.696539 0.140740 0.166265
N3    N     N_2   0.807538 0.680676 0.871105 -0.425153
H13   H     H_    0.805251 0.692720 0.765763 0.258955
C39   C     C_3   0.882910 0.608873 0.908578 -0.667266
H14   H     H_    0.943689 0.644498 0.852442 0.226174
H15   H     H_    0.870431 0.509503 0.879035 0.227204
H16   H     H_    0.895762 0.616954 0.021499 0.232608
N4    N     N_2   0.630232 0.720157 0.762177 -0.371814
H17   H     H_    0.677356 0.727866 0.683935 0.230704
C40   C     C_3   0.607148 0.840118 0.819634 -0.652225
H18   H     H_    0.596188 0.905701 0.734439 0.228290
H19   H     H_    0.662141 0.880057 0.884700 0.218730
H20   H     H_    0.544815 0.830683 0.882983 0.235076
N5    N     N_2   0.760254 0.267062 0.487385 -0.442603
H21   H     H_    0.699158 0.264849 0.537853 0.255539
C41   C     C_3   0.755898 0.214340 0.348559 -0.723069
H22   H     H_    0.709742 0.267094 0.284667 0.244241
H23   H     H_    0.731752 0.115726 0.353987 0.222421
H24   H     H_    0.822863 0.216248 0.297633 0.236520
H25   H     H_    0.382228 0.388564 0.872003 0.131229
H26   H     H_    0.913547 0.182188 0.511973 0.183710
H27   H     H_    0.091875 0.813392 0.504891 0.149631
N6    N     N_2   0.917650 0.842267 0.501980 -0.437240
H28   H     H_    0.949269 0.909375 0.563517 0.251103
C42   C     C_3   0.899681 0.888370 0.365470 -0.718467
H29   H     H_    0.862299 0.974949 0.375567 0.231095
H30   H     H_    0.858504 0.818991 0.305575 0.231828
H31   H     H_    0.963284 0.909350 0.308269 0.229842
H32   H     H_    0.578723 0.114600 0.326966 0.161881

loop_
_geom_bond_atom_site_label_1
_geom_bond_atom_site_label_2
_ccdc_geom_bond_type
Cu1   O1    S    
C21   H32   S    
N3    C39   S    
C33   O8    A    
C8    H27   S    
C19   C20   A    
C7    C8    A    
C4    H6    S    
C41   H22   S    
C32   H25   S    
C26   C27   A    
C29   C30   A    
C18   C24   A    
C36   C37   A    
N6    C42   S    
C18   C19   A    
C5    C6    A    
C42   H30   S    
Cu2   N1    S    
Cu1   O7    S    
C34   C35   A    
C16   H10   S    
N4    C40   S    
C22   H4    S    
C28   N4    S    
C8    C9    A    
Cu2   O6    S    
C23   C24   S    
C6    C38   A    
C12   O3    A    
C14   H2    S    
C2    C34   A    
C21   C22   A    
C34   H1    S    
C31   N1    A    
C29   N2    A    
C41   H23   S    
Cu1   O5    S    
Cu2   O8    S    
C23   O6    A    
N6    H28   S    
Cu1   Cu2   S    
C40   H19   S    
C42   H29   S    
C16   C17   A    
C39   H15   S    
C25   C26   A    
Cu2   O2    S    
C35   C36   A    
N5    H21   S    
C17   H3    S    
C37   C38   A    
C36   N5    S    
C13   H8    S    
N5    C41   S    
C2    C38   A    
C31   C32   A    
C39   H16   S    
C3    H26   S    
C17   C18   A    
C25   H11   S    
C1    O1    A    
C32   N2    A    
C27   N3    S    
C30   N1    A    
Cu2   O4    S    
C22   C24   A    
C3    C4    A    
C27   C28   A    
C41   H24   S    
C25   C30   A    
C28   C29   A    
C1    C20   S    
C33   O7    A    
C15   H9    S    
C14   C19   A    
C4    C5    A    
C42   H31   S    
C40   H20   S    
C11   C12   S    
C23   O5    A    
C6    C7    A    
C26   H12   S    
C5    C10   A    
C11   C13   A    
Cu1   O3    S    
C33   C35   S    
N4    H17   S    
C1    O2    A    
C10   C11   A    
C9    N6    S    
N3    H13   S    
C7    C13   A    
Cu1   N2    S    
C40   H18   S    
C20   C21   A    
C3    C37   A    
C39   H14   S    
C31   H5    S    
C10   H7    S    
C14   C15   A    
C2    C9    A    
C12   O4    A    
C15   C16   A    
