data_mof_unit_1674.cif
_audit_creation_date              2012-12-10T17:57:52-0500
_audit_creation_method            fapswitch 2.2
_symmetry_space_group_name_H-M    P1
_symmetry_Int_Tables_number       1
_space_group_crystal_system       triclinic
_cell_length_a                    10.812679
_cell_length_b                    9.520613
_cell_length_c                    15.031545
_cell_angle_alpha                 90.546249
_cell_angle_beta                  90.351653
_cell_angle_gamma                 89.868173
_cell_volume                      1547.2939737

loop_
_atom_site_label
_atom_site_type_symbol
_atom_type_description
_atom_site_fract_x
_atom_site_fract_y
_atom_site_fract_z
_atom_type_partial_charge
C1    C     C_R   0.262077 0.500054 0.499356 0.798623
C2    C     C_R   0.737891 0.499850 0.498971 0.783419
C3    C     C_R   0.290821 0.392468 0.040289 0.425893
C4    C     C_R   0.686351 0.648106 0.959032 0.437390
C5    C     C_R   0.064239 0.373318 0.508139 -0.195577
C6    C     C_R   0.935665 0.625718 0.485396 -0.203927
C7    C     C_R   0.936401 0.373177 0.507903 -0.197087
C8    C     C_R   0.063542 0.625983 0.486145 -0.183105
C9    C     C_R   0.871697 0.499508 0.497132 -0.009170
C10   C     C_R   0.128228 0.499870 0.497916 -0.004311
C11   C     C_R   0.409090 0.073898 0.457153 -0.045981
C12   C     C_R   0.589966 0.926022 0.544205 -0.018138
C13   C     C_R   0.590155 0.074819 0.543991 -0.021747
C14   C     C_R   0.409540 0.925218 0.456448 -0.024197
C15   C     C_R   0.496657 0.499346 0.328817 0.863313
C16   C     C_R   0.501307 0.500707 0.671034 0.843417
C17   C     C_R   0.599155 0.569113 0.814491 0.387735
C18   C     C_R   0.398105 0.430781 0.184728 0.373440
C19   C     C_R   0.502490 0.502783 0.767368 -0.171704
C20   C     C_R   0.493820 0.498691 0.232184 -0.165409
C21   C     C_R   0.404075 0.441314 0.811620 -0.287212
C22   C     C_R   0.586716 0.570681 0.187907 -0.293339
C23   C     C_R   0.399140 0.445919 0.903946 0.079231
C24   C     C_R   0.587960 0.573983 0.095511 0.083711
C25   C     C_R   0.495275 0.510907 0.952905 -0.041401
C26   C     C_R   0.491890 0.509254 0.046491 -0.034417
C27   C     C_R   0.594803 0.576657 0.908351 -0.078872
C28   C     C_R   0.392621 0.443016 0.090981 -0.089177
C29   C     C_R   0.297379 0.389445 0.947606 -0.298253
C30   C     C_R   0.683445 0.643141 0.051830 -0.317169
Cu1   Cu    Cu3+1 0.500000 0.640660 0.500000 0.956661
Cu2   Cu    Cu3+1 0.500000 0.359340 0.500000 0.941300
H1    H     H_    0.329950 0.392170 0.773628 0.153295
H2    H     H_    0.659607 0.622167 0.225898 0.154454
H3    H     H_    0.221230 0.344447 0.909780 0.155531
H4    H     H_    0.756398 0.694370 0.089738 0.149841
H5    H     H_    0.112683 0.274697 0.517147 0.145499
H6    H     H_    0.887138 0.724290 0.476431 0.146955
H7    H     H_    0.888533 0.274581 0.517040 0.143143
H8    H     H_    0.111471 0.724656 0.477465 0.143297
N1    N     N_R   0.500000 0.852070 0.500000 -0.158966
N2    N     N_R   0.500000 0.147930 0.500000 -0.156966
O1    O     O_R   0.319640 0.618740 0.499990 -0.596964
O2    O     O_R   0.680360 0.381260 0.500010 -0.599574
O3    O     O_R   0.680360 0.618740 0.500010 -0.590194
O4    O     O_R   0.319640 0.381260 0.499990 -0.589962
O5    O     O_R   0.499970 0.618800 0.370260 -0.584649
O6    O     O_R   0.500030 0.381200 0.629740 -0.592345
O7    O     O_R   0.500030 0.618800 0.629740 -0.549761
O8    O     O_R   0.499970 0.381200 0.370260 -0.578518
O9    O     O_3   0.696162 0.628326 0.768389 -0.555235
C31   C     C_3   0.786516 0.523733 0.752108 0.111983
H9    H     H_    0.755281 0.452427 0.697467 0.113486
H10   H     H_    0.806941 0.460099 0.812456 0.135749
C32   C     C_3   0.906236 0.593737 0.724059 -0.755784
H11   H     H_    0.946766 0.653347 0.780930 0.262850
H12   H     H_    0.973785 0.512831 0.701890 0.197186
H13   H     H_    0.887994 0.667300 0.668668 0.245270
O10   O     O_3   0.306268 0.361883 0.230943 -0.561192
C33   C     C_3   0.329494 0.215537 0.227822 0.150566
H14   H     H_    0.406813 0.188505 0.273508 0.137680
H15   H     H_    0.353960 0.177090 0.159861 0.139719
C34   C     C_3   0.213837 0.137584 0.256680 -0.791090
H16   H     H_    0.140410 0.147064 0.205172 0.274937
H17   H     H_    0.235549 0.024555 0.265848 0.178873
H18   H     H_    0.178515 0.182138 0.320186 0.238468
O11   O     O_3   0.185097 0.342770 0.080356 -0.562287
C35   C     C_3   0.097056 0.452525 0.083526 0.116789
H19   H     H_    0.066742 0.481685 0.015165 0.135149
H20   H     H_    0.135207 0.547073 0.118325 0.147446
C36   C     C_3   0.984211 0.403814 0.134609 -0.774946
H21   H     H_    0.010834 0.377861 0.204032 0.262279
H22   H     H_    0.913538 0.488590 0.136146 0.198702
H23   H     H_    0.943679 0.309382 0.101849 0.238753
O12   O     O_3   0.782111 0.718716 0.918679 -0.557442
C37   C     C_3   0.753781 0.863615 0.918442 0.121361
H24   H     H_    0.755583 0.907385 0.987403 0.121043
H25   H     H_    0.661239 0.883640 0.887802 0.147513
C38   C     C_3   0.849961 0.940569 0.864003 -0.790234
H26   H     H_    0.847261 0.902642 0.793917 0.258947
H27   H     H_    0.830265 0.055108 0.865260 0.189029
H28   H     H_    0.943753 0.922120 0.892145 0.243288
H29   H     H_    0.335595 0.129549 0.423911 0.129919
H30   H     H_    0.661821 0.870445 0.579921 0.133038
H31   H     H_    0.662212 0.131083 0.579479 0.112181
H32   H     H_    0.337085 0.869104 0.421299 0.117948

loop_
_geom_bond_atom_site_label_1
_geom_bond_atom_site_label_2
_ccdc_geom_bond_type
C32   H11   S    
C34   H17   S    
C5    H5    S    
C37   C38   S    
C15   O5    A    
C17   O9    S    
C6    C9    A    
Cu1   O1    S    
C33   C34   S    
C23   C29   A    
C3    C28   A    
C19   C21   A    
C24   C26   A    
C16   C19   S    
C11   C14   A    
C1    O4    A    
C21   H1    S    
C12   H30   S    
C11   N2    A    
C33   H15   S    
C15   O8    A    
C3    C29   A    
C4    O12   S    
C1    O1    A    
C2    O2    A    
C35   H19   S    
C6    H6    S    
C31   C32   S    
C34   H18   S    
O10   C33   S    
Cu1   O5    S    
Cu2   O6    S    
C16   O6    A    
Cu1   O7    S    
C13   N2    A    
C31   H10   S    
C2    O3    A    
C15   C20   S    
C22   H2    S    
O11   C35   S    
C17   C27   A    
C18   C28   A    
C16   O7    A    
C14   H32   S    
C38   H27   S    
C6    C8    A    
C11   H29   S    
C25   C26   A    
O9    C31   S    
C33   H14   S    
O12   C37   S    
C12   N1    A    
C36   H23   S    
Cu1   Cu2   S    
Cu2   O2    S    
C37   H24   S    
Cu2   O8    S    
C14   N1    A    
C35   H20   S    
C20   C22   A    
C32   H12   S    
C22   C24   A    
C38   H26   S    
C13   H31   S    
C4    C27   A    
C31   H9    S    
C5    C7    A    
C7    C9    A    
Cu2   N2    S    
Cu1   N1    S    
Cu2   O4    S    
C3    O11   S    
C1    C10   S    
C37   H25   S    
C38   H28   S    
C25   C27   A    
C29   H3    S    
C26   C28   A    
C30   H4    S    
C21   C23   A    
C5    C10   A    
C35   C36   S    
C17   C19   A    
C18   C20   A    
C23   C25   A    
C24   C30   A    
C34   H16   S    
C18   O10   S    
C36   H21   S    
C12   C13   A    
C8    C10   A    
Cu1   O3    S    
C32   H13   S    
C36   H22   S    
C7    H7    S    
C8    H8    S    
C2    C9    S    
C4    C30   A    
