data_mof_unit_367.cif
_audit_creation_date              2012-10-26T18:54:56-0400
_audit_creation_method            fapswitch 2.2
_symmetry_space_group_name_H-M    P1
_symmetry_Int_Tables_number       1
_space_group_crystal_system       triclinic
_cell_length_a                    10.851595
_cell_length_b                    9.525767
_cell_length_c                    10.86276
_cell_angle_alpha                 89.33531
_cell_angle_beta                  90.367548
_cell_angle_gamma                 89.919103
_cell_volume                      1122.78105165

loop_
_atom_site_label
_atom_site_type_symbol
_atom_type_description
_atom_site_fract_x
_atom_site_fract_y
_atom_site_fract_z
_atom_type_partial_charge
C1    C     C_R   0.262117 0.499827 0.501019 0.561640
C2    C     C_R   0.539143 0.611025 0.936361 -0.005539
C3    C     C_R   0.493422 0.500613 0.129810 -0.005799
C4    C     C_R   0.501364 0.495883 0.869703 -0.007629
C5    C     C_R   0.456760 0.379223 0.065588 -0.155205
C6    C     C_R   0.459211 0.377484 0.936228 -0.146990
C7    C     C_3   0.601923 0.749847 0.924484 0.357473
C8    C     C_3   0.582898 0.761593 0.065978 0.367672
C9    C     C_R   0.064023 0.371850 0.516477 0.415551
C10   C     C_R   0.936758 0.371703 0.515780 0.414913
C11   C     C_R   0.871801 0.498785 0.502660 -0.048105
C12   C     C_R   0.737922 0.499693 0.500969 0.571831
C13   C     C_R   0.128311 0.498997 0.502986 -0.046367
C14   C     C_R   0.936001 0.625735 0.491010 -0.209751
C15   C     C_R   0.063551 0.625822 0.490982 -0.214104
C16   C     C_3   0.737323 0.742722 0.879846 -0.164882
C17   C     C_3   0.810041 0.609891 0.918378 -0.317039
C18   C     C_3   0.943178 0.618137 0.874326 -0.436304
C19   C     C_3   0.491203 0.877465 0.105188 -0.155888
C20   C     C_3   0.355081 0.848464 0.071436 -0.329178
C21   C     C_3   0.274832 0.978398 0.086845 -0.424455
C22   C     C_R   0.413898 0.075308 0.433997 0.456004
C23   C     C_R   0.584728 0.073119 0.567745 0.495644
C24   C     C_R   0.413031 0.926552 0.435268 0.006920
C25   C     C_R   0.585830 0.924624 0.565943 0.089351
C26   C     C_R   0.497893 0.500660 0.262554 0.561252
C27   C     C_R   0.501977 0.498973 0.737274 0.543755
C28   C     C_R   0.529632 0.616417 0.060272 -0.004771
Cu1   Cu    Cu3+1 0.500000 0.640660 0.500000 0.994015
Cu2   Cu    Cu3+1 0.500000 0.359340 0.500000 1.179285
F1    F     F_    0.533085 0.844976 0.855158 -0.658615
F2    F     F_    0.691453 0.765363 0.133691 -0.655991
F3    F     F_    0.123341 0.247017 0.531032 -0.540773
F4    F     F_    0.878200 0.246566 0.528212 -0.530103
F5    F     F_    0.327821 0.146098 0.367234 -0.607167
F6    F     F_    0.667685 0.141029 0.639077 -0.556340
H1    H     H_    0.426190 0.286178 0.114781 0.164626
H2    H     H_    0.810499 0.595820 0.019856 0.231414
H3    H     H_    0.766867 0.515770 0.876883 0.167760
H4    H     H_    0.736589 0.747465 0.777881 0.150526
H5    H     H_    0.786369 0.837695 0.912715 0.194480
H6    H     H_    0.275066 0.011042 0.184206 0.217084
H7    H     H_    0.308771 0.065942 0.027815 0.169247
H8    H     H_    0.178537 0.954013 0.059389 0.168020
H9    H     H_    0.346026 0.814124 0.974585 0.227343
H10   H     H_    0.318985 0.763054 0.131722 0.151012
H11   H     H_    0.498533 0.889629 0.206200 0.160607
H12   H     H_    0.428574 0.284155 0.889002 0.165536
H13   H     H_    0.521183 0.978641 0.063078 0.183444
H14   H     H_    0.887904 0.724992 0.481069 0.191611
H15   H     H_    0.111205 0.725091 0.480761 0.184035
H16   H     H_    0.343575 0.871209 0.383070 0.134868
H17   H     H_    0.655151 0.868064 0.617817 0.154608
H18   H     H_    0.945944 0.628625 0.772431 0.163201
H19   H     H_    0.990650 0.709333 0.916177 0.171211
H20   H     H_    0.993117 0.520823 0.901951 0.167337
N1    N     N_R   0.500000 0.852070 0.500000 -0.304872
N2    N     N_R   0.500000 0.147940 0.500000 -0.226382
O1    O     O_R   0.319640 0.618740 0.499990 -0.536644
O2    O     O_R   0.680360 0.618740 0.500010 -0.530787
O3    O     O_R   0.319620 0.381170 0.499990 -0.385846
O4    O     O_R   0.680380 0.381170 0.500010 -0.394867
O5    O     O_R   0.499990 0.618810 0.319660 -0.497853
O6    O     O_R   0.500010 0.618810 0.680340 -0.471035
O7    O     O_R   0.499960 0.381240 0.319650 -0.485754
O8    O     O_R   0.500040 0.381240 0.680350 -0.478240

loop_
_geom_bond_atom_site_label_1
_geom_bond_atom_site_label_2
_ccdc_geom_bond_type
C22   N2    A    
C23   N2    A    
C2    C4    A    
C26   O5    A    
Cu1   O5    S    
C24   H16   S    
Cu1   Cu2   S    
C15   H15   S    
C21   H8    S    
C12   O4    A    
C9    C10   A    
C19   H13   S    
C19   C20   S    
Cu1   O2    S    
C18   H20   S    
C11   C12   S    
C4    C27   S    
C1    O1    A    
C17   C18   S    
Cu1   O6    S    
C7    C8    S    
C10   F4    S    
C27   O8    A    
C14   H14   S    
C9    F3    S    
C22   F5    S    
Cu2   O8    S    
C25   N1    A    
C18   H19   S    
C16   H4    S    
Cu2   N2    S    
C12   O2    A    
C7    C16   S    
C24   N1    A    
Cu1   N1    S    
C19   H11   S    
C17   H2    S    
C13   C15   A    
Cu2   O4    S    
C5    C6    A    
C8    C28   S    
C11   C14   A    
C22   C24   A    
C8    C19   S    
C7    F1    S    
C10   C11   A    
C18   H18   S    
Cu2   O7    S    
C21   H6    S    
C8    F2    S    
Cu1   O1    S    
C23   C25   A    
C1    C13   S    
C20   C21   S    
C3    C28   A    
C4    C6    A    
C23   F6    S    
C17   H3    S    
Cu2   O3    S    
C6    H12   S    
C9    C13   A    
C14   C15   A    
C5    H1    S    
C2    C28   A    
C2    C7    S    
C3    C5    A    
C21   H7    S    
C26   O7    A    
C27   O6    A    
C3    C26   S    
C20   H10   S    
C20   H9    S    
C25   H17   S    
C16   C17   S    
C16   H5    S    
C1    O3    A    
