data_mof_unit_3850.cif
_audit_creation_date              2013-03-05T16:14:48-0500
_audit_creation_method            fapswitch 2.2
_symmetry_space_group_name_H-M    P1
_symmetry_Int_Tables_number       1
_space_group_crystal_system       triclinic
_cell_length_a                    9.516994
_cell_length_b                    10.637133
_cell_length_c                    17.226972
_cell_angle_alpha                 90.164852
_cell_angle_beta                  86.130985
_cell_angle_gamma                 90.381131
_cell_volume                      1739.92894923

loop_
_atom_site_label
_atom_site_type_symbol
_atom_site_description
_atom_site_fract_x
_atom_site_fract_y
_atom_site_fract_z
_atom_type_partial_charge
O1    O     O_R   0.379130 0.683150 0.499960 -0.580754
O2    O     O_R   0.620870 0.316850 0.500040 -0.581363
O3    O     O_R   0.620910 0.683140 0.500000 -0.526777
O4    O     O_R   0.379090 0.316860 0.500000 -0.529303
C1    C     C_R   0.500501 0.740023 0.499638 0.881517
C2    C     C_R   0.499429 0.260077 0.501140 0.880621
O5    O     O_R   0.365090 0.500030 0.613580 -0.544919
O6    O     O_R   0.634910 0.499970 0.386420 -0.559524
O7    O     O_R   0.606870 0.500020 0.613610 -0.551469
O8    O     O_R   0.393130 0.499980 0.386390 -0.528944
C3    C     C_R   0.481236 0.500084 0.649354 0.833390
C4    C     C_R   0.518891 0.500803 0.350292 0.852125
Cu1   Cu    Cu3+1 0.356850 0.500010 0.499980 1.098613
Cu2   Cu    Cu3+1 0.643150 0.499990 0.500020 1.079580
C5    C     C_R   0.469216 0.498601 0.733520 -0.091471
C6    C     C_R   0.532427 0.505977 0.265505 -0.093626
C7    C     C_R   0.527968 0.596235 0.774790 -0.089528
C8    C     C_R   0.431769 0.568534 0.225028 -0.035706
C9    C     C_R   0.521603 0.592509 0.855315 -0.123778
C10   C     C_R   0.446702 0.575850 0.144601 -0.151665
C11   C     C_R   0.456444 0.490725 0.895564 0.023461
C12   C     C_R   0.563043 0.521234 0.103201 0.025430
C13   C     C_R   0.391984 0.393549 0.854030 0.360000
C14   C     C_R   0.668344 0.461721 0.143773 0.377515
C15   C     C_R   0.398409 0.399491 0.772684 -0.120625
C16   C     C_R   0.650540 0.453445 0.224883 -0.177825
C17   C     C_2   0.453059 0.490084 0.980756 -0.125850
C18   C     C_2   0.567447 0.521352 0.017941 -0.135035
H1    H     H_    0.578269 0.675476 0.744693 0.217508
H2    H     H_    0.342031 0.612799 0.255478 0.230914
H3    H     H_    0.729325 0.405928 0.256412 0.222489
H4    H     H_    0.353043 0.324405 0.739618 0.217485
H5    H     H_    0.665228 0.543913 0.984848 0.218669
H6    H     H_    0.357377 0.459101 0.013371 0.211927
H7    H     H_    0.366674 0.624098 0.114409 0.188344
H8    H     H_    0.566974 0.669897 0.886339 0.185904
C19   C     C_3   0.445274 0.960652 0.437344 0.373444
C20   C     C_3   0.554667 0.039868 0.564622 0.363905
C21   C     C_3   0.577131 0.044539 0.437944 -0.256342
C22   C     C_3   0.422893 0.955694 0.564009 -0.265244
H9    H     H_    0.638104 0.082314 0.385828 0.206348
H10   H     H_    0.361942 0.917897 0.616121 0.207377
C23   C     C_3   0.498673 0.123560 0.502036 -0.143845
C24   C     C_3   0.501252 0.876707 0.499804 -0.145550
C25   C     C_3   0.365421 0.040578 0.499944 -0.168996
C26   C     C_3   0.634585 0.959725 0.502050 -0.171797
H11   H     H_    0.255443 0.073996 0.498127 0.228410
H12   H     H_    0.744426 0.925998 0.504086 0.225660
C27   C     C_3   0.947661 0.385816 0.501708 -0.259931
C28   C     C_3   0.052349 0.614280 0.498443 -0.239798
C29   C     C_3   0.042190 0.446256 0.560398 0.292209
C30   C     C_3   0.958033 0.553587 0.439508 0.316942
H13   H     H_    0.901103 0.289807 0.503723 0.215399
H14   H     H_    0.098852 0.710301 0.496559 0.208094
N1    N     N_3   0.141720 0.500030 0.499940 -0.278928
N2    N     N_3   0.858280 0.499970 0.500060 -0.282558
C31   C     C_3   0.055063 0.440963 0.440109 0.424184
C32   C     C_3   0.945028 0.558775 0.559948 0.329795
S1    S     S_3+6 0.115673 0.346831 0.358533 0.086065
O9    O     O_2   0.178034 0.428334 0.294036 -0.253281
O10   O     O_2   0.222845 0.253680 0.381571 -0.262441
O11   O     O_3   0.976508 0.268524 0.326792 -0.516572
H15   H     H_    0.014170 0.221839 0.280178 0.411849
S2    S     S_3+6 0.882512 0.645168 0.644515 0.101074
O12   O     O_2   0.003128 0.721327 0.672025 -0.208316
O13   O     O_2   0.767015 0.732826 0.625421 -0.266259
O14   O     O_3   0.824613 0.547563 0.716627 -0.458327
H16   H     H_    0.818544 0.463221 0.692611 0.368699
N3    N     N_R   0.324885 0.286933 0.892613 0.140929
O15   O     O_R   0.377173 0.237644 0.953326 -0.288205
O16   O     O_R   0.222128 0.228655 0.861244 -0.250754
N4    N     N_R   0.790087 0.405283 0.104166 0.149885
O17   O     O_R   0.863501 0.466555 0.050049 -0.302193
O18   O     O_R   0.841457 0.302255 0.130975 -0.281987
N5    N     N_R   0.384466 0.919625 0.366087 0.144390
O19   O     O_R   0.342514 0.002673 0.317640 -0.268022
O20   O     O_R   0.372559 0.800793 0.350073 -0.378718
N6    N     N_R   0.614946 0.081724 0.635936 0.144817
O21   O     O_R   0.659430 0.999122 0.683902 -0.263366
O22   O     O_R   0.621472 0.200588 0.653192 -0.368184
N7    N     N_R   0.093342 0.380001 0.626768 0.151857
O23   O     O_R   0.094195 0.434324 0.694439 -0.286955
O24   O     O_R   0.146633 0.268339 0.617253 -0.333825
N8    N     N_R   0.908055 0.619903 0.372864 0.162984
O25   O     O_R   0.932653 0.576313 0.302756 -0.283908
O26   O     O_R   0.844284 0.726975 0.383074 -0.327340

loop_
_geom_bond_atom_site_label_1
_geom_bond_atom_site_label_2
_geom_bond_distance
_ccdc_geom_bond_type
Cu2   N2    2.047439 S    
C7    H1    1.082644 S    
C13   N3    1.439846 S    
N5    O19   1.300091 A    
N7    O23   1.300117 A    
C21   H9    1.110361 S    
O5    C3    1.301358 A    
C28   H14   1.110134 S    
O1    C1    1.300035 A    
C9    C11   1.405314 A    
C14   C16   1.399076 A    
C9    H8    1.083323 S    
N6    O22   1.300059 A    
C5    C15   1.397863 A    
C27   C31   1.537583 S    
C30   N8    1.457648 S    
O4    Cu1   1.961058 S    
N3    O16   1.301539 A    
C10   H7    1.083600 S    
C3    C5    1.446834 S    
C4    C6    1.458779 S    
C27   C29   1.534997 S    
C28   C30   1.537782 S    
C8    H2    1.081534 S    
C29   N7    1.457825 S    
C29   N1    1.473857 S    
C15   H4    1.083876 S    
C22   H10   1.110289 S    
C11   C17   1.465807 S    
S1    O9    1.499362 D    
C12   C18   1.466530 S    
Cu1   Cu2   2.724762 S    
C32   S2    1.789820 S    
O2    C2    1.299482 A    
N7    O24   1.300213 A    
C24   C26   1.543697 S    
C25   H11   1.110078 S    
C17   H6    1.086985 S    
C6    C16   1.401944 A    
C22   C25   1.557640 S    
C26   H12   1.110276 S    
S1    O10   1.499983 D    
O14   H16   0.989845 S    
C28   C32   1.537511 S    
S2    O14   1.682923 S    
N8    O25   1.299430 A    
N4    O18   1.301489 A    
N6    O21   1.300148 A    
C21   C23   1.541064 S    
C20   N6    1.457798 S    
S2    O13   1.500004 D    
O7    Cu2   1.963962 S    
O11   H15   0.990520 S    
O7    C3    1.307448 A    
C22   C24   1.541790 S    
O6    C4    1.303636 A    
C29   C32   1.517680 S    
C23   C25   1.542645 S    
O3    Cu2   1.961057 S    
O8    C4    1.310999 A    
C21   C26   1.557655 S    
O4    C2    1.299668 A    
C1    C24   1.453896 S    
C10   C12   1.404178 A    
C18   H5    1.083883 S    
C2    C23   1.452247 S    
N1    C31   1.497119 S    
C12   C14   1.413886 A    
O1    Cu1   1.958186 S    
C19   C25   1.534948 S    
C14   N4    1.438261 S    
C5    C7    1.392253 A    
S1    O11   1.681488 S    
O6    Cu2   1.963834 S    
C16   H3    1.083635 S    
N8    O26   1.300030 A    
N4    O17   1.300614 A    
O3    C1    1.299819 A    
O8    Cu1   1.963960 S    
C27   N2    1.488640 S    
C28   N1    1.489265 S    
S2    O12   1.502462 D    
C19   C24   1.525822 S    
C11   C13   1.415386 A    
C20   C23   1.525874 S    
C19   C21   1.535539 S    
C20   C22   1.536666 S    
C27   H13   1.110227 S    
C7    C9    1.385103 A    
N2    C32   1.497196 S    
C8    C10   1.385573 A    
C13   C15   1.400132 A    
C19   N5    1.456582 S    
N3    O15   1.301268 A    
O2    Cu2   1.958186 S    
C20   C26   1.536183 S    
C31   S1    1.788963 S    
C30   C31   1.517929 S    
O5    Cu1   1.963834 S    
C6    C8    1.395708 A    
N5    O20   1.298860 A    
C17   C18   1.339468 D    
C30   N2    1.475545 S    
Cu1   N1    2.047439 S    
