data_mof_unit_1853.cif
_audit_creation_date              2013-03-05T15:54:52-0500
_audit_creation_method            fapswitch 2.2
_symmetry_space_group_name_H-M    P1
_symmetry_Int_Tables_number       1
_space_group_crystal_system       triclinic
_cell_length_a                    13.575322
_cell_length_b                    14.019016
_cell_length_c                    30.060323
_cell_angle_alpha                 97.532508
_cell_angle_beta                  90.238141
_cell_angle_gamma                 118.924985
_cell_volume                      4948.92566003

loop_
_atom_site_label
_atom_site_type_symbol
_atom_site_description
_atom_site_fract_x
_atom_site_fract_y
_atom_site_fract_z
_atom_type_partial_charge
O1    O     O_R   0.494060 0.188820 0.559230 -0.522513
O2    O     O_R   0.678470 0.153390 0.554100 -0.531375
C1    C     C_R   0.720286 0.098470 0.568964 0.798602
O3    O     O_R   0.697870 0.003940 0.549410 -0.513891
O4    O     O_R   0.480980 0.827230 0.535590 -0.496600
C2    C     C_R   0.383496 0.787503 0.551053 0.881458
O5    O     O_R   0.309390 0.811640 0.537920 -0.546846
O6    O     O_R   0.341810 0.023400 0.546180 -0.530114
C3    C     C_R   0.396631 0.119957 0.568600 0.795167
O7    O     O_R   0.493150 0.185870 0.461540 -0.503073
O8    O     O_R   0.677630 0.150660 0.463530 -0.552615
C4    C     C_R   0.720226 0.095626 0.442702 0.843313
O9    O     O_R   0.696960 0.000990 0.451710 -0.498454
O10   O     O_R   0.480140 0.824500 0.445020 -0.529175
C5    C     C_R   0.382206 0.784532 0.425001 0.794047
O11   O     O_R   0.308480 0.808690 0.440220 -0.521911
O12   O     O_R   0.340970 0.020670 0.455610 -0.538444
C6    C     C_R   0.394832 0.116102 0.443520 0.864487
Cr1   Cr    Cr6+3 0.583400 0.162540 0.509180 1.018687
Cr2   Cr    Cr6+3 0.584070 0.916690 0.495550 1.063349
Cr3   Cr    Cr6+3 0.332550 0.920810 0.495240 1.011536
O13   O     O_3   0.500010 0.000010 0.499990 -0.362040
H1    H     H_    0.121036 0.549149 0.877233 0.182894
H2    H     H_    0.148771 0.578333 0.799834 0.158967
H3    H     H_    0.194600 0.703708 0.595659 0.205196
C7    C     C_R   0.361358 0.722543 0.588621 -0.248132
C8    C     C_R   0.443939 0.700381 0.606233 0.385377
C9    C     C_R   0.429862 0.659392 0.647668 0.336355
C10   C     C_R   0.333049 0.640815 0.670747 -0.177447
C11   C     C_R   0.244474 0.648988 0.649977 0.441274
C12   C     C_R   0.260405 0.691097 0.609597 -0.157158
C13   C     C_R   0.220443 0.593803 0.821635 -0.195281
C14   C     C_R   0.205226 0.578026 0.866097 -0.184753
C15   C     C_R   0.402624 0.627045 0.878485 0.297837
C16   C     C_R   0.418890 0.645599 0.833196 0.331383
C17   C     C_R   0.325180 0.624406 0.804760 -0.057964
C18   C     C_1   0.331539 0.628196 0.757439 0.107321
C19   C     C_1   0.332574 0.631525 0.717767 0.051956
C20   C     C_R   0.294123 0.590226 0.894614 -0.200231
C21   C     C_3   0.258059 0.045083 0.712844 0.610960
C22   C     C_3   0.285836 0.241465 0.715173 -0.435294
C23   C     C_3   0.262757 0.242175 0.766074 0.551972
H4    H     H_    0.344193 0.326742 0.709163 0.237041
H5    H     H_    0.207399 0.216633 0.694038 0.183864
C24   C     C_1   0.296454 0.203029 0.876645 -0.095035
C25   C     C_3   0.336862 0.164844 0.699909 -0.225863
C26   C     C_3   0.254101 0.054873 0.766277 0.434632
C27   C     C_3   0.318408 0.181250 0.788072 -0.114554
C28   C     C_3   0.448493 0.237539 0.778646 0.508566
C29   C     C_3   0.457224 0.216962 0.725704 0.044687
C30   C     C_1   0.307354 0.190155 0.837048 0.158310
C31   C     C_1   0.345672 0.154949 0.650836 0.224309
C32   C     C_1   0.362863 0.141142 0.611966 -0.054328
H6    H     H_    0.484545 0.154731 0.718194 0.085737
C33   C     C_3   0.698858 0.128552 0.725802 0.058662
C34   C     C_3   0.905295 0.268775 0.722744 0.601769
C35   C     C_3   0.924821 0.276462 0.774886 -0.605148
H7    H     H_    0.713524 0.219495 0.792141 0.182025
H8    H     H_    0.677087 0.191186 0.717390 0.183646
H9    H     H_    0.915462 0.346028 0.792869 0.204574
H10   H     H_    0.012509 0.296597 0.784919 0.167315
C36   C     C_1   0.892022 0.200224 0.879809 -0.124836
C37   C     C_3   0.809963 0.148648 0.703104 -0.070702
C38   C     C_3   0.718717 0.144525 0.778319 0.186898
C39   C     C_3   0.839582 0.167550 0.791602 -0.050813
C40   C     C_3   0.860118 0.073059 0.767973 0.182287
C41   C     C_3   0.843150 0.059909 0.714829 0.570580
C42   C     C_1   0.861622 0.183546 0.840651 0.077936
C43   C     C_1   0.790125 0.140607 0.654192 0.154297
C44   C     C_1   0.765251 0.127471 0.614627 -0.061601
H11   H     H_    0.949460 0.098643 0.776597 0.151754
C45   C     C_3   0.275155 0.736570 0.269516 0.585576
C46   C     C_3   0.295455 0.565597 0.271313 0.180258
C47   C     C_3   0.278918 0.545073 0.218623 0.058193
H12   H     H_    0.199205 0.695016 0.198362 0.213883
H13   H     H_    0.210115 0.524615 0.284204 0.184415
H14   H     H_    0.316234 0.493404 0.204232 0.147930
C48   C     C_1   0.309349 0.607683 0.110694 -0.120312
C49   C     C_3   0.352459 0.692707 0.289169 -0.271785
C50   C     C_3   0.282442 0.727728 0.217128 -0.261342
C51   C     C_3   0.338496 0.657484 0.200155 -0.077195
C52   C     C_3   0.464566 0.719085 0.218607 0.144243
C53   C     C_3   0.475475 0.754198 0.271437 0.574423
C54   C     C_1   0.327610 0.635860 0.150691 0.084812
C55   C     C_1   0.358710 0.711630 0.338759 0.109773
C56   C     C_1   0.366722 0.737473 0.378850 -0.028037
H15   H     H_    0.333530 0.811453 0.207759 0.218810
H16   H     H_    0.495934 0.658655 0.211066 0.152465
H17   H     H_    0.163330 0.018994 0.159883 0.201884
C57   C     C_R   0.351690 0.139792 0.403021 -0.287118
C58   C     C_R   0.419252 0.239896 0.386440 0.247455
C59   C     C_R   0.402283 0.246778 0.340791 0.304899
C60   C     C_R   0.311210 0.158646 0.313887 -0.164381
C61   C     C_R   0.232358 0.066116 0.332220 0.315895
C62   C     C_R   0.251254 0.057792 0.377262 0.230687
C63   C     C_R   0.230804 0.091322 0.148646 -0.174650
C64   C     C_R   0.231479 0.103897 0.103168 0.343464
C65   C     C_R   0.411316 0.275216 0.120286 0.320315
C66   C     C_R   0.407681 0.261142 0.165422 -0.087350
C67   C     C_R   0.315833 0.172039 0.179755 -0.069948
C68   C     C_1   0.309633 0.163826 0.226638 0.094009
C69   C     C_1   0.307372 0.160032 0.266267 0.239405
C70   C     C_R   0.316679 0.202523 0.089389 -0.282558
H18   H     H_    0.476636 0.320733 0.189459 0.189385
H19   H     H_    0.932591 0.385726 0.108527 0.186133
H20   H     H_    0.805474 0.316945 0.332958 0.166579
H21   H     H_    0.753828 0.276626 0.408080 0.185341
C71   C     C_R   0.779867 0.134250 0.402277 -0.101081
C72   C     C_R   0.820428 0.072582 0.375030 0.298178
C73   C     C_R   0.843606 0.092596 0.330099 0.363133
C74   C     C_R   0.836628 0.180316 0.315418 0.045669
C75   C     C_R   0.810780 0.249381 0.344525 -0.183367
C76   C     C_R   0.781702 0.226153 0.387486 -0.208088
C77   C     C_R   0.877188 0.301134 0.165281 0.358650
C78   C     C_R   0.902416 0.307333 0.120484 -0.156263
C79   C     C_R   0.857106 0.115669 0.108450 -0.228047
C80   C     C_R   0.832038 0.107626 0.153428 0.407899
C81   C     C_R   0.847102 0.201805 0.182215 -0.058679
C82   C     C_1   0.843511 0.197743 0.229513 0.081313
C83   C     C_1   0.842057 0.191766 0.268882 0.132036
C84   C     C_R   0.897908 0.216741 0.092493 -0.180822
H22   H     H_    0.851689 0.044842 0.086816 0.185364
O14   O     O_R   0.969690 0.151000 0.934080 -0.531937
O15   O     O_R   0.187530 0.180840 0.938210 -0.537530
C85   C     C_R   0.283505 0.233160 0.922475 0.806839
O16   O     O_R   0.358160 0.327300 0.941250 -0.502433
O17   O     O_R   0.323950 0.507710 0.953980 -0.500259
C86   C     C_R   0.265286 0.546010 0.937583 0.854271
O18   O     O_R   0.170530 0.527770 0.952070 -0.546550
O19   O     O_R   0.987720 0.318450 0.945940 -0.536202
C87   C     C_R   0.944333 0.221395 0.923835 0.798633
O20   O     O_R   0.976400 0.159230 0.032040 -0.523103
O21   O     O_R   0.193740 0.188470 0.029020 -0.501034
C88   C     C_R   0.293304 0.241308 0.048807 0.824394
O22   O     O_R   0.364860 0.335530 0.039220 -0.536996
O23   O     O_R   0.330170 0.515340 0.044800 -0.522489
C89   C     C_R   0.275099 0.558421 0.064812 0.808605
O24   O     O_R   0.177230 0.536000 0.050040 -0.536854
O25   O     O_R   0.993930 0.326080 0.036750 -0.543621
C90   C     C_R   0.953750 0.232636 0.050181 0.822749
Cr4   Cr    Cr6+3 0.086700 0.177000 0.983690 1.052845
Cr5   Cr    Cr6+3 0.336880 0.419130 0.994740 1.073039
Cr6   Cr    Cr6+3 0.084850 0.422220 0.995960 0.985015
O26   O     O_3   0.169480 0.339450 0.991460 -0.370256
O27   O     O_3   0.148917 0.001456 0.691210 -0.575303
H23   H     H_    0.111421 0.042156 0.704779 0.371041
O28   O     O_3   0.145755 0.187742 0.769549 -0.652954
H24   H     H_    0.133131 0.201794 0.801713 0.284793
O29   O     O_3   0.306676 0.351587 0.788003 -0.612188
H25   H     H_    0.265128 0.383852 0.774262 0.296249
N1    N     N_R   0.546367 0.314939 0.708910 0.180626
O30   O     O_R   0.650638 0.355560 0.724509 -0.312172
O31   O     O_R   0.524475 0.363404 0.679287 -0.337641
O32   O     O_3   0.502279 0.191495 0.801852 -0.598421
H26   H     H_    0.497049 0.125368 0.783411 0.326331
N2    N     N_R   0.295751 0.964268 0.696514 0.111347
O33   O     O_R   0.231966 0.861749 0.701607 -0.311221
O34   O     O_R   0.375954 0.985706 0.669449 -0.412668
O35   O     O_3   0.306916 0.001009 0.784192 -0.638633
H27   H     H_    0.250576 0.922067 0.783516 0.360748
N3    N     N_R   0.505799 0.356510 0.797692 0.229672
O36   O     O_R   0.542988 0.386747 0.839961 -0.273105
O37   O     O_R   0.516326 0.432534 0.774393 -0.276352
O38   O     O_3   0.005187 0.296697 0.700375 -0.644123
H28   H     H_    0.056597 0.280147 0.717155 0.312708
O39   O     O_3   0.868781 0.344073 0.714902 -0.592518
H29   H     H_    0.933531 0.419502 0.723791 0.339170
N4    N     N_R   0.758091 0.946797 0.693510 0.208387
O40   O     O_R   0.674563 0.880230 0.714523 -0.250165
O41   O     O_R   0.761940 0.914075 0.651286 -0.346954
O42   O     O_3   0.948081 0.081886 0.698308 -0.651453
H30   H     H_    0.944036 0.083205 0.665464 0.318483
O43   O     O_3   0.795980 0.973878 0.785178 -0.550669
H31   H     H_    0.834332 0.979472 0.814382 0.336386
O44   O     O_3   0.143707 0.622961 0.669042 -0.578434
H32   H     H_    0.135941 0.580458 0.693874 0.304040
O45   O     O_3   0.607925 0.024968 0.708072 -0.577532
H33   H     H_    0.539213 0.020582 0.721078 0.353663
O46   O     O_3   0.635691 0.057645 0.798399 -0.596358
H34   H     H_    0.627448 0.987023 0.783142 0.411606
N5    N     N_R   0.156858 0.672565 0.281545 0.128971
O47   O     O_R   0.134252 0.675859 0.323583 -0.345179
O48   O     O_R   0.072783 0.615591 0.251136 -0.306908
N6    N     N_R   0.357341 0.514464 0.288824 0.119888
O49   O     O_R   0.425098 0.492060 0.264699 -0.346372
O50   O     O_R   0.340858 0.486810 0.328911 -0.356874
O51   O     O_3   0.162604 0.487978 0.205130 -0.595993
H35   H     H_    0.152731 0.447297 0.174349 0.302765
N7    N     N_R   0.527815 0.875478 0.285264 0.120549
O52   O     O_R   0.525788 0.940409 0.258449 -0.328593
O53   O     O_R   0.566635 0.918104 0.326891 -0.405141
O54   O     O_3   0.546877 0.719081 0.289305 -0.604633
H36   H     H_    0.555550 0.738153 0.322544 0.344304
O55   O     O_3   0.529189 0.807557 0.195336 -0.585739
H37   H     H_    0.609540 0.829688 0.202563 0.357690
O56   O     O_3   0.315002 0.848851 0.286465 -0.594095
H38   H     H_    0.304159 0.856266 0.319079 0.341210
N8    N     N_R   0.145454 0.016438 0.071623 0.123942
O57   O     O_R   0.044800 0.955705 0.084058 -0.353718
O58   O     O_R   0.171778 0.987348 0.032525 -0.349581
N9    N     N_R   0.133974 0.979847 0.305133 0.149152
O59   O     O_R   0.094919 0.877204 0.310105 -0.266726
O60   O     O_R   0.080920 0.003655 0.276134 -0.348248
O61   O     O_3   0.169813 0.969449 0.395185 -0.565304
H39   H     H_    0.165685 0.995779 0.427003 0.309216
O62   O     O_3   0.502044 0.328567 0.415076 -0.611924
H40   H     H_    0.513330 0.397623 0.405181 0.324299
O63   O     O_3   0.538483 0.722106 0.582913 -0.594203
H41   H     H_    0.587395 0.700302 0.598281 0.376866
O64   O     O_3   0.506568 0.362806 0.108191 -0.602897
H42   H     H_    0.520087 0.339858 0.077256 0.323931
O65   O     O_3   0.476853 0.335392 0.320789 -0.584077
H43   H     H_    0.552397 0.369795 0.337118 0.320784
O66   O     O_3   0.889008 0.395319 0.191466 -0.575358
H44   H     H_    0.860341 0.378340 0.221248 0.322698
O67   O     O_3   0.833510 0.992634 0.392439 -0.614051
H45   H     H_    0.893560 0.983536 0.377122 0.320722
O68   O     O_3   0.798950 0.010653 0.170603 -0.599203
H46   H     H_    0.792898 0.952905 0.146099 0.322361
N10   N     N_R   0.529367 0.688000 0.816486 0.157424
O69   O     O_R   0.598505 0.654466 0.828081 -0.239394
O70   O     O_R   0.562168 0.762042 0.789830 -0.308563
O71   O     O_3   0.865735 0.024580 0.299181 -0.587887
H47   H     H_    0.831194 0.950153 0.308045 0.346519
N11   N     N_R   0.496100 0.648897 0.908329 0.148830
O72   O     O_R   0.531258 0.577215 0.906950 -0.272052
O73   O     O_R   0.530858 0.728497 0.942170 -0.351125
O74   O     O_3   0.514320 0.643727 0.665450 -0.569401
H48   H     H_    0.486483 0.599106 0.690131 0.354560
O75   O     O_3   0.139917 0.004110 0.777031 -0.598891
H49   H     H_    0.137599 0.995946 0.809374 0.315638

loop_
_geom_bond_atom_site_label_1
_geom_bond_atom_site_label_2
_geom_bond_distance
_ccdc_geom_bond_type
C41   N4    1.488204 S    
H3    C12   1.083464 S    
C21   C26   1.597410 S    
O42   H30   0.991702 S    
C66   C67   1.392698 A    
C60   C61   1.407608 A    
C78   C84   1.403172 A    
C33   H8    1.109451 S    
C22   H4    1.109561 S    
C22   C23   1.562833 S    
C77   O66   1.382118 S    
C16   C17   1.412811 A    
C72   O67   1.380991 S    
C16   N10   1.441208 S    
C9    O74   1.384847 S    
N10   O70   1.300664 A    
C77   C78   1.394232 A    
C57   C58   1.414625 A    
O29   H25   0.993560 S    
C57   C62   1.421883 A    
O4    Cr2   1.921475 S    
H20   C75   1.084152 S    
C55   C56   1.200732 T    
C71   C72   1.414229 A    
C21   C25   1.597384 S    
C4    O9    1.273879 A    
C65   O64   1.377343 S    
O8    Cr1   1.925598 S    
C7    C8    1.417299 A    
C29   H6    1.100762 S    
C85   O16   1.262346 A    
C79   H22   1.083467 S    
C21   O27   1.415407 S    
C13   C17   1.391400 A    
C84   C90   1.470052 S    
N2    O33   1.301445 A    
C77   C81   1.415057 A    
C70   C88   1.490672 S    
Cr6   O26   1.983515 S    
C45   N5    1.486898 S    
C8    O63   1.384479 S    
C45   C49   1.594593 S    
O24   Cr6   2.031748 S    
O27   H23   0.986245 S    
C11   C12   1.391102 A    
C23   O28   1.402101 S    
C65   C70   1.423779 A    
C65   C66   1.394121 A    
C25   C31   1.474291 S    
O56   H38   0.991416 S    
N6    O49   1.302273 A    
O12   C6    1.280621 A    
C15   C16   1.417605 A    
C46   C47   1.567474 S    
N7    O53   1.301708 A    
C23   O29   1.410588 S    
C81   C82   1.430487 S    
H21   C76   1.083129 S    
O23   Cr5   1.918284 S    
O28   H24   0.993518 S    
N11   O73   1.300695 A    
C73   C74   1.403793 A    
N4    O40   1.300975 A    
O25   Cr6   1.918357 S    
C29   N1    1.478151 S    
C14   C20   1.404903 A    
O22   Cr5   2.035408 S    
O20   C90   1.269354 A    
C26   C27   1.589026 S    
C24   C85   1.424288 S    
O63   H41   0.989217 S    
H1    C14   1.083211 S    
C47   H14   1.114931 S    
C33   C37   1.570911 S    
C10   C19   1.436093 S    
C22   C25   1.561200 S    
C40   O43   1.407142 S    
N8    O57   1.301543 A    
O54   H36   0.991081 S    
C10   C11   1.412311 A    
H12   C50   1.109495 S    
C28   N3    1.485112 S    
O9    Cr2   2.038412 S    
N4    O41   1.302026 A    
O55   H37   0.993114 S    
C7    C12   1.402063 A    
Cr3   O13   1.983757 S    
C86   O18   1.274913 A    
N1    O31   1.301794 A    
N9    O60   1.301392 A    
O14   Cr4   2.039047 S    
N7    O52   1.302106 A    
C73   O71   1.382152 S    
C64   N8    1.437767 S    
N10   O69   1.300181 A    
N3    O37   1.302335 A    
C53   N7    1.487295 S    
C51   C52   1.555410 S    
C27   C30   1.475595 S    
C33   C38   1.568575 S    
H7    C38   1.113417 S    
O25   C90   1.275109 A    
C37   C41   1.590771 S    
O1    Cr1   2.042623 S    
C79   C84   1.402061 A    
C15   C20   1.416734 A    
C6    C57   1.491200 S    
C68   C69   1.199272 T    
C37   C43   1.473413 S    
C28   O32   1.416387 S    
Cr1   O13   1.971477 S    
O1    C3    1.264881 A    
O67   H45   0.990519 S    
O71   H47   0.990037 S    
N5    O48   1.301650 A    
C58   C59   1.413852 A    
C4    C71   1.477173 S    
C46   N6    1.474640 S    
O62   H40   0.990740 S    
O6    C3    1.273804 A    
C35   H9    1.114303 S    
C26   O35   1.414703 S    
C41   O42   1.411428 S    
C62   O61   1.379059 S    
O43   H31   0.993235 S    
O16   Cr5   2.036443 S    
O12   Cr3   1.917195 S    
C74   C83   1.427009 S    
O17   Cr5   1.918886 S    
C71   C76   1.406231 A    
N5    O47   1.301831 A    
H2    C13   1.084667 S    
C40   H11   1.104106 S    
C18   C19   1.199423 T    
O10   Cr2   1.916182 S    
O21   C88   1.280103 A    
C53   O54   1.413152 S    
O35   H27   0.992644 S    
O7    Cr1   2.038302 S    
N1    O30   1.300971 A    
C39   C42   1.469179 S    
C63   C64   1.400641 A    
C15   N11   1.432278 S    
N11   O72   1.300986 A    
C46   C49   1.572951 S    
C34   C37   1.576135 S    
C80   O68   1.382641 S    
C61   N9    1.442134 S    
C23   C27   1.582922 S    
C1    C44   1.424331 S    
O61   H39   0.991016 S    
C82   C83   1.196891 T    
O19   Cr6   1.915804 S    
O32   H26   0.986402 S    
C64   C70   1.424153 A    
O45   H33   0.990226 S    
C5    C56   1.423939 S    
C27   C28   1.592577 S    
Cr2   O13   1.983471 S    
C28   C29   1.595071 S    
C61   C62   1.407160 A    
O39   H29   0.993513 S    
C46   H13   1.113847 S    
Cr5   O26   1.983814 S    
O15   Cr4   1.925917 S    
Cr4   O26   1.971454 S    
C3    C32   1.425769 S    
C34   C35   1.569485 S    
C47   C51   1.563948 S    
O17   C86   1.282659 A    
C9    C10   1.414314 A    
C48   C89   1.424685 S    
C11   O44   1.382513 S    
C49   C55   1.474191 S    
C51   C54   1.470133 S    
C58   O62   1.381797 S    
C47   O51   1.409043 S    
O20   Cr4   2.041753 S    
C38   O46   1.410206 S    
C25   C29   1.578293 S    
C2    C7    1.484145 S    
O38   H28   0.989806 S    
C66   H18   1.084404 S    
C20   C86   1.478267 S    
C74   C75   1.391131 A    
O14   C87   1.262800 A    
O2    Cr1   1.922634 S    
O66   H44   0.989302 S    
C36   C87   1.424508 S    
H19   C78   1.083554 S    
C35   C39   1.555513 S    
C50   C51   1.550957 S    
O6    Cr3   1.917072 S    
C60   C69   1.435227 S    
C45   O56   1.411982 S    
N8    O58   1.301590 A    
O8    C4    1.276540 A    
O11   Cr3   2.032220 S    
C35   H10   1.112353 S    
C2    O5    1.281955 A    
O18   Cr6   2.035390 S    
C26   O75   1.418129 S    
C50   H15   1.113033 S    
C89   O24   1.271101 A    
C34   O38   1.416846 S    
C88   O22   1.277637 A    
O21   Cr4   1.922034 S    
N9    O59   1.301192 A    
C36   C42   1.200408 T    
C33   O45   1.405066 S    
C13   C14   1.383294 A    
H17   C63   1.084055 S    
N2    O34   1.301019 A    
O2    C1    1.274967 A    
O75   H49   0.992598 S    
C45   C50   1.570722 S    
O44   H32   0.989879 S    
O5    Cr3   2.034666 S    
C80   C81   1.404139 A    
C38   C39   1.550557 S    
C49   C53   1.597307 S    
O68   H46   0.991733 S    
O4    C2    1.279688 A    
N3    O36   1.302103 A    
O7    C6    1.274276 A    
C52   H16   1.117963 S    
C5    O11   1.271516 A    
C63   C67   1.391920 A    
C59   C60   1.400435 A    
C22   H5    1.111963 S    
N6    O50   1.301258 A    
C79   C80   1.401174 A    
O19   C87   1.274444 A    
C75   C76   1.385559 A    
C39   C40   1.564995 S    
C43   C44   1.200634 T    
C52   O55   1.406169 S    
C59   O65   1.383461 S    
O74   H48   0.989895 S    
O46   H34   0.988152 S    
O3    Cr2   2.033762 S    
C48   C54   1.200559 T    
O51   H35   0.992993 S    
O65   H43   0.990235 S    
C17   C18   1.431841 S    
O64   H42   0.990964 S    
C34   O39   1.409264 S    
C40   C41   1.586769 S    
C24   C30   1.200922 T    
O10   C5    1.275920 A    
C21   N2    1.484384 S    
C67   C68   1.428521 S    
C52   C53   1.583936 S    
C72   C73   1.421058 A    
O23   C89   1.277026 A    
C1    O3    1.264328 A    
C31   C32   1.201605 T    
O15   C85   1.277064 A    
C8    C9    1.414727 A    
