data_mof_unit_1143.cif
_audit_creation_date              2012-12-10T17:05:23-0500
_audit_creation_method            fapswitch 2.2
_symmetry_space_group_name_H-M    P1
_symmetry_Int_Tables_number       1
_space_group_crystal_system       triclinic
_cell_length_a                    10.018347
_cell_length_b                    10.667309
_cell_length_c                    15.540525
_cell_angle_alpha                 89.373155
_cell_angle_beta                  68.534541
_cell_angle_gamma                 88.157647
_cell_volume                      1544.80208077

loop_
_atom_site_label
_atom_site_type_symbol
_atom_type_description
_atom_site_fract_x
_atom_site_fract_y
_atom_site_fract_z
_atom_type_partial_charge
C1    C     C_R   0.501914 0.736934 0.492562 0.941928
C2    C     C_R   0.741801 0.507069 0.030100 0.047438
C3    C     C_R   0.595491 0.487274 0.083327 -0.010636
C4    C     C_R   0.411233 0.496993 0.675527 0.907399
C5    C     C_R   0.837917 0.532948 0.074597 0.530943
C6    C     C_R   0.788986 0.521973 0.171619 -0.412311
C7    C     C_R   0.543992 0.518210 0.177323 0.117216
C8    C     C_2   0.616170 0.063974 0.443891 0.200382
C9    C     C_2   0.507909 0.129884 0.508450 0.048251
C10   C     C_2   0.625825 0.929502 0.452692 -0.159525
C11   C     C_2   0.508073 0.865809 0.467547 -0.376270
C12   C     C_R   0.438461 0.447030 0.904739 0.015884
C13   C     C_2   0.108009 0.429280 0.445824 -0.131286
C14   C     C_2   0.960445 0.436431 0.441175 -0.142572
C15   C     C_R   0.502337 0.262513 0.500428 0.933570
C16   C     C_R   0.588565 0.505484 0.324321 0.902442
C17   C     C_R   0.362199 0.473255 0.774541 -0.137908
C18   C     C_R   0.641702 0.514954 0.223314 -0.136302
C19   C     C_R   0.206124 0.370059 0.912835 0.535915
C20   C     C_R   0.234653 0.412177 0.822285 -0.308371
C21   C     C_R   0.459751 0.493713 0.817162 -0.276167
C22   C     C_3   0.030601 0.658025 0.060858 0.066028
C23   C     C_R   0.305958 0.391319 0.955683 0.047940
C24   C     C_3   0.147066 0.726182 0.983885 -0.313834
C25   C     C_3   0.211966 0.828705 0.022638 -0.993253
C26   C     C_3   0.726623 0.123255 0.360026 -0.936045
C27   C     C_3   0.406515 0.076211 0.598890 -0.961685
C28   C     C_3   0.397660 0.584461 0.220186 -0.846334
C29   C     C_3   0.091031 0.185476 0.944498 0.061919
C30   C     C_3   0.947879 0.124371 0.996977 -0.321319
C31   C     C_3   0.900322 0.143029 0.101396 -0.817731
C32   C     C_R   0.543591 0.460932 0.944272 0.109537
C33   C     C_R   0.502501 0.446695 0.040257 0.111830
C34   C     C_R   0.371933 0.388616 0.090375 -0.251603
C35   C     C_R   0.276054 0.359340 0.048187 -0.220379
C36   C     C_R   0.688462 0.486620 0.891223 -0.277121
C37   C     C_R   0.787086 0.504867 0.933623 -0.159706
H1    H     H_    0.176806 0.315356 0.089038 0.186109
H2    H     H_    0.159223 0.394235 0.788973 0.166252
H3    H     H_    0.552843 0.548070 0.780787 0.169895
H4    H     H_    0.345050 0.362261 0.161983 0.161606
H5    H     H_    0.729553 0.486538 0.816536 0.151456
H6    H     H_    0.077980 0.616989 0.109756 0.157720
H7    H     H_    0.944426 0.728683 0.097791 0.131543
H8    H     H_    0.233481 0.658194 0.944705 0.242624
H9    H     H_    0.100100 0.768942 0.935381 0.212658
H10   H     H_    0.127675 0.898628 0.061797 0.264666
H11   H     H_    0.294521 0.877392 0.964909 0.264338
H12   H     H_    0.726316 0.885162 0.450317 0.172631
H13   H     H_    0.263607 0.787266 0.069029 0.269231
H14   H     H_    0.795369 0.050426 0.312138 0.240205
H15   H     H_    0.672548 0.180583 0.321496 0.229422
H16   H     H_    0.797885 0.182926 0.381278 0.254591
H17   H     H_    0.360792 0.151400 0.651448 0.229981
H18   H     H_    0.314872 0.031610 0.588812 0.247264
H19   H     H_    0.463967 0.007712 0.628357 0.256364
H20   H     H_    0.358828 0.622545 0.166455 0.226156
H21   H     H_    0.316411 0.520274 0.265122 0.245947
H22   H     H_    0.405016 0.666684 0.261332 0.240885
H23   H     H_    0.412954 0.910654 0.461318 0.166047
H24   H     H_    0.174800 0.142429 0.967948 0.128907
H25   H     H_    0.120567 0.165287 0.869466 0.099878
H26   H     H_    0.864078 0.165120 0.972914 0.224660
H27   H     H_    0.958998 0.022194 0.981613 0.170691
H28   H     H_    0.983433 0.104585 0.126833 0.234605
H29   H     H_    0.799075 0.093313 0.136782 0.233966
H30   H     H_    0.880664 0.244189 0.119256 0.289401
H31   H     H_    0.185778 0.363491 0.399979 0.157134
H32   H     H_    0.078092 0.566608 0.538057 0.158112
H33   H     H_    0.943510 0.383810 0.386899 0.151047
H34   H     H_    0.865823 0.541863 0.553909 0.163182
H35   H     H_    0.864411 0.525131 0.206648 0.173395
H36   H     H_    0.897904 0.520364 0.890525 0.193127
N1    N     N_2   0.148330 0.498670 0.499030 -0.189182
N2    N     N_2   0.852680 0.498640 0.499000 -0.189055
O1    O     O_R   0.386950 0.680940 0.500010 -0.618749
O2    O     O_3   0.076386 0.315959 0.960890 -0.599665
O3    O     O_R   0.613110 0.680900 0.499990 -0.611689
O4    O     O_R   0.322330 0.500030 0.632270 -0.613037
O5    O     O_R   0.548480 0.499990 0.632240 -0.614291
O6    O     O_R   0.386890 0.319100 0.500010 -0.610940
O7    O     O_R   0.613050 0.319060 0.499990 -0.609044
O8    O     O_R   0.451520 0.500010 0.367760 -0.607671
O9    O     O_R   0.677670 0.499970 0.367730 -0.619143
O10   O     O_3   0.979104 0.560486 0.021442 -0.629584
Zn1   Zn    Zn3+2 0.349000 0.500030 0.500020 0.928447
Zn2   Zn    Zn3+2 0.651000 0.499970 0.499980 0.929646

loop_
_geom_bond_atom_site_label_1
_geom_bond_atom_site_label_2
_ccdc_geom_bond_type
O3    Zn2   S    
C31   H29   S    
C30   H27   S    
C8    C26   S    
C36   H5    S    
C19   C20   A    
C1    C11   S    
O9    Zn2   S    
C27   H17   S    
C15   O6    A    
C28   H20   S    
C31   H30   S    
C12   C23   A    
C24   H8    S    
C32   C36   A    
C36   C37   A    
C4    O5    A    
O5    Zn2   S    
C3    C7    A    
C30   C31   S    
C27   H18   S    
C3    C33   A    
O7    Zn2   S    
C16   O9    A    
C17   C20   A    
C34   C35   A    
C22   O10   S    
C19   O2    S    
C25   H13   S    
C22   H7    S    
C8    C9    D    
C25   H10   S    
O6    Zn1   S    
C5    O10   S    
C13   C14   S    
C12   C32   A    
C1    O3    A    
C14   H33   S    
C34   H4    S    
C15   O7    A    
C6    C18   A    
C29   H24   S    
C35   H1    S    
C24   C25   S    
C4    O4    A    
C20   H2    S    
C27   H19   S    
C6    H35   S    
C12   C21   A    
C16   O8    A    
C17   C21   A    
C7    C28   S    
C19   C23   A    
C29   C30   S    
C26   H15   S    
C22   H6    S    
C7    C18   A    
C33   C34   A    
H32   N1    S    
C16   C18   S    
N1    Zn1   S    
C25   H11   S    
C4    C17   S    
N2    Zn2   S    
C23   C35   A    
C22   C24   S    
C2    C5    A    
C11   H23   S    
C26   H16   S    
O1    Zn1   S    
C9    C27   S    
C28   H22   S    
C31   H28   S    
C37   H36   S    
C29   H25   S    
C1    O1    A    
C28   H21   S    
C24   H9    S    
C32   C33   A    
C2    C3    A    
C9    C15   S    
C26   H14   S    
C14   N2    D    
H34   N2    S    
C2    C37   A    
C5    C6    A    
C21   H3    S    
C10   C11   D    
O8    Zn1   S    
C29   O2    S    
C13   N1    D    
C8    C10   S    
C30   H26   S    
C10   H12   S    
O4    Zn1   S    
C13   H31   S    
