data_mof_unit_3308.cif
_audit_creation_date              2012-12-11T16:52:23-0500
_audit_creation_method            fapswitch 2.2
_symmetry_space_group_name_H-M    P1
_symmetry_Int_Tables_number       1
_space_group_crystal_system       triclinic
_cell_length_a                    7.15622
_cell_length_b                    26.435752
_cell_length_c                    28.445337
_cell_angle_alpha                 90.000405
_cell_angle_beta                  90.001273
_cell_angle_gamma                 89.999667
_cell_volume                      5381.29047854

loop_
_atom_site_label
_atom_site_type_symbol
_atom_type_description
_atom_site_fract_x
_atom_site_fract_y
_atom_site_fract_z
_atom_type_partial_charge
O1    O     O_R   0.601030 0.796770 0.202460 -0.538157
O2    O     O_R   0.398970 0.203230 0.797540 -0.535310
O3    O     O_R   0.398970 0.203230 0.702460 -0.538170
O4    O     O_R   0.601030 0.796770 0.297540 -0.535305
O5    O     O_R   0.101030 0.703230 0.297540 -0.538171
O6    O     O_R   0.898970 0.296770 0.702460 -0.535303
O7    O     O_R   0.898970 0.296770 0.797540 -0.538162
O8    O     O_R   0.101030 0.703230 0.202460 -0.535316
O9    O     O_R   0.271290 0.802910 0.297210 -0.541724
O10   O     O_R   0.728710 0.197090 0.702790 -0.539100
O11   O     O_R   0.728710 0.197090 0.797210 -0.541737
O12   O     O_R   0.271290 0.802910 0.202790 -0.539093
O13   O     O_R   0.771290 0.697090 0.202790 -0.541748
O14   O     O_R   0.228710 0.302910 0.797210 -0.539091
O15   O     O_R   0.228710 0.302910 0.702790 -0.541722
O16   O     O_R   0.771290 0.697090 0.297210 -0.539115
C1    C     C_R   0.441130 0.815265 0.313162 0.674240
C2    C     C_R   0.558738 0.183156 0.688605 0.691706
C3    C     C_R   0.558871 0.184728 0.813157 0.674215
C4    C     C_R   0.441260 0.816844 0.188605 0.691758
C5    C     C_R   0.941129 0.684728 0.186843 0.674185
C6    C     C_R   0.058742 0.316843 0.811395 0.691735
C7    C     C_R   0.058869 0.315269 0.686841 0.674251
C8    C     C_R   0.941266 0.683153 0.311394 0.691699
O17   O     O_3   0.434520 0.717290 0.250000 -0.379143
O18   O     O_3   0.565480 0.282710 0.750000 -0.379108
O19   O     O_3   0.934520 0.782710 0.250000 -0.379105
O20   O     O_3   0.065480 0.217290 0.750000 -0.379129
V1    V     V_3+5 0.159680 0.756060 0.250000 1.349092
V2    V     V_3+5 0.840320 0.243940 0.750000 1.349117
V3    V     V_3+5 0.659680 0.743940 0.250000 1.349005
V4    V     V_3+5 0.340320 0.256060 0.750000 1.349163
C9    C     C_R   0.882747 0.364325 0.621206 0.077296
C10   C     C_R   0.112189 0.609359 0.351791 0.071082
C11   C     C_R   0.117314 0.635631 0.121248 0.077404
C12   C     C_R   0.888083 0.390715 0.851723 0.071088
C13   C     C_R   0.382725 0.135642 0.878767 0.077357
C14   C     C_R   0.611991 0.890697 0.148264 0.071103
C15   C     C_R   0.617298 0.864324 0.378783 0.077345
C16   C     C_R   0.387982 0.109315 0.648244 0.071072
C17   C     C_R   0.887304 0.402139 0.586380 -0.151612
C18   C     C_R   0.123019 0.575763 0.390105 -0.117107
C19   C     C_R   0.112793 0.597799 0.086439 -0.151850
C20   C     C_R   0.877210 0.424306 0.890041 -0.117116
C21   C     C_R   0.387278 0.097820 0.913585 -0.151758
C22   C     C_R   0.622863 0.924290 0.109948 -0.117097
C23   C     C_R   0.612800 0.902156 0.413593 -0.151855
C24   C     C_R   0.377146 0.075722 0.609928 -0.117125
H1    H     H_    0.765499 0.408746 0.564522 0.121998
H2    H     H_    0.242341 0.550782 0.393680 0.132619
H3    H     H_    0.234701 0.591150 0.064629 0.121874
H4    H     H_    0.758131 0.449383 0.893547 0.132691
H5    H     H_    0.265423 0.091189 0.935418 0.121938
H6    H     H_    0.742019 0.949337 0.106425 0.132683
H7    H     H_    0.734677 0.908783 0.435421 0.121916
H8    H     H_    0.257987 0.050677 0.606393 0.132655
C25   C     C_R   0.046280 0.431294 0.578221 0.104131
C26   C     C_R   0.981225 0.573070 0.423792 0.099125
C27   C     C_R   0.953731 0.568691 0.078221 0.104278
C28   C     C_R   0.018677 0.426862 0.923825 0.098878
C29   C     C_R   0.546308 0.068692 0.921776 0.104210
C30   C     C_R   0.481309 0.926890 0.076190 0.098970
C31   C     C_R   0.453790 0.931292 0.421787 0.104234
C32   C     C_R   0.518744 0.073118 0.576184 0.098955
C33   C     C_R   0.205505 0.423008 0.605660 -0.102233
C34   C     C_R   0.824745 0.604447 0.419245 -0.127361
C35   C     C_R   0.794395 0.577046 0.105604 -0.102125
C36   C     C_R   0.174963 0.395408 0.919347 -0.126927
C37   C     C_R   0.705585 0.077016 0.894365 -0.102175
C38   C     C_R   0.324981 0.895451 0.080679 -0.127111
C39   C     C_R   0.294480 0.922965 0.394387 -0.102148
C40   C     C_R   0.675105 0.104540 0.580694 -0.127049
H9    H     H_    0.330760 0.445098 0.599698 0.134756
H10   H     H_    0.712893 0.602571 0.444837 0.129894
H11   H     H_    0.669030 0.555017 0.099592 0.134820
H12   H     H_    0.286597 0.397202 0.945006 0.130034
H13   H     H_    0.830904 0.054960 0.900353 0.134793
H14   H     H_    0.213297 0.897266 0.055035 0.129981
H15   H     H_    0.169162 0.945018 0.400382 0.134831
H16   H     H_    0.786833 0.102714 0.555064 0.129992
C41   C     C_R   0.205225 0.385661 0.640648 -0.196519
C42   C     C_R   0.811029 0.638418 0.381615 -0.202808
C43   C     C_R   0.794698 0.614380 0.140604 -0.196433
C44   C     C_R   0.188761 0.361465 0.881699 -0.202799
C45   C     C_R   0.705280 0.114357 0.859371 -0.196469
C46   C     C_R   0.311202 0.861496 0.118319 -0.202811
C47   C     C_R   0.294748 0.885626 0.359391 -0.196482
C48   C     C_R   0.688861 0.138491 0.618337 -0.202794
H17   H     H_    0.330743 0.380844 0.661346 0.129565
H18   H     H_    0.688979 0.662522 0.379569 0.125036
H19   H     H_    0.669126 0.619227 0.161272 0.129557
H20   H     H_    0.310653 0.337299 0.879700 0.125030
H21   H     H_    0.830821 0.119190 0.838687 0.129561
H22   H     H_    0.189278 0.837342 0.120325 0.125033
H23   H     H_    0.169185 0.880794 0.338714 0.129563
H24   H     H_    0.810817 0.162632 0.620359 0.125029
C49   C     C_R   0.046641 0.355098 0.649088 -0.071996
C50   C     C_R   0.955126 0.642681 0.348042 -0.063221
C51   C     C_R   0.953354 0.644899 0.149090 -0.072044
C52   C     C_R   0.044907 0.357305 0.848048 -0.063148
C53   C     C_R   0.546652 0.144895 0.850908 -0.072028
C54   C     C_R   0.455105 0.857309 0.151954 -0.063189
C55   C     C_R   0.453363 0.855085 0.350921 -0.072006
C56   C     C_R   0.544898 0.142691 0.651952 -0.063161
C57   C     C_R   0.018649 0.450614 0.493068 -0.201300
C58   C     C_R   0.022035 0.554728 0.509371 -0.200613
C59   C     C_R   0.983775 0.549332 0.993118 -0.201405
C60   C     C_R   0.975401 0.445228 0.009316 -0.200410
C61   C     C_R   0.517346 0.049355 0.006902 -0.201344
C62   C     C_R   0.523518 0.945242 0.990658 -0.200491
C63   C     C_R   0.483239 0.950647 0.506902 -0.201385
C64   C     C_R   0.476123 0.054753 0.490670 -0.200454
H25   H     H_    0.013329 0.410257 0.486546 0.158064
H26   H     H_    0.023283 0.595093 0.515918 0.157333
H27   H     H_    0.990934 0.589672 0.986632 0.157962
H28   H     H_    0.972238 0.404863 0.015813 0.157359
H29   H     H_    0.511000 0.089704 0.013404 0.158008
H30   H     H_    0.525837 0.904875 0.984139 0.157344
H31   H     H_    0.489927 0.910303 0.513401 0.157989
H32   H     H_    0.473440 0.095118 0.484158 0.157358
C65   C     C_R   0.996375 0.484070 0.455353 0.188746
C66   C     C_R   0.044850 0.521121 0.547182 0.190776
C67   C     C_R   0.005985 0.515846 0.955427 0.189073
C68   C     C_R   0.952650 0.478862 0.047109 0.190574
C69   C     C_R   0.495104 0.015883 0.044604 0.188913
C70   C     C_R   0.546302 0.978863 0.952857 0.190661
C71   C     C_R   0.505454 0.984128 0.544598 0.188997
C72   C     C_R   0.453366 0.021123 0.452874 0.190613
C73   C     C_R   0.997881 0.536699 0.463301 -0.012129
C74   C     C_R   0.043443 0.468493 0.539136 -0.012706
C75   C     C_R   0.002028 0.463228 0.963327 -0.012233
C76   C     C_R   0.956598 0.531495 0.039121 -0.012446
C77   C     C_R   0.497978 0.963257 0.036683 -0.012178
C78   C     C_R   0.543467 0.031496 0.960870 -0.012558
C79   C     C_R   0.502116 0.036749 0.536681 -0.012219
C80   C     C_R   0.456673 0.968492 0.460881 -0.012497
C81   C     C_3   0.701036 0.334841 0.624573 -0.351725
C82   C     C_3   0.715022 0.283700 0.599413 -0.299418
C83   C     C_3   0.521064 0.262026 0.589478 -0.753107
H33   H     H_    0.440223 0.258250 0.622562 0.231498
H34   H     H_    0.443213 0.287219 0.565115 0.231941
H35   H     H_    0.534247 0.224319 0.572689 0.223648
H36   H     H_    0.789014 0.288323 0.565298 0.201624
H37   H     H_    0.795827 0.256702 0.621281 0.192392
H38   H     H_    0.651702 0.330630 0.661178 0.197769
H39   H     H_    0.587448 0.356928 0.607513 0.165059
C84   C     C_3   0.267644 0.606302 0.315482 -0.366028
C85   C     C_3   0.195953 0.585586 0.268401 -0.264702
C86   C     C_3   0.355181 0.579348 0.233182 -0.720384
H40   H     H_    0.428891 0.615847 0.228044 0.222962
H41   H     H_    0.456668 0.550687 0.245962 0.240633
H42   H     H_    0.298335 0.566608 0.198837 0.226566
H43   H     H_    0.128863 0.548146 0.274106 0.221437
H44   H     H_    0.089941 0.611390 0.253177 0.179824
H45   H     H_    0.337336 0.643377 0.311107 0.203530
H46   H     H_    0.380340 0.580585 0.327947 0.177831
C87   C     C_3   0.299055 0.665097 0.124634 -0.351727
C88   C     C_3   0.285166 0.716243 0.099475 -0.299372
C89   C     C_3   0.479163 0.737901 0.089560 -0.753171
H47   H     H_    0.559971 0.741661 0.122652 0.231597
H48   H     H_    0.557010 0.712705 0.065199 0.231961
H49   H     H_    0.466047 0.775613 0.072777 0.223609
H50   H     H_    0.211217 0.711628 0.065353 0.201591
H51   H     H_    0.204365 0.743248 0.121334 0.192442
H52   H     H_    0.348345 0.669296 0.161246 0.197809
H53   H     H_    0.412628 0.643006 0.107577 0.164998
C90   C     C_3   0.732952 0.393859 0.815334 -0.366226
C91   C     C_3   0.805164 0.414547 0.768294 -0.264811
C92   C     C_3   0.646288 0.420810 0.732976 -0.720225
H54   H     H_    0.572532 0.384323 0.727803 0.222697
H55   H     H_    0.544759 0.449494 0.745690 0.240618
H56   H     H_    0.703492 0.433532 0.698664 0.226880
H57   H     H_    0.872320 0.451972 0.774032 0.221461
H58   H     H_    0.911235 0.388713 0.753142 0.179697
H59   H     H_    0.663072 0.356816 0.810913 0.203617
H60   H     H_    0.620328 0.419628 0.827745 0.177951
C93   C     C_3   0.200982 0.165109 0.875387 -0.351729
C94   C     C_3   0.214868 0.216249 0.900553 -0.299401
C95   C     C_3   0.020869 0.237906 0.910468 -0.753141
H61   H     H_    0.940082 0.241681 0.877375 0.231567
H62   H     H_    0.943002 0.212702 0.934817 0.231953
H63   H     H_    0.033981 0.275611 0.927265 0.223621
H64   H     H_    0.288809 0.211627 0.934676 0.201614
H65   H     H_    0.295677 0.243255 0.878698 0.192408
H66   H     H_    0.151686 0.169318 0.838777 0.197793
H67   H     H_    0.087409 0.143011 0.892437 0.165024
C96   C     C_3   0.767200 0.893816 0.184634 -0.366147
C97   C     C_3   0.695114 0.914509 0.231685 -0.264815
C98   C     C_3   0.854070 0.920758 0.266982 -0.720234
H68   H     H_    0.927788 0.884264 0.272150 0.222786
H69   H     H_    0.955614 0.949430 0.254254 0.240622
H70   H     H_    0.796952 0.933488 0.301301 0.226754
H71   H     H_    0.627992 0.951941 0.225956 0.221454
H72   H     H_    0.589043 0.888685 0.246852 0.179735
H73   H     H_    0.837034 0.856765 0.189044 0.203604
H74   H     H_    0.879845 0.919573 0.172213 0.177906
C99   C     C_3   0.798975 0.834823 0.375421 -0.351706
C100  C     C_3   0.784896 0.783675 0.400569 -0.299379
C101  C     C_3   0.978814 0.761985 0.410524 -0.753121
H75   H     H_    0.059736 0.758224 0.377451 0.231482
H76   H     H_    0.056622 0.787160 0.434912 0.231957
H77   H     H_    0.965561 0.724269 0.427292 0.223651
H78   H     H_    0.710844 0.788295 0.434676 0.201599
H79   H     H_    0.704110 0.756686 0.378688 0.192425
H80   H     H_    0.848337 0.830618 0.338817 0.197763
H81   H     H_    0.912577 0.856892 0.392495 0.165038
C102  C     C_3   0.232703 0.106208 0.684594 -0.366148
C103  C     C_3   0.304679 0.085508 0.731654 -0.264784
C104  C     C_3   0.145637 0.079251 0.766924 -0.720303
H82   H     H_    0.071880 0.115741 0.772078 0.222812
H83   H     H_    0.044146 0.050574 0.754178 0.240639
H84   H     H_    0.202677 0.066523 0.801252 0.226726
H85   H     H_    0.371823 0.048079 0.725931 0.221435
H86   H     H_    0.410708 0.111332 0.746842 0.179759
H87   H     H_    0.162901 0.143265 0.688994 0.203570
H88   H     H_    0.120054 0.080461 0.672157 0.177911
I1    I     I_    0.949518 0.452398 0.387776 -0.356045
I2    I     I_    0.068851 0.552094 0.615685 -0.348107
I3    I     I_    0.056226 0.547391 0.887958 -0.356276
I4    I     I_    0.925077 0.447847 0.115510 -0.348050
I5    I     I_    0.446359 0.047489 0.112121 -0.356183
I6    I     I_    0.572301 0.947864 0.884410 -0.348111
I7    I     I_    0.554808 0.952558 0.612099 -0.356213
I8    I     I_    0.426707 0.052125 0.384444 -0.348143

loop_
_geom_bond_atom_site_label_1
_geom_bond_atom_site_label_2
_ccdc_geom_bond_type
O17   V3    S    
C58   C73   A    
C13   C53   A    
C16   C56   A    
C68   I4    S    
O18   V4    S    
C103  H85   S    
O12   V1    S    
C38   H14   S    
C92   H55   S    
C92   H54   S    
C37   H13   S    
C84   C85   S    
C10   C18   A    
C59   C67   A    
C10   C50   A    
C19   H3    S    
C62   H30   S    
C39   H15   S    
C94   C95   S    
C61   H29   S    
O15   V4    S    
C7    C49   S    
O16   V3    S    
C91   H58   S    
C72   I8    S    
O11   C3    A    
C87   C88   S    
C58   H26   S    
C8    C50   S    
O8    V1    S    
C30   C77   S    
C57   H25   S    
C71   C79   A    
C82   H36   S    
C86   H41   S    
C23   C31   A    
C96   H74   S    
C83   H35   S    
C63   C80   A    
C24   C32   A    
O19   V1    S    
C61   C78   A    
C26   C73   S    
C69   C77   A    
C14   C96   S    
C34   H10   S    
O1    V3    S    
C104  H84   S    
C93   H66   S    
C68   C76   A    
O3    C2    A    
O2    V4    S    
C21   C29   A    
C98   H69   S    
C23   H7    S    
C16   C24   A    
C60   C75   A    
C46   H22   S    
C27   C35   A    
C45   H21   S    
C26   C34   A    
O11   V2    S    
C9    C81   S    
C103  C104  S    
C47   H23   S    
C101  H77   S    
C89   H48   S    
C100  C101  S    
C11   C19   A    
C94   H64   S    
C71   I7    S    
C95   H63   S    
C41   H17   S    
C20   H4    S    
O15   C7    A    
C15   C99   S    
C32   C79   S    
C97   H72   S    
C101  H75   S    
O16   C8    A    
O7    V2    S    
C43   C51   A    
C42   C50   A    
C30   C38   A    
C18   C26   A    
C99   H81   S    
C99   C100  S    
C85   H44   S    
C60   C68   A    
C11   C51   A    
C28   C75   S    
C17   H1    S    
C48   C56   A    
C29   C78   S    
O8    C5    A    
O5    V1    S    
C91   H57   S    
O10   C2    A    
C27   C76   S    
C6    C52   S    
O13   C5    A    
C102  C103  S    
C44   C52   A    
C25   C74   S    
C85   C86   S    
C99   H80   S    
C33   H9    S    
C87   H52   S    
C90   C91   S    
C64   H32   S    
C88   H51   S    
C67   C75   A    
C21   H5    S    
C12   C90   S    
C93   H67   S    
C97   C98   S    
C36   C44   A    
C98   H70   S    
C58   C66   A    
C11   C87   S    
C83   H34   S    
C37   C45   A    
C34   C42   A    
C10   C84   S    
O10   V2    S    
C33   C41   A    
C89   H47   S    
C18   H2    S    
C70   C78   A    
C25   C33   A    
O12   C4    A    
C102  H87   S    
C104  H82   S    
C89   H49   S    
C57   C65   A    
C12   C52   A    
C2    C56   S    
C35   C43   A    
O9    C1    A    
C15   C55   A    
C84   H46   S    
C59   H27   S    
C31   C39   A    
C88   H50   S    
C62   C70   A    
C47   C55   A    
O4    C1    A    
C63   H31   S    
C61   C69   A    
C91   C92   S    
O6    V2    S    
C22   H6    S    
C22   C30   A    
C97   H71   S    
C69   I5    S    
C100  H79   S    
C88   C89   S    
C92   H56   S    
C39   C47   A    
C86   H42   S    
C35   H11   S    
C85   H43   S    
C64   C79   A    
C13   C21   A    
C46   C54   A    
C45   C53   A    
C15   C23   A    
C81   H38   S    
C98   H68   S    
C24   H8    S    
C67   I3    S    
C65   C73   A    
O1    C4    A    
C103  H86   S    
C66   I2    S    
C96   H73   S    
O2    C3    A    
C65   I1    S    
O13   V3    S    
O14   V4    S    
C59   C76   A    
C87   H53   S    
C83   H33   S    
C70   I6    S    
C16   C102  S    
C57   C74   A    
C19   C27   A    
C84   H45   S    
C36   H12   S    
O7    C6    A    
C43   H19   S    
C81   C82   S    
C42   H18   S    
C40   C48   A    
C29   C37   A    
C81   H39   S    
C60   H28   S    
C72   C80   A    
C1    C55   S    
C9    C17   A    
C96   C97   S    
C14   C54   A    
C82   H37   S    
C86   H40   S    
C31   C80   S    
C14   C22   A    
C63   C71   A    
O9    V1    S    
C3    C53   S    
O14   C6    A    
O5    C8    A    
C41   C49   A    
C20   C28   A    
C5    C51   S    
O6    C7    A    
O20   V2    S    
C102  H88   S    
C104  H83   S    
C48   H24   S    
C90   H59   S    
C9    C49   A    
C32   C40   A    
O3    V4    S    
C64   C72   A    
O4    V3    S    
C12   C20   A    
C82   C83   S    
C17   C25   A    
C95   H61   S    
C4    C54   S    
C28   C36   A    
C40   H16   S    
C93   C94   S    
C13   C93   S    
C100  H78   S    
C101  H76   S    
C62   C77   A    
C44   H20   S    
C66   C74   A    
C94   H65   S    
C90   H60   S    
C95   H62   S    
C38   C46   A    
