data_mof_unit_726.cif
_audit_creation_date              2013-03-05T17:00:15-0500
_audit_creation_method            fapswitch 2.2
_symmetry_space_group_name_H-M    P1
_symmetry_Int_Tables_number       1
_space_group_crystal_system       triclinic
_cell_length_a                    10.710701
_cell_length_b                    16.084469
_cell_length_c                    16.732981
_cell_angle_alpha                 86.870694
_cell_angle_beta                  90.584138
_cell_angle_gamma                 92.372574
_cell_volume                      2875.83312017

loop_
_atom_site_label
_atom_site_type_symbol
_atom_site_description
_atom_site_fract_x
_atom_site_fract_y
_atom_site_fract_z
_atom_type_partial_charge
O1    O     O_R   0.494530 0.422540 0.612660 -0.623529
O2    O     O_R   0.504350 0.561840 0.618900 -0.627098
C1    C     C_R   0.501449 0.488318 0.653324 0.877090
O3    O     O_R   0.678320 0.430330 0.496880 -0.631963
O4    O     O_R   0.688140 0.569640 0.503120 -0.620011
C2    C     C_R   0.740186 0.500145 0.493602 0.877417
Zn1   Zn    Zn3+2 0.493440 0.406980 0.495830 0.938519
Zn2   Zn    Zn3+2 0.506560 0.593020 0.504170 0.956544
O5    O     O_R   0.495650 0.438160 0.381100 -0.621995
O6    O     O_R   0.505470 0.577460 0.387340 -0.636434
O7    O     O_R   0.311860 0.430360 0.496880 -0.632925
O8    O     O_R   0.321680 0.569670 0.503120 -0.595643
C3    C     C_R   0.499961 0.511851 0.346836 0.872935
C4    C     C_R   0.260331 0.498622 0.508429 0.894289
H1    H     H_    0.896534 0.630442 0.513222 0.175744
C5    C     C_R   0.877860 0.351221 0.449841 -0.152095
H2    H     H_    0.793204 0.353926 0.414235 0.168570
C6    C     C_R   0.931101 0.273880 0.461687 -0.284446
H3    H     H_    0.883865 0.219392 0.438295 0.138347
C7    C     C_R   0.040787 0.266484 0.506766 0.045111
C8    C     C_R   0.104044 0.339086 0.531014 -0.137566
H4    H     H_    0.187868 0.332630 0.567014 0.193524
C9    C     C_R   0.056856 0.418785 0.511223 0.054593
C10   C     C_R   0.934605 0.423067 0.482467 0.106379
C11   C     C_R   0.873884 0.498887 0.489471 -0.136388
C12   C     C_R   0.941244 0.571815 0.507785 -0.230393
H5    H     H_    0.119124 0.628484 0.528366 0.210327
C13   C     C_R   0.067745 0.570369 0.519084 -0.161958
C14   C     C_R   0.126925 0.494949 0.517907 -0.140063
C15   C     C_R   0.507680 0.480382 0.740093 -0.023445
C16   C     C_R   0.541235 0.550781 0.781947 -0.221995
C17   C     C_R   0.540933 0.546125 0.864302 -0.216382
C18   C     C_R   0.505156 0.471112 0.906618 0.324516
C19   C     C_R   0.480826 0.397955 0.865166 -0.010971
C20   C     C_R   0.480821 0.403682 0.781487 -0.329672
C21   C     C_R   0.382296 0.471182 0.141764 0.032736
C22   C     C_R   0.404453 0.464295 0.223891 -0.281081
C23   C     C_R   0.445725 0.536116 0.096396 0.247967
N1    N     N_2   0.491212 0.469800 0.990270 -0.120670
N2    N     N_2   0.451244 0.536219 0.012862 -0.218888
C24   C     C_R   0.485684 0.521349 0.260601 -0.090871
H6    H     H_    0.355785 0.415316 0.259916 0.154278
H7    H     H_    0.458094 0.348683 0.748680 0.162464
C25   C     C_R   0.542207 0.589349 0.215550 -0.030040
C26   C     C_R   0.519663 0.596372 0.133478 -0.235854
H8    H     H_    0.565756 0.601931 0.895312 0.155248
H9    H     H_    0.567152 0.645605 0.097122 0.149843
H10   H     H_    0.566249 0.610040 0.751135 0.162382
N3    N     N_R   0.515300 0.716920 0.509720 -0.129215
C27   C     C_R   0.446453 0.764047 0.455956 0.053771
C28   C     C_R   0.461207 0.852502 0.451084 -0.111690
C29   C     C_R   0.540238 0.891798 0.507605 0.224089
C30   C     C_R   0.608162 0.841374 0.561926 -0.288354
C31   C     C_R   0.595320 0.754222 0.561708 -0.033494
C32   C     C_R   0.553736 0.152339 0.549583 -0.082109
C33   C     C_R   0.558170 0.240170 0.543639 -0.051414
C34   C     C_R   0.473791 0.108503 0.496635 0.283912
N4    N     N_2   0.557538 0.980708 0.509625 -0.184846
N5    N     N_2   0.459403 0.019451 0.497800 -0.180564
N6    N     N_R   0.484690 0.283070 0.490290 -0.098634
H11   H     H_    0.617297 0.274810 0.584064 0.147626
H12   H     H_    0.671559 0.869725 0.604356 0.167362
H13   H     H_    0.650210 0.716210 0.602912 0.138034
C35   C     C_R   0.406058 0.242302 0.440080 0.018406
C36   C     C_R   0.399427 0.154972 0.442496 -0.252031
H14   H     H_    0.347131 0.277479 0.398934 0.124403
H15   H     H_    0.335665 0.123368 0.402454 0.149676
C37   C     C_R   0.629391 0.651245 0.251434 0.135827
C38   C     C_R   0.603386 0.736288 0.245840 -0.184008
C39   C     C_R   0.683016 0.794421 0.282088 -0.158737
C40   C     C_R   0.790309 0.768349 0.322768 -0.092892
C41   C     C_R   0.818371 0.684140 0.327034 -0.112927
C42   C     C_R   0.738230 0.625631 0.291726 -0.119640
H16   H     H_    0.520128 0.757254 0.214912 0.137615
H17   H     H_    0.661411 0.859670 0.278751 0.131642
H18   H     H_    0.851981 0.813434 0.350680 0.146927
H19   H     H_    0.902287 0.664230 0.357668 0.155428
H20   H     H_    0.760680 0.560478 0.295953 0.103769
C43   C     C_R   0.626122 0.109717 0.614461 0.128542
C44   C     C_R   0.565854 0.054348 0.670970 -0.097598
C45   C     C_R   0.634725 0.014271 0.732010 -0.163036
C46   C     C_R   0.763803 0.029726 0.737582 -0.116458
C47   C     C_R   0.824158 0.085568 0.682325 -0.122080
C48   C     C_R   0.755629 0.125701 0.621185 -0.174858
H21   H     H_    0.465774 0.042173 0.667628 0.151020
H22   H     H_    0.587992 0.971288 0.775042 0.135816
H23   H     H_    0.816977 0.998634 0.784853 0.130969
H24   H     H_    0.924064 0.097757 0.686819 0.150070
H25   H     H_    0.803512 0.168660 0.578777 0.128576
C49   C     C_2   0.405401 0.903133 0.383490 0.367823
H26   H     H_    0.454506 0.959398 0.359878 0.077074
O9    O     O_2   0.304165 0.883830 0.354235 -0.552181
C50   C     C_2   0.360340 0.722064 0.400613 0.597016
H27   H     H_    0.393648 0.702215 0.344185 0.039748
O10   O     O_2   0.249241 0.713922 0.415853 -0.573056
C51   C     C_2   0.088660 0.182962 0.526999 0.343759
H28   H     H_    0.040939 0.128082 0.504403 0.072461
O11   O     O_2   0.180775 0.174193 0.569750 -0.581728
C52   C     C_R   0.293357 0.410757 0.104562 0.143727
C53   C     C_R   0.205434 0.438453 0.047039 -0.134527
C54   C     C_R   0.122578 0.381579 0.011740 -0.138558
C55   C     C_R   0.125847 0.296699 0.033846 -0.110317
C56   C     C_R   0.211801 0.268529 0.091449 -0.098157
C57   C     C_R   0.295116 0.325112 0.126784 -0.081743
H29   H     H_    0.200424 0.504108 0.029792 0.133610
H30   H     H_    0.055546 0.403382 0.967360 0.137880
H31   H     H_    0.061654 0.252766 0.006422 0.131142
H32   H     H_    0.214346 0.202724 0.108465 0.129934
H33   H     H_    0.362281 0.301813 0.170409 0.123270
C58   C     C_2   0.451674 0.315497 0.906298 0.397609
H34   H     H_    0.418194 0.263752 0.871765 0.059527
O12   O     O_2   0.467166 0.303424 0.978276 -0.559658

loop_
_geom_bond_atom_site_label_1
_geom_bond_atom_site_label_2
_geom_bond_distance
_ccdc_geom_bond_type
C32   C33   1.409656 A    
C50   H27   1.081637 S    
C3    C24   1.449913 S    
C45   C46   1.397597 A    
C30   C31   1.403054 A    
C29   C30   1.402902 A    
Zn1   O7    1.996531 S    
C53   H29   1.082789 S    
C18   N1    1.408130 S    
C15   C20   1.402105 A    
O4    C2    1.287795 A    
C9    C14   1.419021 A    
C21   C22   1.391416 A    
C6    H3    1.083503 S    
C28   C49   1.491877 S    
C40   H18   1.082300 S    
O7    C4    1.273969 A    
C34   N5    1.433359 S    
C2    C11   1.435407 S    
C31   H13   1.081800 S    
C46   H23   1.082280 S    
C19   C20   1.398190 A    
C22   H6    1.084569 S    
O5    C3    1.287464 A    
C58   H34   1.085715 S    
C23   C26   1.394137 A    
C41   H19   1.081514 S    
C47   C48   1.397824 A    
C5    H2    1.080945 S    
C36   H15   1.082982 S    
C51   O11   1.221123 D    
C42   H20   1.083255 S    
C39   C40   1.397365 A    
C20   H7    1.084275 S    
C45   H22   1.082285 S    
C41   C42   1.398202 A    
C52   C57   1.407952 A    
C7    C51   1.478560 S    
C5    C10   1.416620 A    
C8    H4    1.081477 S    
C43   C48   1.404735 A    
C38   C39   1.398197 A    
O3    Zn1   2.000243 S    
C27   C28   1.422965 A    
C26   H9    1.084554 S    
C50   O10   1.219756 D    
C28   C29   1.419557 A    
C54   C55   1.396605 A    
C38   H16   1.083135 S    
C10   C11   1.416615 A    
O3    C2    1.278853 A    
N1    N2    1.246080 D    
C37   C38   1.405151 A    
H1    C12   1.083716 S    
C37   C42   1.405939 A    
C33   N6    1.362282 A    
O1    C1    1.287991 A    
C35   H14   1.081977 S    
C1    C15   1.451638 S    
C44   H21   1.083096 S    
C32   C43   1.481622 S    
C30   H12   1.083032 S    
C49   O9    1.220514 D    
C16   C17   1.376008 A    
Zn2   O8    2.000242 S    
C51   H28   1.085597 S    
C18   C19   1.411961 A    
C55   H31   1.082301 S    
C33   H11   1.082711 S    
C56   H32   1.082323 S    
C29   N4    1.436596 S    
Zn2   O6    1.984229 S    
O8    C4    1.293640 A    
N3    C27   1.373304 A    
C16   H10   1.083571 S    
C32   C34   1.420576 A    
C19   C58   1.483471 S    
C24   C25   1.412629 A    
C25   C37   1.483428 S    
C48   H25   1.080994 S    
C4    C14   1.437679 S    
Zn1   N6    1.998515 S    
C39   H17   1.082375 S    
C25   C26   1.391244 A    
C54   H30   1.082336 S    
Zn1   O5    1.957661 S    
C13   C14   1.392943 A    
O1    Zn1   1.984231 S    
N4    N5    1.252522 D    
C17   H8    1.083471 S    
O2    Zn2   1.957663 S    
C34   C36   1.405127 A    
C44   C45   1.398216 A    
O6    C3    1.283970 A    
O4    Zn2   1.996530 S    
C27   C50   1.470908 S    
C12   C13   1.367114 A    
C52   C53   1.407551 A    
N6    C35   1.358364 A    
C35   C36   1.401902 A    
C8    C9    1.418550 A    
O2    C1    1.286145 A    
C11   C12   1.398228 A    
C40   C41   1.397387 A    
C17   C18   1.406394 A    
C23   N2    1.399527 S    
C49   H26   1.085140 S    
C15   C16   1.396273 A    
C21   C23   1.412046 A    
C53   C54   1.397989 A    
C47   H24   1.082470 S    
C21   C52   1.488902 S    
C6    C7    1.395353 A    
C22   C24   1.400348 A    
C55   C56   1.396673 A    
C58   O12   1.220205 D    
C9    C10   1.393473 A    
C43   C44   1.406001 A    
C7    C8    1.402847 A    
C5    C6    1.393364 A    
C46   C47   1.397492 A    
C56   C57   1.398195 A    
C57   H33   1.082858 S    
Zn2   N3    1.998371 S    
N3    C31   1.360334 A    
H5    C13   1.082700 S    
