data_mof_unit_1706.cif
_audit_creation_date              2013-03-05T15:39:51-0500
_audit_creation_method            fapswitch 2.2
_symmetry_space_group_name_H-M    P1
_symmetry_Int_Tables_number       1
_space_group_crystal_system       triclinic
_cell_length_a                    8.299981
_cell_length_b                    15.200514
_cell_length_c                    18.969345
_cell_angle_alpha                 95.588537
_cell_angle_beta                  93.604004
_cell_angle_gamma                 100.324585
_cell_volume                      2335.40952613

loop_
_atom_site_label
_atom_site_type_symbol
_atom_site_description
_atom_site_fract_x
_atom_site_fract_y
_atom_site_fract_z
_atom_type_partial_charge
P1    P     P_3+3 0.028530 0.430100 0.340790 0.472162
O1    O     O_2   0.860810 0.457220 0.330270 -0.366911
O2    O     O_3   0.115570 0.454630 0.416610 -0.415078
O3    O     O_3   0.655480 0.619980 0.374380 -0.417340
O4    O     O_2   0.752636 0.559459 0.250356 -0.392711
O5    O     O_3   0.981738 0.312871 0.321165 -0.535460
O6    O     O_3   0.698810 0.723856 0.257458 -0.516123
H1    H     H_    0.739226 0.785796 0.360992 0.131872
C1    C     C_3   0.706708 0.881013 0.287698 -0.901740
H2    H     H_    0.839124 0.896783 0.278506 0.290693
H3    H     H_    0.631918 0.885279 0.237928 0.258219
P2    P     P_3+3 0.683360 0.705380 0.556640 0.646879
P3    P     P_3+3 0.138374 0.780199 0.408453 0.518142
O7    O     O_2   0.857830 0.719490 0.535920 -0.300417
O8    O     O_3   0.080900 0.665060 0.409740 -0.376785
O9    O     O_2   0.013435 0.821693 0.451044 -0.304271
O10   O     O_3   0.704063 0.729300 0.650074 -0.476062
O11   O     O_3   0.099872 0.805970 0.321798 -0.534856
C2    C     C_3   0.132028 0.735625 0.274147 0.439223
H4    H     H_    0.038764 0.673749 0.275946 0.150673
H5    H     H_    0.256675 0.721210 0.286418 0.008160
C3    C     C_3   0.122547 0.762269 0.199048 -0.902854
H6    H     H_    0.144199 0.706231 0.160904 0.213542
H7    H     H_    0.999100 0.777283 0.185027 0.285700
C4    C     C_3   0.240915 0.760601 0.688740 0.959655
C5    C     C_3   0.328906 0.821943 0.755090 -0.823064
H8    H     H_    0.450214 0.806023 0.770245 0.237797
H9    H     H_    0.349521 0.893666 0.744884 0.286652
H10   H     H_    0.253242 0.814822 0.801226 0.237534
Ba1   Ba    Ba6+2 0.852120 0.544010 0.466690 1.647386
C6    C     C_3   0.938769 0.273018 0.382335 0.434690
H11   H     H_    0.831829 0.298093 0.402538 0.067085
H12   H     H_    0.042512 0.287956 0.424039 0.126089
C7    C     C_3   0.894539 0.171457 0.363471 -0.908050
H13   H     H_    0.783051 0.153932 0.325622 0.263703
H14   H     H_    0.870673 0.137538 0.411863 0.206658
H15   H     H_    0.997803 0.146235 0.338954 0.298995
C8    C     C_3   0.694731 0.651096 0.685145 1.006061
H16   H     H_    0.614946 0.591356 0.655646 0.092791
C9    C     C_3   0.624079 0.666215 0.757345 -1.065920
H17   H     H_    0.688258 0.730927 0.786985 0.278687
H18   H     H_    0.639962 0.610793 0.789676 0.247212
H19   H     H_    0.491665 0.666923 0.750114 0.257658
P4    P     P_3+3 0.161190 0.569970 0.659220 0.574476
O12   O     O_2   0.328890 0.542810 0.669780 -0.399186
O13   O     O_3   0.074140 0.545440 0.583400 -0.334137
O14   O     O_3   0.534240 0.380100 0.625630 -0.356374
O15   O     O_3   0.182636 0.675923 0.711640 -0.659928
P5    P     P_3+3 0.055312 0.219643 0.592873 0.548455
O16   O     O_3   0.605420 0.392640 0.463580 -0.402986
O17   O     O_3   0.108810 0.335010 0.590270 -0.415556
O18   O     O_2   0.171022 0.175063 0.545905 -0.304309
O19   O     O_3   0.104516 0.195954 0.679110 -0.462935
Ba2   Ba    Ba6+2 0.337720 0.456070 0.533320 1.645275
P6    P     P_3+3 0.631165 0.615888 0.281658 0.430249
C10   C     C_3   0.664021 0.787153 0.310686 0.444713
H20   H     H_    0.531555 0.774047 0.319935 0.004047
H21   H     H_    0.680571 0.931298 0.329915 0.212656
O20   O     O_3   0.584290 0.607440 0.536430 -0.413025
C11   C     C_3   0.446030 0.333105 0.316484 0.265657
H22   H     H_    0.324968 0.345590 0.332346 0.094381
H23   H     H_    0.541054 0.394036 0.333901 0.090393
C12   C     C_3   0.440892 0.317235 0.235324 -0.113372
H24   H     H_    0.424838 0.380110 0.212930 0.069355
H25   H     H_    0.560238 0.301186 0.219870 0.140005
P7    P     P_3+3 0.508438 0.280745 0.438676 0.461174
O21   O     O_2   0.331880 0.280530 0.464130 -0.356394
O22   O     O_3   0.485569 0.257629 0.345972 -0.552749
H26   H     H_    0.217544 0.822746 0.195016 0.258292
C13   C     C_3   0.042783 0.255744 0.726842 0.699145
H27   H     H_    0.121774 0.323520 0.730952 0.070956
H28   H     H_    0.914659 0.260506 0.709529 -0.285245
C14   C     C_3   0.041504 0.222589 0.800103 0.022587
H29   H     H_    0.970758 0.262573 0.834309 0.046276
H30   H     H_    0.980541 0.150631 0.795288 0.195246
P8    P     P_3+3 0.560162 0.380039 0.717496 0.496076
C15   C     C_3   0.577235 0.216753 0.738461 0.149229
H31   H     H_    0.682162 0.245370 0.778192 0.006050
O23   O     O_2   0.455960 0.446068 0.749774 -0.388915
O24   O     O_3   0.462869 0.274581 0.738098 -0.453568
H32   H     H_    0.622367 0.206473 0.684803 0.104242
C16   C     C_3   0.496668 0.125832 0.761052 0.317894
H33   H     H_    0.442084 0.139376 0.812211 0.113791
C17   C     C_R   0.311023 0.532650 0.296689 -0.542084
C18   C     C_R   0.153354 0.486085 0.274205 0.306923
C19   C     C_R   0.099929 0.475326 0.201058 -0.233875
C20   C     C_R   0.205310 0.511169 0.150353 0.022334
C21   C     C_R   0.366470 0.555740 0.175214 -0.276200
C22   C     C_R   0.418819 0.565465 0.247861 0.253954
C23   C     C_R   0.207825 0.567804 0.028268 -0.170793
C24   C     C_R   0.160239 0.557484 0.954892 -0.145885
C25   C     C_R   0.053202 0.479599 0.922248 0.169141
C26   C     C_R   0.996000 0.412385 0.965859 -0.158230
C27   C     C_R   0.044093 0.422544 0.039173 -0.123217
C28   C     C_R   0.150910 0.500491 0.071866 0.148590
C29   C     C_R   0.833854 0.428562 0.820258 -0.324827
C30   C     C_R   0.778975 0.419890 0.748014 0.206363
C31   C     C_R   0.046516 0.495836 0.719730 0.391470
C32   C     C_R   0.101675 0.504294 0.792791 -0.272095
C33   C     C_R   0.997244 0.469291 0.843963 0.024218
C34   C     C_R   0.887324 0.449892 0.697959 -0.400701
H34   H     H_    0.224281 0.540971 0.809777 0.165064
H35   H     H_    0.204655 0.611820 0.924089 0.128077
H36   H     H_    0.287638 0.629669 0.051037 0.129012
H37   H     H_    0.976939 0.439174 0.184112 0.149530
H38   H     H_    0.914839 0.350937 0.943211 0.126180
H39   H     H_    0.999447 0.368250 0.069973 0.144447
H40   H     H_    0.747084 0.406223 0.858024 0.156543
H41   H     H_    0.453190 0.580702 0.138250 0.153932
H42   H     H_    0.842325 0.446072 0.642775 0.159943
H43   H     H_    0.353054 0.539442 0.352444 0.175379
C35   C     C_R   0.753466 0.237573 0.527616 -0.469290
C36   C     C_R   0.838644 0.179928 0.559932 0.135324
C37   C     C_R   0.764709 0.090498 0.560393 -0.105170
C38   C     C_R   0.626819 0.049979 0.512767 0.130500
C39   C     C_R   0.549512 0.109746 0.475177 -0.243099
C40   C     C_R   0.607762 0.202960 0.485922 0.305309
C41   C     C_R   0.407692 0.914243 0.465758 -0.202408
C42   C     C_R   0.350896 0.822242 0.447122 0.257465
C43   C     C_R   0.596763 0.789173 0.505915 0.231768
C44   C     C_R   0.662598 0.882732 0.519060 0.204794
C45   C     C_R   0.567464 0.948083 0.499069 -0.034173
C46   C     C_R   0.450217 0.760668 0.463055 -0.432595
H44   H     H_    0.322229 0.958111 0.455534 0.177848
H45   H     H_    0.820353 0.056321 0.598750 0.227786
H46   H     H_    0.447030 0.085947 0.436084 0.142928
H47   H     H_    0.403103 0.689376 0.450084 0.182292
H48   H     H_    0.806095 0.308484 0.530964 0.154728
O25   O     O_3   0.851311 0.631275 0.694392 -0.789768
H49   H     H_    0.904295 0.662024 0.740804 0.340581
N1    N     N_R   0.307617 0.244673 0.204292 0.282099
O26   O     O_R   0.285491 0.226772 0.135548 -0.363878
O27   O     O_R   0.210940 0.197328 0.243728 -0.345746
O28   O     O_3   0.202325 0.232872 0.830904 -0.684321
H50   H     H_    0.193052 0.210598 0.878220 0.345738
N2    N     N_R   0.619598 0.069709 0.772577 0.198102
O29   O     O_R   0.647689 0.044827 0.835188 -0.386123
O30   O     O_R   0.700209 0.043149 0.720472 -0.357203
N3    N     N_R   0.366625 0.078224 0.708045 0.273923
O31   O     O_R   0.397803 0.059827 0.642426 -0.322129
O32   O     O_R   0.221967 0.046919 0.727668 -0.296062
N4    N     N_R   0.819475 0.909192 0.557628 0.247790
O33   O     O_R   0.942238 0.952781 0.528042 -0.351621
O34   O     O_R   0.829371 0.907920 0.626157 -0.221097
N5    N     N_R   0.353562 0.756989 0.633711 0.179912
O35   O     O_R   0.463276 0.828872 0.630482 -0.400669
O36   O     O_R   0.303504 0.703819 0.575804 -0.424250
N6    N     N_R   0.103313 0.800832 0.664403 0.248102
O37   O     O_R   0.111839 0.841151 0.606968 -0.261596
O38   O     O_R   0.000124 0.820065 0.709763 -0.327202

loop_
_geom_bond_atom_site_label_1
_geom_bond_atom_site_label_2
_geom_bond_distance
_ccdc_geom_bond_type
P7    O22   1.750919 S    
C20   C21   1.415718 A    
C12   H25   1.111699 S    
C26   C27   1.408389 A    
C7    H15   1.109511 S    
C14   H29   1.110944 S    
P5    C36   1.839850 S    
C2    H4    1.110677 S    
P8    O23   1.545409 D    
O6    P6    1.751650 S    
H1    C10   1.110968 S    
C37   C38   1.419273 A    
C23   C28   1.412354 A    
C15   H31   1.110641 S    
C43   C44   1.420747 A    
Ba1   Ba2   4.609651 S    
C5    H8    1.104297 S    
O16   Ba2   2.916441 S    
P3    O11   1.749822 S    
C11   C12   1.531651 S    
C3    H7    1.110870 S    
C2    H5    1.110606 S    
N6    O38   1.301077 A    
O14   P8    1.742505 S    
P1    O1    1.527884 D    
C8    H16   1.102338 S    
C7    H13   1.110658 S    
O2    Ba2   2.786490 S    
C38   C39   1.422364 A    
C10   H20   1.109883 S    
C11   H23   1.111222 S    
O11   C2    1.405706 S    
C41   C45   1.417487 A    
C41   C42   1.396190 A    
C25   C26   1.412009 A    
P3    C42   1.843865 S    
P2    C43   1.882733 S    
P2    O20   1.565205 S    
P4    C31   1.870324 S    
C9    H19   1.101083 S    
C6    H11   1.102532 S    
P5    O17   1.736472 S    
P7    C40   1.828593 S    
C20   C28   1.512956 S    
P2    O10   1.765467 S    
C6    H12   1.108199 S    
C13   H27   1.110444 S    
C12   N1    1.463227 S    
C1    H2    1.110660 S    
C3    H26   1.110902 S    
C43   C46   1.395117 A    
C21   C22   1.404176 A    
C9    H18   1.110631 S    
P7    O21   1.571049 D    
C29   H40   1.082484 S    
C38   C45   1.530116 S    
C39   H46   1.078177 S    
C29   C30   1.402750 A    
C16   N2    1.461811 S    
C14   H30   1.112260 S    
O6    C10   1.405560 S    
O7    Ba1   2.847177 S    
O19   C13   1.404764 S    
C35   C36   1.384044 A    
N5    O36   1.296835 A    
P4    O13   1.548540 S    
N5    O35   1.300107 A    
Ba2   O20   2.785031 S    
P1    C18   1.857629 S    
C27   H39   1.082256 S    
C17   H43   1.081854 S    
P1    O5    1.751938 S    
C8    O25   1.390142 S    
C2    C3    1.519651 S    
C17   C18   1.390851 A    
N2    O30   1.299932 A    
C24   C25   1.409025 A    
C37   H45   1.063003 S    
C19   C20   1.422684 A    
Ba2   O21   2.847516 S    
P8    C30   1.845439 S    
C18   C19   1.414610 A    
C11   H22   1.109709 S    
P1    O2    1.548511 S    
O2    Ba1   2.933314 S    
C16   N3    1.463409 S    
C26   H38   1.081999 S    
C1    H3    1.110650 S    
C46   H47   1.082540 S    
C32   C33   1.420451 A    
C15   H32   1.112969 S    
P5    O18   1.548737 D    
Ba1   O20   2.917357 S    
O13   Ba2   2.934143 S    
C13   C14   1.523744 S    
C6    C7    1.522768 S    
C1    C10   1.520083 S    
C41   H44   1.078362 S    
N6    O37   1.300714 A    
O16   P7    1.751847 S    
C4    O15   1.411218 S    
C23   H36   1.082274 S    
C44   C45   1.439067 A    
C36   C37   1.388720 A    
O14   Ba2   2.787506 S    
C21   H41   1.082175 S    
C9    H17   1.110976 S    
P2    O7    1.508018 D    
O12   Ba2   2.799673 S    
C31   C32   1.418214 A    
P3    O8    1.732568 S    
O3    P6    1.751509 S    
N4    O34   1.299623 A    
C19   H37   1.081956 S    
C17   C22   1.393351 A    
N1    O26   1.300440 A    
P4    O12   1.528072 D    
C25   C33   1.512422 S    
O8    Ba1   2.747926 S    
O25   H49   0.992214 S    
C15   O24   1.404717 S    
C1    H21   1.111160 S    
P2    Ba1   3.406908 S    
C3    H6    1.110223 S    
C44   N4    1.423957 S    
O4    P6    1.546223 D    
P8    O24   1.752766 S    
C34   H42   1.081627 S    
C24   H35   1.082321 S    
N2    O29   1.300885 A    
N1    O27   1.301823 A    
C13   H28   1.110079 S    
N3    O31   1.301233 A    
O28   H50   0.992319 S    
C42   C46   1.395455 A    
C31   C34   1.395905 A    
C5    H9    1.110736 S    
Ba1   O13   2.785859 S    
O1    Ba1   2.799102 S    
O17   Ba2   2.748657 S    
C4    C5    1.548763 S    
P6    C22   1.839238 S    
C8    C9    1.536380 S    
N3    O32   1.300951 A    
C23   C24   1.408587 A    
C35   C40   1.391220 A    
C15   C16   1.536542 S    
P5    O19   1.748126 S    
C29   C33   1.411654 A    
P1    Ba1   3.374703 S    
C39   C40   1.403102 A    
O5    C6    1.397189 S    
C4    N6    1.459631 S    
C7    H14   1.107328 S    
O10   C8    1.410383 S    
Ba1   O16   2.785663 S    
C27   C28   1.409146 A    
O3    Ba1   2.788125 S    
C35   H48   1.082167 S    
C12   H24   1.108703 S    
P4    Ba2   3.375188 S    
C32   H34   1.081953 S    
C14   O28   1.398889 S    
C11   O22   1.404882 S    
C5    H10   1.111413 S    
C16   H33   1.113210 S    
P3    O9    1.538329 D    
N4    O33   1.301740 A    
C4    N5    1.448029 S    
C30   C34   1.401056 A    
P4    O15   1.782523 S    
