data_mof_unit_3044.cif
_audit_creation_date              2012-12-10T20:41:55-0500
_audit_creation_method            fapswitch 2.2
_symmetry_space_group_name_H-M    P1
_symmetry_Int_Tables_number       1
_space_group_crystal_system       triclinic
_cell_length_a                    14.873772
_cell_length_b                    15.135752
_cell_length_c                    9.997246
_cell_angle_alpha                 89.759503
_cell_angle_beta                  89.30674
_cell_angle_gamma                 89.289313
_cell_volume                      2250.2809419

loop_
_atom_site_label
_atom_site_type_symbol
_atom_type_description
_atom_site_fract_x
_atom_site_fract_y
_atom_site_fract_z
_atom_type_partial_charge
C1    C     C_R   0.381460 0.879224 0.500850 0.866746
C2    C     C_R   0.380219 0.119325 0.500260 0.873650
C3    C     C_R   0.881465 0.379219 0.500849 0.866750
C4    C     C_R   0.880220 0.619325 0.500261 0.873667
C5    C     C_3   0.168135 0.101670 0.556502 -0.514332
C6    C     C_3   0.218576 0.849581 0.705904 -0.486019
C7    C     C_3   0.668186 0.601722 0.557026 -0.514302
C8    C     C_3   0.718733 0.349442 0.706103 -0.485929
C9    C     C_R   0.422873 0.016903 0.071899 0.202938
C10   C     C_R   0.922872 0.516893 0.071899 0.202916
C11   C     C_R   0.574323 0.974377 0.069830 -0.053539
C12   C     C_R   0.074326 0.474384 0.069828 -0.053540
C13   C     C_R   0.575018 0.976724 0.926316 -0.050896
C14   C     C_R   0.075026 0.476748 0.926314 -0.050869
C15   C     C_R   0.422708 0.016375 0.930471 0.190648
C16   C     C_R   0.922705 0.516363 0.930471 0.190648
C17   C     C_3   0.367294 0.099096 0.925484 -0.505954
C18   C     C_3   0.867286 0.599080 0.925484 -0.505990
C19   C     C_3   0.367743 0.099664 0.077339 -0.508004
C20   C     C_3   0.867733 0.599650 0.077337 -0.507976
C21   C     C_R   0.620231 0.119380 0.499715 0.868428
C22   C     C_R   0.619524 0.880516 0.499553 0.877068
C23   C     C_R   0.120233 0.619377 0.499715 0.868436
C24   C     C_R   0.119521 0.380513 0.499551 0.877044
C25   C     C_R   0.226182 0.163325 0.477833 0.107792
C26   C     C_R   0.274031 0.788544 0.620438 0.132278
C27   C     C_R   0.726156 0.663303 0.478092 0.107808
C28   C     C_R   0.774126 0.288454 0.620472 0.132241
C29   C     C_R   0.314964 0.186065 0.498965 -0.071840
C30   C     C_R   0.322581 0.806696 0.503954 -0.094732
C31   C     C_R   0.814961 0.686061 0.498974 -0.071869
C32   C     C_R   0.822596 0.306681 0.503942 -0.094743
C33   C     C_R   0.341792 0.274110 0.499333 -0.266167
C34   C     C_R   0.315197 0.752426 0.391788 -0.243165
C35   C     C_R   0.841792 0.774106 0.499135 -0.266163
C36   C     C_R   0.815121 0.252497 0.391698 -0.243179
C37   C     C_R   0.776246 0.839721 0.497463 -0.176467
C38   C     C_R   0.749132 0.189214 0.390754 -0.237300
C39   C     C_R   0.276246 0.339724 0.497648 -0.176534
C40   C     C_R   0.249219 0.689129 0.390849 -0.237317
C41   C     C_R   0.686153 0.815182 0.496883 -0.052723
C42   C     C_R   0.691887 0.180193 0.501670 -0.090634
C43   C     C_R   0.186154 0.315182 0.496872 -0.052722
C44   C     C_R   0.191886 0.680193 0.501682 -0.090604
C45   C     C_R   0.661387 0.728233 0.477362 0.097226
C46   C     C_R   0.708927 0.225813 0.619081 0.124330
C47   C     C_R   0.161412 0.228253 0.477095 0.097295
C48   C     C_R   0.208841 0.725895 0.619046 0.124336
C49   C     C_3   0.596398 0.673796 0.556098 -0.502537
C50   C     C_3   0.646098 0.280110 0.703966 -0.498727
C51   C     C_3   0.096340 0.173737 0.555545 -0.502577
C52   C     C_3   0.145953 0.780233 0.703775 -0.498742
H1    H     H_    0.412112 0.291503 0.505054 0.133458
H2    H     H_    0.356689 0.761818 0.303145 0.167006
H3    H     H_    0.912118 0.791503 0.504690 0.133448
H4    H     H_    0.856541 0.261955 0.302999 0.167041
H5    H     H_    0.405258 0.156036 0.119421 0.211810
H6    H     H_    0.300272 0.088616 0.122968 0.197046
H7    H     H_    0.905244 0.656025 0.119419 0.211805
H8    H     H_    0.800263 0.588597 0.122966 0.197047
H9    H     H_    0.795134 0.908592 0.500968 0.153551
H10   H     H_    0.740457 0.150852 0.302083 0.166157
H11   H     H_    0.295126 0.408593 0.501294 0.153580
H12   H     H_    0.240629 0.650680 0.302245 0.166139
H13   H     H_    0.581373 0.701647 0.656840 0.204552
H14   H     H_    0.633280 0.249581 0.803543 0.197792
H15   H     H_    0.081192 0.201493 0.656311 0.204533
H16   H     H_    0.133085 0.749763 0.803380 0.197808
H17   H     H_    0.536432 0.656445 0.496781 0.199650
H18   H     H_    0.584757 0.301745 0.649620 0.192057
H19   H     H_    0.036448 0.156437 0.496025 0.199663
H20   H     H_    0.084639 0.801823 0.649323 0.192041
H21   H     H_    0.194846 0.087318 0.657861 0.200618
H22   H     H_    0.248178 0.858646 0.806430 0.202810
H23   H     H_    0.695003 0.587451 0.658345 0.200626
H24   H     H_    0.748404 0.358430 0.806601 0.202799
H25   H     H_    0.149764 0.042594 0.497568 0.195739
H26   H     H_    0.199490 0.911716 0.653224 0.193946
H27   H     H_    0.649739 0.542598 0.498258 0.195713
H28   H     H_    0.699626 0.411617 0.653546 0.193956
H29   H     H_    0.404255 0.155322 0.879858 0.211886
H30   H     H_    0.299574 0.087651 0.883527 0.194197
H31   H     H_    0.904244 0.655308 0.879857 0.211887
H32   H     H_    0.799567 0.587631 0.883526 0.194154
N1    N     N_R   0.499140 0.000000 0.142800 -0.131439
N2    N     N_R   0.999140 0.500000 0.142800 -0.131437
N3    N     N_R   0.499160 0.000000 0.857150 -0.131567
N4    N     N_R   0.999160 0.500000 0.857150 -0.131568
O1    O     O_R   0.408400 0.908380 0.614690 -0.616816
O2    O     O_R   0.408400 0.091620 0.614690 -0.620580
O3    O     O_R   0.908400 0.408380 0.614690 -0.616819
O4    O     O_R   0.908400 0.591620 0.614690 -0.620589
O5    O     O_R   0.408370 0.908370 0.385350 -0.621672
O6    O     O_R   0.408370 0.091630 0.385350 -0.618892
O7    O     O_R   0.908370 0.408370 0.385350 -0.621695
O8    O     O_R   0.908370 0.591630 0.385350 -0.618886
O9    O     O_R   0.591610 0.091610 0.614650 -0.618702
O10   O     O_R   0.591610 0.908390 0.614650 -0.617042
O11   O     O_R   0.091610 0.591610 0.614650 -0.618702
O12   O     O_R   0.091610 0.408390 0.614650 -0.617063
O13   O     O_R   0.591590 0.091600 0.385310 -0.620000
O14   O     O_R   0.591590 0.908400 0.385310 -0.616519
O15   O     O_R   0.091590 0.591600 0.385310 -0.619982
O16   O     O_R   0.091590 0.408400 0.385310 -0.616493
Zn1   Zn    Zn3+2 0.500010 1.000000 0.653130 0.935955
Zn2   Zn    Zn3+2 0.000010 0.500000 0.653130 0.935947
Zn3   Zn    Zn3+2 0.499980 0.000000 0.346870 0.938990
Zn4   Zn    Zn3+2 0.999980 0.500000 0.346870 0.938995
C53   C     C_R   0.658206 0.946295 0.135750 0.222237
C54   C     C_R   0.728171 0.006780 0.147158 -0.145685
C55   C     C_R   0.814902 0.977817 0.179212 -0.162814
C56   C     C_R   0.833013 0.887641 0.195229 -0.104541
C57   C     C_R   0.764109 0.826567 0.181090 -0.131714
C58   C     C_R   0.677009 0.855593 0.151662 -0.138995
H33   H     H_    0.716516 0.075318 0.121008 0.104640
H34   H     H_    0.868671 0.024979 0.186905 0.128154
H35   H     H_    0.900437 0.864998 0.217993 0.125800
H36   H     H_    0.778090 0.756744 0.192895 0.139114
H37   H     H_    0.624884 0.807436 0.136436 0.110034
C59   C     C_R   0.158201 0.446282 0.135749 0.222230
C60   C     C_R   0.228177 0.506752 0.147187 -0.145670
C61   C     C_R   0.314891 0.477773 0.179304 -0.162829
C62   C     C_R   0.332977 0.387594 0.195354 -0.104468
C63   C     C_R   0.264066 0.326534 0.181165 -0.131747
C64   C     C_R   0.176982 0.355577 0.151667 -0.139027
H38   H     H_    0.216540 0.575294 0.121037 0.104691
H39   H     H_    0.368668 0.524923 0.187034 0.128142
H40   H     H_    0.400387 0.364940 0.218178 0.125817
H41   H     H_    0.278029 0.256709 0.192986 0.139097
H42   H     H_    0.124851 0.307430 0.136413 0.110036
C65   C     C_R   0.661533 0.960959 0.854969 0.208617
C66   C     C_R   0.697231 0.874708 0.845232 -0.120631
C67   C     C_R   0.787096 0.861076 0.807637 -0.115309
C68   C     C_R   0.841287 0.933094 0.775532 -0.134631
C69   C     C_R   0.805731 0.018877 0.781715 -0.174687
C70   C     C_R   0.716668 0.032844 0.823452 -0.117696
H43   H     H_    0.656368 0.818420 0.871817 0.107615
H44   H     H_    0.814616 0.794634 0.802919 0.139572
H45   H     H_    0.910698 0.922343 0.745433 0.128584
H46   H     H_    0.847887 0.074704 0.757904 0.136529
H47   H     H_    0.691835 0.099658 0.837224 0.123778
C71   C     C_R   0.161556 0.461053 0.854972 0.208576
C72   C     C_R   0.197328 0.374831 0.845246 -0.120575
C73   C     C_R   0.287216 0.361273 0.807717 -0.115371
C74   C     C_R   0.341353 0.433337 0.775641 -0.134784
C75   C     C_R   0.305720 0.519091 0.781801 -0.174663
C76   C     C_R   0.216638 0.532985 0.823492 -0.117747
H48   H     H_    0.156508 0.318510 0.871809 0.107691
H49   H     H_    0.314797 0.294854 0.803027 0.139573
H50   H     H_    0.410779 0.422643 0.745588 0.128591
H51   H     H_    0.347835 0.574952 0.758014 0.136550
H52   H     H_    0.191746 0.599780 0.837259 0.123821

loop_
_geom_bond_atom_site_label_1
_geom_bond_atom_site_label_2
_ccdc_geom_bond_type
O13   Zn3   S    
C23   O11   A    
C14   C71   S    
C22   O10   A    
C11   C53   S    
C55   C56   A    
C74   C75   A    
C62   C63   A    
C19   H5    S    
C28   C46   A    
C73   H49   S    
O10   Zn1   S    
C49   H13   S    
C2    C29   S    
C34   C40   A    
C32   C36   A    
C15   N3    A    
C35   C37   A    
C38   C42   A    
C56   H35   S    
C6    H26   S    
C22   C41   S    
C72   C73   A    
C29   C33   A    
C8    H24   S    
C7    C27   S    
C3    O3    A    
C17   H30   S    
C42   C46   A    
C61   H39   S    
C2    O2    A    
C54   C55   A    
C9    N1    A    
C4    O8    A    
C33   C39   A    
C64   H42   S    
C9    C19   S    
C12   C59   S    
C10   C20   S    
C66   C67   A    
C18   H32   S    
C55   H34   S    
C45   C49   S    
C20   H8    S    
C25   C47   A    
C40   C44   A    
C17   H29   S    
C74   H50   S    
C52   H16   S    
C26   C48   A    
C21   O13   A    
C27   C45   A    
C69   C70   A    
O8    Zn4   S    
C67   H44   S    
C49   H17   S    
C25   C29   A    
O3    Zn2   S    
C72   H48   S    
C51   H19   S    
C56   C57   A    
N4    Zn2   S    
C6    H22   S    
C19   H6    S    
C33   H1    S    
C69   H46   S    
C23   O15   A    
O6    Zn3   S    
C30   C34   A    
C27   C31   A    
C2    O6    A    
C7    C49   S    
C57   C58   A    
C65   C70   A    
C68   H45   S    
C59   C64   A    
C7    H23   S    
C66   H43   S    
C35   H3    S    
C23   C44   S    
C21   C42   S    
C75   H51   S    
C24   O16   A    
C70   H47   S    
C36   H4    S    
C21   O9    A    
C37   H9    S    
N3    Zn1   S    
C28   C32   A    
C8    H28   S    
C52   H20   S    
C13   N3    A    
C18   H31   S    
C13   C65   S    
O14   Zn3   S    
C16   C18   S    
C51   H15   S    
C20   H7    S    
C50   H14   S    
C60   C61   A    
O15   Zn4   S    
C53   C58   A    
C5    C25   S    
O4    Zn2   S    
C12   C14   A    
C34   H2    S    
C4    O4    A    
C67   C68   A    
C8    C28   S    
C31   C35   A    
C5    H25   S    
C65   C66   A    
C8    C50   S    
O16   Zn4   S    
C59   C60   A    
C7    H27   S    
C75   C76   A    
C15   C17   S    
O11   Zn2   S    
C10   N2    A    
C1    O1    A    
C24   O12   A    
C71   C76   A    
C5    H21   S    
N2    Zn4   S    
C58   H37   S    
O2    Zn1   S    
C73   C74   A    
C22   O14   A    
C47   C51   S    
C26   C30   A    
C68   C69   A    
C39   H11   S    
C46   C50   S    
O12   Zn2   S    
C40   H12   S    
C12   N2    A    
C36   C38   A    
C76   H52   S    
C9    C15   A    
O9    Zn1   S    
C60   H38   S    
C10   C16   A    
C53   C54   A    
O5    Zn3   S    
C11   C13   A    
C62   H40   S    
C6    C26   S    
C11   N1    A    
C1    C30   S    
C17   C19   S    
C63   H41   S    
C18   C20   S    
C37   C41   A    
C3    C32   S    
C50   H18   S    
C4    C31   S    
O7    Zn4   S    
C14   N4    A    
C57   H36   S    
C48   C52   S    
C39   C43   A    
C1    O5    A    
O1    Zn1   S    
C16   N4    A    
C24   C43   S    
C41   C45   A    
C71   C72   A    
C5    C51   S    
C3    O7    A    
C6    C52   S    
C61   C62   A    
N1    Zn3   S    
C43   C47   A    
C54   H33   S    
C44   C48   A    
C63   C64   A    
C38   H10   S    
