data_mof_unit_692.cif
_audit_creation_date              2012-12-11T16:32:22-0500
_audit_creation_method            fapswitch 2.2
_symmetry_space_group_name_H-M    P1
_symmetry_Int_Tables_number       1
_space_group_crystal_system       triclinic
_cell_length_a                    6.939446
_cell_length_b                    14.434816
_cell_length_c                    15.89399
_cell_angle_alpha                 90.073556
_cell_angle_beta                  89.789775
_cell_angle_gamma                 90.13188
_cell_volume                      1592.07880741

loop_
_atom_site_label
_atom_site_type_symbol
_atom_type_description
_atom_site_fract_x
_atom_site_fract_y
_atom_site_fract_z
_atom_type_partial_charge
O1    O     O_R   0.361630 0.167340 0.164570 -0.537651
O2    O     O_R   0.638370 0.832660 0.835430 -0.537651
O3    O     O_R   0.690860 0.157560 0.338690 -0.529994
O4    O     O_R   0.309140 0.842440 0.661310 -0.529994
O5    O     O_R   0.861260 0.336420 0.339380 -0.533505
O6    O     O_R   0.138740 0.663580 0.660620 -0.533506
C1    C     C_R   0.521435 0.134579 0.367783 0.753191
C2    C     C_R   0.478565 0.865421 0.632217 0.753191
O7    O     O_R   0.691330 0.156310 0.165190 -0.543923
O8    O     O_R   0.308670 0.843690 0.834810 -0.543923
O9    O     O_R   0.861730 0.335160 0.164640 -0.538784
O10   O     O_R   0.138270 0.664840 0.835360 -0.538784
C3    C     C_R   0.522588 0.134136 0.136440 0.689653
C4    C     C_R   0.477412 0.865864 0.863560 0.689652
O11   O     O_R   0.361150 0.168600 0.339320 -0.537554
O12   O     O_R   0.638850 0.831400 0.660680 -0.537553
O13   O     O_3   0.527950 0.310560 0.252000 -0.371475
O14   O     O_3   0.472050 0.689440 0.748000 -0.371475
V1    V     V_3+5 0.802770 0.240990 0.251980 1.445872
V2    V     V_3+5 0.197230 0.759010 0.748020 1.445872
O15   O     O_R   0.191450 0.346190 0.165260 -0.542577
O16   O     O_R   0.808550 0.653810 0.834740 -0.542577
C5    C     C_R   0.022954 0.367819 0.136484 0.692647
C6    C     C_R   0.977046 0.632181 0.863516 0.692647
O17   O     O_R   0.190980 0.347440 0.338770 -0.544758
O18   O     O_R   0.809020 0.652560 0.661230 -0.544758
C7    C     C_R   0.022123 0.369587 0.367644 0.692389
C8    C     C_R   0.977877 0.630413 0.632355 0.692390
V3    V     V_3+5 0.302780 0.262760 0.251980 1.429246
V4    V     V_3+5 0.697220 0.737240 0.748020 1.429246
O19   O     O_3   0.027730 0.193200 0.251960 -0.366672
O20   O     O_3   0.972270 0.806800 0.748040 -0.366673
C9    C     C_3   0.920155 0.419621 0.524455 -0.134253
C10   C     C_3   0.079845 0.580378 0.475545 -0.134253
C11   C     C_3   0.094172 0.467456 0.567397 -0.147446
C12   C     C_3   0.905828 0.532544 0.432603 -0.147447
H1    H     H_    0.171359 0.441082 0.623507 0.111640
H2    H     H_    0.828641 0.558918 0.376493 0.111640
H3    H     H_    0.854401 0.352872 0.544172 0.159223
H4    H     H_    0.145598 0.647127 0.455828 0.159223
C13   C     C_3   0.988306 0.560802 0.562118 -0.014001
C14   C     C_3   0.011694 0.439198 0.437882 -0.014001
C15   C     C_3   0.814063 0.513789 0.519984 -0.115861
C16   C     C_3   0.185937 0.486211 0.480016 -0.115861
H5    H     H_    0.660681 0.525443 0.536917 0.114987
H6    H     H_    0.339319 0.474557 0.463083 0.114987
H7    H     H_    0.813800 0.321189 0.760617 0.135883
H8    H     H_    0.186199 0.678811 0.239383 0.135883
C17   C     C_R   0.082909 0.689366 0.031208 -0.153108
C18   C     C_R   0.917091 0.310634 0.968792 -0.153108
C19   C     C_R   0.134935 0.718859 0.111500 -0.107287
C20   C     C_R   0.865065 0.281141 0.888500 -0.107287
C21   C     C_R   0.146801 0.655483 0.176990 -0.133356
C22   C     C_R   0.853199 0.344517 0.823009 -0.133357
C23   C     C_R   0.106952 0.562125 0.162631 -0.151511
C24   C     C_R   0.893048 0.437875 0.837369 -0.151511
C25   C     C_R   0.055261 0.529997 0.081540 0.069526
C26   C     C_R   0.944739 0.470003 0.918459 0.069526
C27   C     C_R   0.042511 0.594852 0.014595 0.057616
C28   C     C_R   0.957489 0.405148 0.985405 0.057616
C29   C     C_R   0.013024 0.435268 0.066773 -0.183711
C30   C     C_R   0.986976 0.564732 0.933227 -0.183711
H9    H     H_    0.073120 0.741682 0.982745 0.115199
H10   H     H_    0.926880 0.258318 0.017254 0.115199
H11   H     H_    0.165030 0.791401 0.123035 0.138491
H12   H     H_    0.834970 0.208599 0.876965 0.138491
H13   H     H_    0.116048 0.515785 0.215902 0.100622
H14   H     H_    0.883952 0.484215 0.784098 0.100622
C31   C     C_3   0.320451 0.026792 0.479015 -0.239279
C32   C     C_3   0.679549 0.973208 0.520985 -0.239280
C33   C     C_3   0.400473 0.927116 0.474459 0.695901
C34   C     C_3   0.599527 0.072884 0.525541 0.695901
C35   C     C_3   0.490602 0.937406 0.562157 -0.186287
C36   C     C_3   0.509398 0.062593 0.437843 -0.186287
C37   C     C_3   0.412277 0.037613 0.567775 -0.279578
C38   C     C_3   0.587723 0.962387 0.432225 -0.279578
H15   H     H_    0.341767 0.069562 0.623433 0.142219
H16   H     H_    0.658233 0.930438 0.376566 0.142219
H17   H     H_    0.689069 0.824067 0.239906 0.125679
H18   H     H_    0.310931 0.175933 0.760094 0.125679
C39   C     C_R   0.415199 0.188695 0.968060 -0.151627
C40   C     C_R   0.584801 0.811305 0.031940 -0.151627
C41   C     C_R   0.362775 0.217254 0.887659 -0.113753
C42   C     C_R   0.637225 0.782746 0.112341 -0.113753
C43   C     C_R   0.350955 0.153253 0.822513 -0.119330
C44   C     C_R   0.649045 0.846747 0.177487 -0.119330
C45   C     C_R   0.391649 0.060173 0.837239 -0.135373
C46   C     C_R   0.608351 0.939827 0.162761 -0.135373
C47   C     C_R   0.444151 0.028917 0.918363 0.065971
C48   C     C_R   0.555849 0.971083 0.081637 0.065971
C49   C     C_R   0.456382 0.094527 0.985143 0.057518
C50   C     C_R   0.543618 0.905473 0.014857 0.057518
C51   C     C_R   0.487655 0.934386 0.933237 -0.181442
C52   C     C_R   0.512345 0.065614 0.066763 -0.181442
H19   H     H_    0.424689 0.241493 0.016241 0.115603
H20   H     H_    0.575311 0.758507 0.983759 0.115603
H21   H     H_    0.382626 0.013332 0.784220 0.099252
H22   H     H_    0.617374 0.986668 0.215780 0.099252
H23   H     H_    0.332134 0.289575 0.875778 0.134078
H24   H     H_    0.667866 0.710425 0.124221 0.134078
F1    F     F_    0.296130 0.850995 0.447583 -0.711911
F2    F     F_    0.703870 0.149005 0.552417 -0.711911
H25   H     H_    0.171686 0.047310 0.461682 0.163606
H26   H     H_    0.828314 0.952690 0.538317 0.163606

loop_
_geom_bond_atom_site_label_1
_geom_bond_atom_site_label_2
_ccdc_geom_bond_type
C26   C30   A    
C17   H9    S    
C48   C52   A    
O13   V3    S    
C21   C23   A    
C12   C14   S    
O4    C2    A    
V1    O19   S    
O9    V1    S    
C9    H3    S    
C36   C38   S    
C10   H4    S    
C9    C14   S    
C11   H1    S    
C42   C44   A    
O3    C1    A    
C33   C38   S    
C39   H19   S    
C44   C46   A    
C25   C27   A    
O12   V4    S    
C8    C13   S    
C40   C50   A    
C19   H11   S    
O9    C5    A    
C31   C33   S    
O7    C3    A    
C50   C51   A    
C9    C11   S    
O5    C7    A    
O7    V1    S    
O6    C8    A    
C16   H6    S    
C17   C19   A    
C18   C20   A    
O3    V1    S    
O14   V4    S    
C47   C49   A    
C4    C51   S    
C10   C12   S    
C31   H25   S    
C33   F1    S    
C2    O12   A    
C41   H23   S    
C13   C15   S    
C10   C13   S    
C14   C16   S    
C34   C37   S    
O2    C4    A    
C39   C41   A    
C20   C22   A    
O11   V3    S    
C1    C36   S    
C43   C45   A    
O17   V3    S    
H8    C21   S    
C22   C24   A    
C40   H20   S    
C42   H24   S    
C10   C16   S    
C34   C36   S    
O8    C4    A    
O8    V2    S    
C33   C35   S    
C18   H10   S    
C24   H14   S    
O15   V3    S    
C28   C29   A    
C19   C21   A    
C9    C15   S    
H18   C43   S    
C15   H5    S    
C48   C50   A    
O10   V2    S    
C32   C35   S    
O1    V3    S    
C31   C36   S    
C23   C25   A    
C39   C49   A    
C11   C16   S    
C37   H15   S    
H7    C22   S    
C41   C43   A    
C46   C48   A    
O18   V4    S    
C40   C42   A    
O15   C5    A    
C32   C38   S    
O16   C6    A    
O1    C3    A    
C35   C37   S    
C12   H2    S    
C20   H12   S    
V2    O20   S    
C27   C30   A    
C6    C30   S    
O16   V4    S    
C32   H26   S    
C38   H16   S    
C23   H13   S    
C25   C29   A    
O5    V1    S    
O17   C7    A    
O6    V2    S    
O10   C6    A    
O18   C8    A    
C17   C27   A    
C3    C52   S    
O2    V4    S    
C18   C28   A    
C45   C47   A    
V3    O19   S    
C49   C52   A    
V4    O20   S    
C7    C14   S    
C34   F2    S    
C1    O11   A    
C2    C35   S    
O13   V1    S    
C24   C26   A    
C31   C37   S    
O14   V2    S    
C47   C51   A    
C11   C13   S    
O4    V2    S    
C5    C29   S    
C12   C15   S    
C32   C34   S    
C26   C28   A    
H17   C44   S    
C46   H22   S    
C45   H21   S    
