data_mof_unit_522.cif
_audit_creation_date              2012-12-10T16:49:23-0500
_audit_creation_method            fapswitch 2.2
_symmetry_space_group_name_H-M    P1
_symmetry_Int_Tables_number       1
_space_group_crystal_system       triclinic
_cell_length_a                    19.320434
_cell_length_b                    8.748284
_cell_length_c                    7.461742
_cell_angle_alpha                 103.138117
_cell_angle_beta                  94.897755
_cell_angle_gamma                 93.221561
_cell_volume                      1219.97176201

loop_
_atom_site_label
_atom_site_type_symbol
_atom_type_description
_atom_site_fract_x
_atom_site_fract_y
_atom_site_fract_z
_atom_type_partial_charge
C1    C     C_R   0.496775 0.200169 0.453649 0.777531
C2    C     C_R   0.503225 0.799832 0.546358 0.777665
C3    C     C_2   0.490770 0.032470 0.428290 0.137350
C4    C     C_2   0.509231 0.967539 0.571745 0.137400
C5    C     C_R   0.367544 0.500416 0.501290 0.751622
C6    C     C_R   0.632455 0.499578 0.498708 0.751611
C7    C     C_R   0.260660 0.505074 0.666925 -0.190472
C8    C     C_R   0.739339 0.494922 0.333071 -0.190484
C9    C     C_R   0.188567 0.505606 0.666917 -0.164885
C10   C     C_R   0.811432 0.494378 0.333076 -0.164874
C11   C     C_R   0.146442 0.503301 0.503010 0.063821
C12   C     C_R   0.853556 0.496646 0.496975 0.063825
C13   C     C_R   0.177739 0.501416 0.339600 -0.157755
C14   C     C_R   0.822258 0.498502 0.660377 -0.157772
C15   C     C_R   0.249681 0.500896 0.339643 -0.201304
C16   C     C_R   0.750317 0.499038 0.660339 -0.201340
C17   C     C_R   0.291726 0.502251 0.503092 -0.020461
C18   C     C_R   0.708273 0.497726 0.496900 -0.020478
C19   C     C_R   0.929765 0.498000 0.498300 0.409862
C20   C     C_R   0.070232 0.501941 0.501683 0.409867
Cu1   Cu    Cu3+1 0.507710 0.517380 0.684380 1.032876
Cu2   Cu    Cu3+1 0.492290 0.482620 0.315620 1.032760
H1    H     H_    0.291905 0.505879 0.794803 0.159096
H2    H     H_    0.708095 0.494143 0.205199 0.159078
H3    H     H_    0.165957 0.507213 0.795166 0.149175
H4    H     H_    0.834044 0.492793 0.204832 0.149174
H5    H     H_    0.146760 0.499984 0.211151 0.155101
H6    H     H_    0.853235 0.499900 0.788818 0.155102
H7    H     H_    0.272263 0.499492 0.211328 0.150121
H8    H     H_    0.727734 0.500419 0.788648 0.150173
N1    N     N_R   0.029516 0.498371 0.343065 -0.232761
N2    N     N_R   0.970482 0.501569 0.656918 -0.232759
N3    N     N_R   0.960625 0.496492 0.341380 -0.235923
N4    N     N_R   0.039373 0.503449 0.658603 -0.235921
N5    N     N_2   0.480680 0.456420 0.038530 0.139330
N6    N     N_2   0.519320 0.543580 0.961470 0.139506
O1    O     O_R   0.505010 0.286130 0.619770 -0.507009
O2    O     O_R   0.494990 0.713870 0.380230 -0.506955
O3    O     O_R   0.491990 0.256780 0.308370 -0.581761
O4    O     O_R   0.508010 0.743220 0.691630 -0.581817
O5    O     O_R   0.406650 0.514660 0.655750 -0.552225
O6    O     O_R   0.593350 0.485340 0.344250 -0.552342
O7    O     O_R   0.393640 0.485310 0.344340 -0.618411
O8    O     O_R   0.606360 0.514690 0.655660 -0.618298
O9    O     O_3   0.470199 0.942001 0.251148 -0.538928
C21   C     C_3   0.396845 0.935537 0.218825 0.096166
H9    H     H_    0.379010 0.054108 0.217225 0.130294
H10   H     H_    0.371427 0.888801 0.326197 0.113928
C22   C     C_3   0.373512 0.825869 0.031384 -0.686273
H11   H     H_    0.388607 0.705208 0.030754 0.258153
H12   H     H_    0.315995 0.821778 0.002840 0.169771
H13   H     H_    0.398141 0.868539 0.920784 0.260553
O10   O     O_3   0.529772 0.057984 0.748923 -0.538855
C23   C     C_3   0.603124 0.064515 0.781307 0.096170
H14   H     H_    0.628521 0.111930 0.674387 0.114180
H15   H     H_    0.621024 0.945863 0.782130 0.129967
C24   C     C_3   0.626393 0.173434 0.969261 -0.686186
H16   H     H_    0.601967 0.129741 0.079467 0.260176
H17   H     H_    0.683937 0.178005 0.997471 0.169750
H18   H     H_    0.611035 0.294088 0.970994 0.258532
O11   O     O_3   0.433264 0.354753 0.923876 -0.596709
H19   H     H_    0.408790 0.299466 0.004954 0.329996
O12   O     O_3   0.566736 0.645247 0.076122 -0.596733
H20   H     H_    0.591213 0.700527 0.995041 0.330004

loop_
_geom_bond_atom_site_label_1
_geom_bond_atom_site_label_2
_ccdc_geom_bond_type
C23   H14   S    
C2    C4    S    
N1    N3    A    
C15   C17   A    
C20   N1    A    
C14   C16   A    
Cu2   O7    S    
C4    O10   S    
Cu1   O8    S    
C11   C13   A    
C2    O2    A    
N5    N6    D    
C1    O1    A    
C22   H13   S    
C20   N4    A    
C10   H4    S    
N6    O12   S    
C5    O7    A    
C9    H3    S    
N5    O11   S    
Cu1   N6    S    
C6    O8    A    
O9    C21   S    
Cu2   N5    S    
C9    C11   A    
C21   C22   S    
C24   H16   S    
Cu2   O6    S    
Cu1   O4    S    
C10   C12   A    
C7    H1    S    
Cu2   O3    S    
C12   C19   S    
Cu1   Cu2   S    
C8    H2    S    
C12   C14   A    
C15   H7    S    
C23   H15   S    
C13   C15   A    
C6    O6    A    
O11   H19   S    
C6    C18   S    
Cu1   O5    S    
C11   C20   S    
C24   H17   S    
C5    C17   S    
C1    O3    A    
C16   H8    S    
O12   H20   S    
Cu2   O2    S    
C21   H10   S    
C2    O4    A    
Cu1   O1    S    
C16   C18   A    
C22   H11   S    
C19   N3    A    
C22   H12   S    
C1    C3    S    
C7    C9    A    
C5    O5    A    
C21   H9    S    
C13   H5    S    
C24   H18   S    
C14   H6    S    
O10   C23   S    
C19   N2    A    
C3    O9    S    
C8    C10   A    
C8    C18   A    
C3    C4    D    
C7    C17   A    
C23   C24   S    
N2    N4    A    
