data_mof_unit_3652.cif
_audit_creation_date              2013-03-05T16:10:40-0500
_audit_creation_method            fapswitch 2.2
_symmetry_space_group_name_H-M    P1
_symmetry_Int_Tables_number       1
_space_group_crystal_system       triclinic
_cell_length_a                    9.856008
_cell_length_b                    10.715114
_cell_length_c                    15.561402
_cell_angle_alpha                 90.071152
_cell_angle_beta                  66.954486
_cell_angle_gamma                 90.014127
_cell_volume                      1512.2573259

loop_
_atom_site_label
_atom_site_type_symbol
_atom_site_description
_atom_site_fract_x
_atom_site_fract_y
_atom_site_fract_z
_atom_type_partial_charge
O1    O     O_R   0.385370 0.683250 0.500010 -0.619253
O2    O     O_R   0.614630 0.316750 0.499990 -0.619239
O3    O     O_R   0.614700 0.683220 0.500000 -0.627397
O4    O     O_R   0.385300 0.316780 0.500000 -0.627365
C1    C     C_R   0.500015 0.740084 0.500065 0.869510
C2    C     C_R   0.499984 0.259916 0.499935 0.869559
O5    O     O_R   0.319830 0.500020 0.632250 -0.611774
O6    O     O_R   0.680170 0.499980 0.367750 -0.611731
O7    O     O_R   0.549160 0.499990 0.632240 -0.616173
O8    O     O_R   0.450840 0.500010 0.367760 -0.616170
C3    C     C_R   0.407310 0.500383 0.676061 0.873355
C4    C     C_R   0.592690 0.499663 0.323941 0.873369
Zn1   Zn    Zn3+2 0.346870 0.500020 0.500000 0.948436
Zn2   Zn    Zn3+2 0.653130 0.499980 0.500000 0.948449
C5    C     C_R   0.348024 0.494269 0.777523 -0.053419
C6    C     C_R   0.651978 0.506112 0.222497 -0.053243
C7    C     C_R   0.172397 0.417018 0.924065 -0.197455
C8    C     C_R   0.827358 0.584098 0.076134 -0.197672
C9    C     C_R   0.212431 0.438770 0.829125 -0.176975
C10   C     C_R   0.787388 0.561986 0.171026 -0.176896
C11   C     C_R   0.439637 0.532255 0.821259 -0.234923
C12   C     C_R   0.560437 0.468240 0.178688 -0.235040
C13   C     C_R   0.410859 0.498837 0.913548 0.091582
C14   C     C_R   0.589034 0.502178 0.086523 0.091619
C15   C     C_R   0.271792 0.443768 0.966939 0.107782
C16   C     C_R   0.728008 0.557422 0.033217 0.107747
C17   C     C_R   0.518180 0.516355 0.952671 0.051494
C18   C     C_R   0.481658 0.484879 0.047430 0.051495
C19   C     C_R   0.337686 0.439887 0.100924 -0.263669
C20   C     C_R   0.662084 0.561573 0.899241 -0.263577
C21   C     C_R   0.235925 0.416297 0.061337 -0.019354
C22   C     C_R   0.763825 0.585118 0.938861 -0.019343
H1    H     H_    0.464835 0.414858 0.220084 0.141223
H2    H     H_    0.535446 0.585269 0.779692 0.141260
H3    H     H_    0.860299 0.590968 0.204363 0.159089
H4    H     H_    0.139431 0.409774 0.795854 0.159059
H5    H     H_    0.065972 0.374793 0.962545 0.159202
H6    H     H_    0.933671 0.626550 0.037743 0.159201
H7    H     H_    0.299008 0.422220 0.174743 0.144917
H8    H     H_    0.700733 0.579537 0.825469 0.144755
C23   C     C_R   0.632763 0.936073 0.479761 -0.193733
C24   C     C_R   0.367237 0.063926 0.520239 -0.193709
H9    H     H_    0.736263 0.887348 0.463348 0.158474
H10   H     H_    0.263736 0.112652 0.536652 0.158485
C25   C     C_R   0.632770 0.063944 0.479640 -0.183758
C26   C     C_R   0.367230 0.936056 0.520360 -0.183723
H11   H     H_    0.736287 0.112682 0.463131 0.156843
H12   H     H_    0.263713 0.887317 0.536869 0.156849
C27   C     C_R   0.499998 0.127456 0.499906 -0.016425
C28   C     C_R   0.500002 0.872544 0.500094 -0.016399
C29   C     C_R   0.965967 0.427153 0.438614 -0.082995
C30   C     C_R   0.034034 0.572848 0.561385 -0.082997
H13   H     H_    0.941882 0.368926 0.389497 0.133903
H14   H     H_    0.058118 0.631076 0.610502 0.133828
C31   C     C_R   0.109687 0.427090 0.438689 -0.064404
C32   C     C_R   0.890313 0.572911 0.561310 -0.064338
H15   H     H_    0.194238 0.368647 0.389635 0.124405
H16   H     H_    0.805763 0.631356 0.610363 0.124349
N1    N     N_R   0.142780 0.500030 0.500020 -0.077548
N2    N     N_R   0.857220 0.499970 0.499980 -0.077555
C33   C     C_1   0.095626 0.361920 0.119943 0.131199
N3    N     N_1   0.983877 0.317971 0.166927 -0.212253
C34   C     C_1   0.904145 0.639505 0.880301 0.131243
N4    N     N_1   0.015926 0.683439 0.833356 -0.212180

loop_
_geom_bond_atom_site_label_1
_geom_bond_atom_site_label_2
_geom_bond_distance
_ccdc_geom_bond_type
C15   C21   1.401400 A    
O5    Zn1   1.969000 S    
C20   C22   1.390258 A    
O7    Zn2   1.906251 S    
C16   C22   1.401373 A    
Zn1   N1    2.011391 S    
C30   N1    1.366268 A    
C31   N1    1.367415 A    
Zn2   N2    2.011391 S    
C21   C33   1.448068 S    
C8    C10   1.391828 A    
C8    C16   1.413487 A    
C25   C27   1.397084 A    
O6    C4    1.291646 A    
C7    C15   1.413524 A    
C19   H7    1.076277 S    
C25   H11   1.083755 S    
C8    H6    1.082637 S    
C20   H8    1.076185 S    
C19   C21   1.390159 A    
C7    H5    1.082691 S    
C17   C20   1.419541 A    
O5    C3    1.291682 A    
O7    C3    1.293526 A    
C2    C27   1.419329 S    
O2    C2    1.283767 A    
O3    Zn2   1.999729 S    
C24   H10   1.083686 S    
O1    C1    1.283767 A    
O8    C4    1.293529 A    
C18   C19   1.419419 A    
C7    C9    1.391816 A    
C14   C16   1.423347 A    
C30   H14   1.081945 S    
C26   C28   1.397083 A    
C29   C31   1.416966 A    
C13   C17   1.424263 A    
C31   H15   1.081820 S    
C11   C13   1.397678 A    
C33   N3    1.157385 T    
O2    Zn2   1.999583 S    
C12   C14   1.397642 A    
C1    C28   1.419327 S    
O1    Zn1   1.999583 S    
C24   C27   1.396996 A    
C6    C10   1.394638 A    
C34   N4    1.157381 T    
C26   H12   1.083756 S    
C4    C6    1.454745 S    
C23   C28   1.396996 A    
C5    C11   1.387244 A    
C13   C15   1.423509 A    
C32   N2    1.367416 A    
C22   C34   1.448073 S    
C14   C18   1.424107 A    
O4    C2    1.283875 A    
C24   C26   1.370149 A    
C17   C18   1.415392 A    
C12   H1    1.074908 S    
C23   C25   1.370149 A    
C6    C12   1.387135 A    
C29   N2    1.366269 A    
O6    Zn2   1.969002 S    
O3    C1    1.283874 A    
C9    H4    1.083228 S    
C5    C9    1.394643 A    
C10   H3    1.083214 S    
C3    C5    1.454829 S    
C11   H2    1.074807 S    
C23   H9    1.083686 S    
C30   C32   1.416967 A    
O4    Zn1   1.999729 S    
C32   H16   1.081820 S    
C29   H13   1.081944 S    
O8    Zn1   1.906254 S    
