data_mof_unit_2549.cif
_audit_creation_date              2012-10-26T21:13:37-0400
_audit_creation_method            fapswitch 2.2
_symmetry_space_group_name_H-M    P1
_symmetry_Int_Tables_number       1
_space_group_crystal_system       triclinic
_cell_length_a                    9.081991
_cell_length_b                    10.857497
_cell_length_c                    9.56055
_cell_angle_alpha                 91.331931
_cell_angle_beta                  89.89355
_cell_angle_gamma                 93.217878
_cell_volume                      941.002862217

loop_
_atom_site_label
_atom_site_type_symbol
_atom_type_description
_atom_site_fract_x
_atom_site_fract_y
_atom_site_fract_z
_atom_type_partial_charge
C1    C     C_R   0.490525 0.262002 0.498567 0.579882
C2    C     C_R   0.572684 0.593135 0.929822 0.216614
C3    C     C_3   0.732758 0.637216 0.929889 0.143442
C4    C     C_R   0.220588 0.497727 0.499828 0.532454
C5    C     C_3   0.724895 0.640603 0.089765 -0.246737
C6    C     C_R   0.509207 0.737988 0.501696 0.554612
C7    C     C_R   0.779199 0.498697 0.499772 0.568171
C8    C     C_1   0.065282 0.495574 0.498986 -0.075047
C9    C     C_1   0.934159 0.496043 0.498939 -0.050019
C10   C     C_R   0.466601 0.064469 0.623074 -0.059122
C11   C     C_R   0.474388 0.127466 0.496811 -0.022488
C12   C     C_R   0.506809 0.932349 0.376020 -0.144726
C13   C     C_R   0.475168 0.056571 0.371116 0.238812
C14   C     C_3   0.293304 0.093579 0.214802 0.040074
C15   C     C_3   0.232592 0.957928 0.201231 -0.269491
C16   C     C_3   0.080943 0.946115 0.133618 -0.494196
C17   C     C_3   0.819180 0.992795 0.848860 0.059641
C18   C     C_3   0.952868 0.063108 0.782645 -0.235317
C19   C     C_3   0.000804 0.181285 0.864584 -0.439330
C20   C     C_3   0.977357 0.581732 0.903538 0.002841
C21   C     C_3   0.040121 0.687080 0.812424 -0.292733
C22   C     C_3   0.201362 0.720709 0.846994 -0.429231
C23   C     C_R   0.513190 0.872115 0.503902 -0.054440
C24   C     C_R   0.489549 0.939634 0.627659 -0.023733
C25   C     C_3   0.578815 0.957678 0.760721 0.630925
C26   C     C_3   0.542237 0.093217 0.758260 0.735855
C27   C     C_R   0.568670 0.595005 0.076413 0.124948
C28   C     C_R   0.415156 0.415759 0.072325 0.030446
C29   C     C_R   0.414572 0.416040 0.923428 0.028115
Cu1   Cu    Cu3+1 0.499990 0.499980 0.640670 1.038086
Cu2   Cu    Cu3+1 0.500010 0.500020 0.359330 0.957894
F1    F     F_    0.516145 0.893251 0.871443 -0.658141
F2    F     F_    0.445187 0.125832 0.862673 -0.627070
F3    F     F_    0.661951 0.176885 0.745080 -0.634349
H1    H     H_    0.745610 0.728214 0.880600 0.160180
H2    H     H_    0.222537 0.917297 0.306644 0.143233
H3    H     H_    0.005294 0.010584 0.184316 0.153633
H4    H     H_    0.033189 0.850251 0.143435 0.139197
H5    H     H_    0.092729 0.965580 0.021030 0.163726
H6    H     H_    0.857402 0.921007 0.917782 0.093763
H7    H     H_    0.759964 0.054586 0.921835 0.207988
H8    H     H_    0.046743 0.001887 0.774874 0.134895
H9    H     H_    0.925546 0.089353 0.674366 0.217123
H10   H     H_    0.914209 0.249256 0.859324 0.230475
H11   H     H_    0.103532 0.222926 0.818126 0.145870
H12   H     H_    0.791859 0.572486 0.141637 0.167238
H13   H     H_    0.021711 0.162276 0.975929 0.127371
H14   H     H_    0.041237 0.499242 0.880797 0.153187
H15   H     H_    0.997254 0.605675 0.015806 0.109644
H16   H     H_    0.029714 0.660977 0.700575 0.180558
H17   H     H_    0.979217 0.770708 0.829444 0.150477
H18   H     H_    0.212627 0.753720 0.957263 0.155197
H19   H     H_    0.244192 0.794975 0.777458 0.193070
H20   H     H_    0.268222 0.639540 0.831963 0.189799
H21   H     H_    0.735936 0.735771 0.135374 0.092237
H22   H     H_    0.518120 0.881768 0.277973 0.164201
H23   H     H_    0.348072 0.347064 0.126634 0.123193
H24   H     H_    0.346746 0.347374 0.865985 0.153084
H25   H     H_    0.274418 0.138382 0.113726 0.188661
H26   H     H_    0.230522 0.144217 0.295870 0.100082
H27   H     H_    0.309038 0.903946 0.136658 0.211566
N1    N     N_R   0.500920 0.500930 0.147930 -0.238417
N2    N     N_R   0.500930 0.500890 0.852020 -0.227506
O1    O     O_R   0.500000 0.319640 0.618810 -0.436594
O2    O     O_3   0.730037 0.936373 0.740256 -0.588125
O3    O     O_3   0.826562 0.547920 0.874897 -0.521448
O4    O     O_R   0.500020 0.319680 0.381230 -0.467242
O5    O     O_R   0.288380 0.499980 0.618770 -0.536190
O6    O     O_R   0.288400 0.500020 0.381190 -0.511519
O7    O     O_R   0.499980 0.680320 0.618770 -0.482286
O8    O     O_R   0.500000 0.680360 0.381190 -0.521044
O9    O     O_R   0.711600 0.499980 0.618810 -0.416822
O10   O     O_R   0.711620 0.500020 0.381230 -0.515837
O11   O     O_3   0.447372 0.105663 0.242233 -0.513257

loop_
_geom_bond_atom_site_label_1
_geom_bond_atom_site_label_2
_ccdc_geom_bond_type
C8    C9    T    
C21   H17   S    
C23   C24   A    
C19   H11   S    
C6    O7    A    
C2    C27   A    
C27   N1    A    
Cu1   O1    S    
C20   H15   S    
C14   H26   S    
C5    H12   S    
C26   F2    S    
C17   O2    S    
C12   C23   A    
C12   C13   A    
C3    H1    S    
C16   H3    S    
C4    C8    S    
C10   C24   A    
C21   C22   S    
C10   C26   S    
C25   F1    S    
C29   N2    A    
C17   C18   S    
C15   H27   S    
C20   O3    S    
C7    O10   A    
C25   C26   S    
C20   H14   S    
C28   H23   S    
C24   C25   S    
Cu2   O4    S    
C14   H25   S    
C11   C13   A    
Cu2   N1    S    
C12   H22   S    
C6    C23   S    
C14   O11   S    
Cu2   O8    S    
C28   C29   A    
C1    O4    A    
C5    H21   S    
C2    C3    S    
C22   H19   S    
C19   H13   S    
C22   H20   S    
C18   H8    S    
C28   N1    A    
Cu1   Cu2   S    
C17   H7    S    
Cu2   O10   S    
C3    O3    S    
C10   C11   A    
C16   H5    S    
C15   C16   S    
C1    O1    A    
C19   H10   S    
C15   H2    S    
Cu2   O6    S    
C25   O2    S    
C2    N2    A    
C13   O11   S    
C22   H18   S    
C18   C19   S    
C18   H9    S    
C7    O9    A    
C7    C9    S    
C14   C15   S    
C4    O6    A    
C21   H16   S    
Cu1   O7    S    
C20   C21   S    
C5    C27   S    
C4    O5    A    
C26   F3    S    
Cu1   O5    S    
Cu1   O9    S    
C29   H24   S    
Cu1   N2    S    
C16   H4    S    
C6    O8    A    
C3    C5    S    
C17   H6    S    
C1    C11   S    
