data_mof_unit_714.cif
_audit_creation_date              2012-12-10T20:46:52-0500
_audit_creation_method            fapswitch 2.2
_symmetry_space_group_name_H-M    P1
_symmetry_Int_Tables_number       1
_space_group_crystal_system       triclinic
_cell_length_a                    12.856611
_cell_length_b                    8.931455
_cell_length_c                    8.108759
_cell_angle_alpha                 89.986929
_cell_angle_beta                  98.320659
_cell_angle_gamma                 89.971478
_cell_volume                      921.313174372

loop_
_atom_site_label
_atom_site_type_symbol
_atom_type_description
_atom_site_fract_x
_atom_site_fract_y
_atom_site_fract_z
_atom_type_partial_charge
C1    C     C_R   0.499985 0.217997 0.500005 0.924601
C2    C     C_R   0.871472 0.607744 0.679553 -0.098456
C3    C     C_R   0.134928 0.566872 0.552941 -0.192022
C4    C     C_R   0.865072 0.431839 0.447947 -0.248707
C5    C     C_R   0.029365 0.545964 0.561041 0.135430
C6    C     C_R   0.971016 0.451029 0.441064 0.062701
C7    C     C_1   0.499998 0.065195 0.500012 -0.168662
C8    C     C_1   0.500019 0.934805 0.499994 -0.157972
C9    C     C_2   0.816185 0.693551 0.797727 0.373505
C10   C     C_2   0.183384 0.307512 0.201366 0.511830
C11   C     C_2   0.956313 0.287045 0.183273 0.418316
C12   C     C_R   0.500022 0.782003 0.499997 0.940099
C13   C     C_2   0.042918 0.704162 0.824533 0.377386
C14   C     C_R   0.297471 0.495881 0.465551 0.866413
C15   C     C_R   0.702523 0.504416 0.534459 0.885130
C16   C     C_R   0.815309 0.512606 0.559647 -0.105924
C17   C     C_R   0.184722 0.487098 0.440618 -0.127362
C18   C     C_R   0.019682 0.375920 0.317938 -0.070838
C19   C     C_R   0.980802 0.619929 0.685052 -0.019101
C20   C     C_R   0.128645 0.392029 0.320605 -0.051770
H1    H     H_    0.818504 0.355419 0.363857 0.148144
H2    H     H_    0.180994 0.644693 0.635902 0.192236
H3    H     H_    0.768794 0.635838 0.878005 0.102387
H4    H     H_    0.193096 0.187248 0.214673 0.073925
H5    H     H_    0.881047 0.329025 0.123235 0.066424
H6    H     H_    0.017715 0.813919 0.859742 0.148834
N1    N     N_1   0.500020 0.500000 0.073640 -0.006008
N2    N     N_1   0.499980 0.500000 0.926360 -0.015732
O1    O     O_R   0.499990 0.285340 0.636850 -0.608204
O2    O     O_2   0.215027 0.371440 0.085213 -0.489997
O3    O     O_2   0.986695 0.165780 0.139673 -0.556443
O4    O     O_2   0.120646 0.648428 0.905933 -0.517930
O5    O     O_R   0.500010 0.714660 0.363150 -0.612494
O6    O     O_R   0.500010 0.285340 0.363150 -0.618360
O7    O     O_R   0.499990 0.714660 0.636850 -0.614673
O8    O     O_R   0.346350 0.500000 0.614250 -0.599386
O9    O     O_R   0.653650 0.500000 0.385750 -0.621866
O10   O     O_R   0.346360 0.500000 0.340500 -0.576192
O11   O     O_R   0.653640 0.500000 0.659500 -0.646922
O12   O     O_2   0.821856 0.829906 0.803778 -0.558814
Zn1   Zn    Zn3+2 0.499990 0.500000 0.682780 1.020489
Zn2   Zn    Zn3+2 0.500010 0.500000 0.317220 1.035984

loop_
_geom_bond_atom_site_label_1
_geom_bond_atom_site_label_2
_ccdc_geom_bond_type
C4    C16   A    
C11   C18   S    
O10   Zn2   S    
C5    C19   A    
C14   O10   A    
C2    C16   A    
C10   O2    D    
C13   O4    D    
C14   C17   S    
C8    C12   S    
C10   H4    S    
C1    O1    A    
C2    C19   A    
C11   O3    D    
C7    C8    T    
O11   Zn1   S    
C12   O7    A    
C4    H1    S    
N1    Zn2   S    
C15   O11   A    
O8    Zn1   S    
C6    C18   A    
O5    Zn2   S    
C1    O6    A    
C3    C17   A    
C18   C20   A    
C14   O8    A    
C5    C6    A    
O7    Zn1   S    
C13   H6    S    
C11   H5    S    
C15   C16   S    
N2    Zn1   S    
N1    N2    T    
C17   C20   A    
C4    C6    A    
O9    Zn2   S    
C13   C19   S    
C15   O9    A    
C3    H2    S    
O1    Zn1   S    
C12   O5    A    
C1    C7    S    
C2    C9    S    
C9    O12   D    
C9    H3    S    
C10   C20   S    
C3    C5    A    
O6    Zn2   S    
