data_mof_unit_3253.cif
_audit_creation_date              2012-12-11T15:39:17-0500
_audit_creation_method            fapswitch 2.2
_symmetry_space_group_name_H-M    P1
_symmetry_Int_Tables_number       1
_space_group_crystal_system       triclinic
_cell_length_a                    14.316344
_cell_length_b                    14.779339
_cell_length_c                    33.160916
_cell_angle_alpha                 97.465769
_cell_angle_beta                  90.287581
_cell_angle_gamma                 118.950483
_cell_volume                      6068.88354463

loop_
_atom_site_label
_atom_site_type_symbol
_atom_type_description
_atom_site_fract_x
_atom_site_fract_y
_atom_site_fract_z
_atom_type_partial_charge
C1    C     C_R   0.617394 0.910243 0.437151 0.544316
C2    C     C_R   0.723208 0.397543 0.184771 0.023185
C3    C     C_R   0.723508 0.875080 0.649875 -0.157255
C4    C     C_R   0.651988 0.770035 0.652819 0.049996
C5    C     C_R   0.635945 0.856506 0.584129 -0.001285
C6    C     C_R   0.052816 0.781440 0.063631 0.542615
C7    C     C_R   0.743562 0.486048 0.066186 0.563591
C8    C     C_R   0.742031 0.789316 0.066333 0.553715
C9    C     C_R   0.020120 0.731238 0.946902 0.535255
C10   C     C_R   0.711804 0.436163 0.949488 0.530591
C11   C     C_R   0.738927 0.719365 0.944884 0.560875
C12   C     C_R   0.811007 0.410604 0.162872 -0.156078
C13   C     C_R   0.817056 0.433430 0.123007 0.080081
C14   C     C_R   0.711981 0.297345 0.242034 0.141736
C15   C     C_R   0.713899 0.295685 0.284146 -0.102841
C16   C     C_R   0.723676 0.380491 0.311933 -0.005739
C17   C     C_R   0.737334 0.471995 0.298053 0.147641
C18   C     C_R   0.740977 0.476016 0.256176 -0.072698
C19   C     C_R   0.726532 0.389506 0.228275 0.021788
C20   C     C_R   0.609959 0.351681 0.369926 -0.119522
C21   C     C_R   0.594542 0.206300 0.456834 0.543470
C22   C     C_R   0.576735 0.306826 0.405251 -0.130995
C23   C     C_R   0.739335 0.295002 0.411515 -0.126738
C24   C     C_R   0.772169 0.339460 0.376163 -0.125752
C25   C     C_R   0.705619 0.364059 0.354425 0.020132
C26   C     C_R   0.638895 0.273606 0.425207 0.021093
C27   C     C_R   0.244565 0.878525 0.393415 -0.014294
C28   C     C_R   0.237555 0.961819 0.380146 -0.142021
C29   C     C_R   0.213189 0.958643 0.339037 -0.146664
C30   C     C_R   0.194665 0.872076 0.310574 0.041340
C31   C     C_R   0.194131 0.784729 0.323759 0.163259
C32   C     C_R   0.295539 0.892905 0.434395 0.538483
C33   C     C_R   0.218730 0.788663 0.365194 -0.088286
C34   C     C_R   0.197594 0.805310 0.162784 0.116621
C35   C     C_R   0.168770 0.784497 0.120709 -0.109092
C36   C     C_R   0.097093 0.903740 0.128930 -0.146064
C37   C     C_R   0.125121 0.924684 0.170843 -0.151956
C38   C     C_R   0.171214 0.872496 0.188043 0.068045
C39   C     C_1   0.180575 0.878725 0.231654 -0.009992
C40   C     C_1   0.186256 0.877582 0.267795 -0.029650
C41   C     C_R   0.113358 0.829254 0.103883 -0.001899
C42   C     C_R   0.639216 0.879517 0.395760 -0.002652
C43   C     C_R   0.614068 0.904272 0.551389 0.544423
C44   C     C_R   0.554432 0.804657 0.367953 -0.147705
C45   C     C_R   0.568543 0.795936 0.326388 -0.162708
C46   C     C_R   0.667293 0.861298 0.312253 0.057869
C47   C     C_R   0.755577 0.930026 0.339877 0.116910
C48   C     C_R   0.740851 0.938554 0.381696 -0.109299
C49   C     C_R   0.752059 0.937900 0.170828 0.135155
C50   C     C_R   0.765826 0.921997 0.128643 0.142833
C51   C     C_R   0.636968 0.736868 0.125999 -0.166768
C52   C     C_R   0.623950 0.753223 0.167097 -0.167457
C53   C     C_R   0.684094 0.851936 0.189817 0.043361
C54   C     C_R   0.589626 0.199403 0.570928 0.545303
C55   C     C_1   0.679858 0.860399 0.233145 0.012138
C56   C     C_1   0.674996 0.861665 0.269275 0.001491
C57   C     C_R   0.711778 0.818909 0.106593 0.002850
C58   C     C_R   0.622388 0.250054 0.613868 0.019326
C59   C     C_R   0.556162 0.280320 0.636263 -0.133702
C60   C     C_R   0.571729 0.303959 0.678724 -0.123729
C61   C     C_R   0.653865 0.298262 0.699218 0.029151
C62   C     C_R   0.724964 0.275832 0.677087 -0.123761
C63   C     C_R   0.709621 0.252159 0.634587 -0.133798
C64   C     C_R   0.753954 0.332309 0.844947 -0.115217
C65   C     C_R   0.288903 0.886757 0.548694 0.558642
C66   C     C_R   0.765636 0.355185 0.887963 0.137456
C67   C     C_R   0.591167 0.346833 0.886201 -0.155666
C68   C     C_R   0.579209 0.320647 0.843732 0.101841
C69   C     C_R   0.663785 0.319745 0.823064 0.048980
C70   C     C_1   0.661403 0.311566 0.779356 0.013658
C71   C     C_1   0.659262 0.306557 0.742840 -0.022341
C72   C     C_R   0.686920 0.372070 0.908378 -0.000952
C73   C     C_R   0.057433 0.747287 0.906004 0.023064
C74   C     C_R   0.078455 0.839238 0.890974 -0.131850
C75   C     C_R   0.088396 0.844469 0.849495 -0.116956
C76   C     C_R   0.733715 0.443830 0.104917 0.032359
C77   C     C_R   0.075678 0.757300 0.822369 0.036153
C78   C     C_R   0.060882 0.667611 0.837782 -0.126196
C79   C     C_R   0.052838 0.663035 0.879317 -0.124198
C80   C     C_R   0.126265 0.713805 0.753678 -0.115595
C81   C     C_R   0.131970 0.721288 0.712331 -0.113316
C82   C     C_R   0.088075 0.775173 0.694782 0.037056
C83   C     C_R   0.033738 0.817093 0.718691 -0.096034
C84   C     C_R   0.026749 0.808382 0.760011 -0.116492
C85   C     C_R   0.075647 0.759266 0.778073 0.030817
C86   C     C_R   0.162176 0.904795 0.647149 -0.107596
C87   C     C_R   0.643201 0.424773 0.126526 -0.149205
C88   C     C_R   0.213213 0.934748 0.611509 0.130706
C89   C     C_R   0.158744 0.752258 0.586971 -0.161300
C90   C     C_R   0.107882 0.723552 0.622411 -0.139598
C91   C     C_R   0.113852 0.800215 0.653484 0.006166
C92   C     C_R   0.216660 0.858180 0.581990 0.042047
C93   C     C_R   0.711428 0.711698 0.900927 -0.012519
C94   C     C_R   0.631086 0.618831 0.878298 -0.149099
C95   C     C_R   0.612860 0.612321 0.836248 -0.148588
C96   C     C_R   0.674655 0.698199 0.816294 0.025854
C97   C     C_R   0.755607 0.792775 0.838525 0.158061
C98   C     C_R   0.637283 0.401904 0.166238 0.135578
C99   C     C_R   0.773556 0.797445 0.880607 -0.088445
C100  C     C_R   0.576725 0.722139 0.759334 0.159668
C101  C     C_R   0.576814 0.742796 0.719354 -0.106140
C102  C     C_R   0.647545 0.733214 0.692340 0.018020
C103  C     C_R   0.714826 0.694686 0.704285 0.148925
C104  C     C_R   0.715733 0.675109 0.744581 -0.124728
C105  C     C_R   0.650461 0.692357 0.772482 -0.004328
C106  C     C_R   0.575919 0.705755 0.620236 0.113392
C107  C     C_R   0.568809 0.749492 0.585993 -0.108928
C108  C     C_R   0.715910 0.918047 0.615702 -0.142426
Cr1   Cr    Cr6+3 0.424820 0.846020 0.489780 1.005773
Cr2   Cr    Cr6+3 0.657880 0.078580 0.505700 1.006382
Cr3   Cr    Cr6+3 0.417280 0.075360 0.504550 1.015582
Cr4   Cr    Cr6+3 0.903360 0.812540 0.006510 0.994241
Cr5   Cr    Cr6+3 0.914630 0.587050 0.006280 1.038440
Cr6   Cr    Cr6+3 0.673560 0.582680 0.008540 1.002610
H1    H     H_    0.577952 0.431478 0.113223 0.126606
H2    H     H_    0.499332 0.291842 0.415280 0.124586
H3    H     H_    0.876846 0.406828 0.177348 0.118427
H4    H     H_    0.789505 0.271256 0.426534 0.127555
H5    H     H_    0.182725 0.727564 0.101626 0.121059
H6    H     H_    0.222253 0.723109 0.374919 0.135892
H7    H     H_    0.257009 0.032243 0.401093 0.132676
H8    H     H_    0.105053 0.976881 0.190114 0.106464
H9    H     H_    0.054758 0.939113 0.116659 0.127867
H10   H     H_    0.213576 0.025915 0.329179 0.111218
H11   H     H_    0.807173 0.995626 0.402962 0.120990
H12   H     H_    0.475303 0.758157 0.377896 0.131337
H13   H     H_    0.570354 0.687144 0.181652 0.110948
H14   H     H_    0.592731 0.657404 0.110134 0.142501
H15   H     H_    0.500981 0.741733 0.305054 0.100945
H16   H     H_    0.845893 0.348089 0.364225 0.117924
H17   H     H_    0.815377 0.326123 0.827919 0.103602
H18   H     H_    0.789070 0.271682 0.692757 0.103501
H19   H     H_    0.761949 0.229111 0.618283 0.123291
H20   H     H_    0.488495 0.279790 0.621256 0.134244
H21   H     H_    0.528118 0.354820 0.901363 0.128097
H22   H     H_    0.516719 0.321952 0.695647 0.120600
H23   H     H_    0.082510 0.905335 0.910961 0.113496
H24   H     H_    0.035555 0.590768 0.890026 0.145893
H25   H     H_    0.069585 0.642173 0.626685 0.108401
H26   H     H_    0.703565 0.226438 0.295671 0.130986
H27   H     H_    0.176351 0.690351 0.694598 0.101667
H28   H     H_    0.165512 0.676414 0.766833 0.093110
H29   H     H_    0.103539 0.915827 0.838491 0.098951
H30   H     H_    0.999320 0.858852 0.705616 0.114897
H31   H     H_    0.984886 0.841721 0.777990 0.106320
H32   H     H_    0.167026 0.964575 0.671116 0.100440
H33   H     H_    0.050344 0.599073 0.817575 0.096290
H34   H     H_    0.157810 0.691747 0.564427 0.130383
H35   H     H_    0.583233 0.551266 0.892999 0.131748
H36   H     H_    0.837124 0.868162 0.897818 0.136377
H37   H     H_    0.781775 0.925086 0.675032 0.111648
H38   H     H_    0.525106 0.771925 0.709798 0.124770
H39   H     H_    0.549835 0.540735 0.819133 0.119317
H40   H     H_    0.773245 0.653943 0.755185 0.130834
H41   H     H_    0.507732 0.700746 0.561512 0.115934
H42   H     H_    0.768536 0.000570 0.615055 0.127612
H43   H     H_    0.754414 0.546752 0.244993 0.128870
H44   H     H_    0.557103 0.368895 0.352969 0.113115
O1    O     O_R   0.318160 0.824460 0.443680 -0.523701
O2    O     O_R   0.645130 0.163230 0.552140 -0.504954
O3    O     O_R   0.498360 0.178430 0.555780 -0.504732
O4    O     O_R   0.328690 0.978040 0.538950 -0.463830
O5    O     O_3   0.499990 0.999990 0.500010 -0.233194
O6    O     O_R   0.828710 0.851830 0.052170 -0.506756
O7    O     O_R   0.005980 0.823990 0.047210 -0.502487
O8    O     O_R   0.031900 0.688850 0.050170 -0.506509
O9    O     O_R   0.830940 0.518420 0.048680 -0.450639
O10   O     O_R   0.668160 0.499860 0.053480 -0.536495
O11   O     O_R   0.689170 0.693840 0.050110 -0.499839
O12   O     O_R   0.525040 0.857250 0.449830 -0.501645
O13   O     O_R   0.803860 0.812940 0.962540 -0.525266
O14   O     O_R   0.982950 0.787950 0.964120 -0.520238
O15   O     O_R   0.007050 0.649970 0.960540 -0.505580
O16   O     O_R   0.807910 0.482370 0.965590 -0.479741
O17   O     O_R   0.643310 0.460980 0.963840 -0.533645
O18   O     O_R   0.666140 0.657800 0.967020 -0.492092
O19   O     O_3   0.830520 0.660760 0.007110 -0.258069
O20   O     O_R   0.684760 0.998800 0.456360 -0.518807
O21   O     O_R   0.647540 0.166310 0.470260 -0.501920
O22   O     O_R   0.500960 0.181750 0.467450 -0.522231
O23   O     O_R   0.331100 0.981120 0.457080 -0.503553
O24   O     O_R   0.315560 0.821140 0.532010 -0.527441
O25   O     O_R   0.522630 0.854180 0.531710 -0.500237
O26   O     O_R   0.682160 0.995480 0.544690 -0.518064
N1    N     N_3   0.247814 0.753983 0.180280 -0.637849
H45   H     H_    0.270043 0.714252 0.157309 0.218596
H46   H     H_    0.190564 0.697207 0.195838 0.220646
N2    N     N_2   0.171496 0.693587 0.295753 -0.516945
H47   H     H_    0.123644 0.680521 0.269927 0.255154
C109  C     C_3   0.263734 0.681002 0.286915 -0.314613
H48   H     H_    0.238143 0.606959 0.265779 0.137397
H49   H     H_    0.302204 0.677075 0.315310 0.141884
H50   H     H_    0.322657 0.747245 0.272223 0.162764
N3    N     N_3   0.909516 0.449402 0.101800 -0.599112
H51   H     H_    0.977087 0.510864 0.118953 0.227261
H52   H     H_    0.916296 0.381741 0.100371 0.216981
N4    N     N_2   0.827783 0.009717 0.108478 -0.519393
H53   H     H_    0.801330 0.004353 0.078829 0.263314
C110  C     C_3   0.943057 0.061325 0.116259 -0.297740
H54   H     H_    0.980033 0.049329 0.088146 0.152359
H55   H     H_    0.967474 0.031214 0.140947 0.133079
H56   H     H_    0.974089 0.146472 0.125385 0.137223
N5    N     N_3   0.806080 0.040237 0.194600 -0.611374
H57   H     H_    0.792777 0.091308 0.179531 0.261126
H58   H     H_    0.888161 0.066124 0.196849 0.231122
N6    N     N_3   0.857794 0.994595 0.325151 -0.619023
H59   H     H_    0.913191 0.044520 0.349410 0.216387
H60   H     H_    0.886233 0.945168 0.312144 0.229618
N7    N     N_2   0.855689 0.364223 0.910959 -0.487818
H61   H     H_    0.837485 0.334765 0.938136 0.256162
C111  C     C_3   0.934418 0.344346 0.890398 -0.320122
H62   H     H_    0.998344 0.356916 0.913149 0.137207
H63   H     H_    0.972710 0.399583 0.868257 0.137684
H64   H     H_    0.896462 0.262158 0.874734 0.136269
N8    N     N_3   0.482891 0.299313 0.821501 -0.632356
H65   H     H_    0.470247 0.363164 0.829142 0.213264
H66   H     H_    0.419259 0.234689 0.831434 0.227710
N9    N     N_2   0.268504 0.042696 0.607464 -0.485353
H67   H     H_    0.305647 0.091606 0.634524 0.240300
C112  C     C_3   0.204850 0.075995 0.586138 -0.284224
H68   H     H_    0.137078 0.069432 0.604115 0.118977
H69   H     H_    0.172997 0.027618 0.555621 0.157381
H70   H     H_    0.255523 0.158846 0.581808 0.135131
N10   N     N_2   0.694780 0.207273 0.213956 -0.525764
H71   H     H_    0.694680 0.213799 0.183421 0.253959
C113  C     C_3   0.613632 0.105693 0.222338 -0.296207
H72   H     H_    0.597389 0.045305 0.195477 0.155986
H73   H     H_    0.537762 0.106238 0.228671 0.138374
H74   H     H_    0.641864 0.082974 0.248470 0.176117
N11   N     N_2   0.508821 0.740494 0.786632 -0.504061
H75   H     H_    0.530848 0.752274 0.817294 0.267266
C114  C     C_3   0.395374 0.670435 0.776920 -0.317454
H76   H     H_    0.349426 0.692934 0.799018 0.142553
H77   H     H_    0.375863 0.588700 0.778874 0.135644
H78   H     H_    0.370366 0.675116 0.745853 0.143590
N12   N     N_2   0.787191 0.683036 0.677427 -0.522323
H79   H     H_    0.800029 0.719453 0.651943 0.259563
C115  C     C_3   0.772356 0.578234 0.668358 -0.284398
H80   H     H_    0.834420 0.578606 0.648312 0.140753
H81   H     H_    0.692076 0.524460 0.652334 0.168662
H82   H     H_    0.780718 0.549237 0.696664 0.156449
N13   N     N_3   0.504054 0.597556 0.622778 -0.633611
H83   H     H_    0.458766 0.559070 0.594999 0.217091
H84   H     H_    0.449996 0.594847 0.644300 0.221108
N14   N     N_2   0.814599 0.882309 0.818328 -0.514082
H85   H     H_    0.827921 0.867832 0.788292 0.250346
C116  C     C_3   0.898301 0.979612 0.840597 -0.324783
H86   H     H_    0.931641 0.039467 0.819905 0.133899
H87   H     H_    0.964001 0.968346 0.852454 0.128562
H88   H     H_    0.865259 0.009306 0.865971 0.155798
N15   N     N_2   0.547612 0.389398 0.188229 -0.521907
H89   H     H_    0.513112 0.432035 0.179802 0.238345
C117  C     C_3   0.468786 0.281743 0.189759 -0.304372
H90   H     H_    0.404340 0.279265 0.208855 0.134808
H91   H     H_    0.505613 0.240875 0.203529 0.171598
H92   H     H_    0.432832 0.240339 0.158549 0.139172
N16   N     N_2   0.752736 0.561424 0.325780 -0.517379
H93   H     H_    0.771469 0.561908 0.355890 0.260952
C118  C     C_3   0.675003 0.595956 0.320676 -0.305359
H94   H     H_    0.695179 0.665816 0.343636 0.150872
H95   H     H_    0.593500 0.533087 0.325091 0.135763
H96   H     H_    0.675739 0.618445 0.289979 0.153674

loop_
_geom_bond_atom_site_label_1
_geom_bond_atom_site_label_2
_ccdc_geom_bond_type
Cr1   O24   S    
C10   O16   A    
Cr6   O11   S    
N3    H52   S    
C21   C26   S    
C49   N5    S    
C11   O13   A    
C109  H48   S    
C65   C92   S    
C73   C74   A    
C1    O12   A    
Cr5   O19   S    
C95   C96   A    
Cr3   O3    S    
C100  C105  A    
C55   C56   T    
C118  H96   S    
C2    C12   A    
N10   H71   S    
C23   H4    S    
C6    O8    A    
C90   H25   S    
N9    H67   S    
C111  H64   S    
N15   H89   S    
Cr4   O14   S    
C77   C78   A    
C27   C33   A    
C94   H35   S    
C45   H15   S    
N5    H58   S    
C115  H82   S    
C44   H12   S    
C11   O18   A    
C103  N12   S    
C42   C44   A    
C83   C84   A    
C106  C107  A    
C51   H14   S    
C63   H19   S    
C14   N10   S    
C36   C37   A    
C34   C35   A    
C89   H34   S    
C86   C91   A    
N8    H66   S    
C97   N14   S    
C83   H30   S    
C86   C88   A    
N1    H46   S    
Cr4   O13   S    
C20   C25   A    
Cr2   O20   S    
C15   C16   A    
C29   H10   S    
C43   O26   A    
Cr3   O23   S    
C80   C85   A    
N12   H79   S    
N2    C109  S    
C67   C72   A    
C23   C26   A    
C43   O25   A    
N4    C110  S    
C68   N8    S    
C104  C105  A    
C7    O9    A    
C109  H50   S    
C48   H11   S    
C115  H80   S    
C35   H5    S    
C110  H54   S    
C52   H13   S    
C21   O22   A    
C66   C72   A    
N1    H45   S    
C88   C92   A    
N12   C115  S    
C16   C17   A    
C6    C41   S    
C4    C102  S    
C31   N2    S    
C110  H56   S    
N13   H84   S    
C23   C24   A    
C64   H17   S    
C9    O15   A    
C70   C71   T    
C51   C57   A    
C29   C30   A    
C93   C99   A    
C87   H1    S    
C61   C62   A    
C87   C98   A    
C11   C93   S    
C22   H2    S    
N3    H51   S    
C27   C32   S    
C6    O7    A    
C77   C85   S    
C59   C60   A    
C20   H44   S    
N14   H85   S    
C36   C41   A    
C102  C103  A    
Cr3   O4    S    
C9    C73   S    
C106  N13   S    
C86   H32   S    
C112  H69   S    
C112  H68   S    
C97   C99   A    
C50   N4    S    
C81   C82   A    
C65   O24   A    
C53   C55   S    
Cr1   O12   S    
Cr4   O6    S    
C99   H36   S    
C115  H81   S    
C37   H8    S    
C74   C75   A    
C51   C52   A    
C101  C102  A    
C62   H18   S    
C32   O23   A    
C36   H9    S    
Cr3   O5    S    
C24   C25   A    
N7    H61   S    
Cr1   O5    S    
Cr5   O16   S    
Cr5   O8    S    
C117  H91   S    
N6    H59   S    
C18   C19   A    
C58   C59   A    
C84   H31   S    
C4    C106  A    
C82   C83   A    
C114  H78   S    
C82   C91   S    
C67   C68   A    
C60   C61   A    
N16   C118  S    
C7    O10   A    
C64   C66   A    
C65   O4    A    
C34   N1    S    
C67   H21   S    
N8    H65   S    
C111  H62   S    
C37   C38   A    
C117  H90   S    
C24   H16   S    
C8    C57   S    
C1    O20   A    
N9    C112  S    
C47   C48   A    
C108  H42   S    
C13   C76   A    
C30   C31   A    
N11   C114  S    
Cr6   O19   S    
C96   C97   A    
C74   H23   S    
C62   C63   A    
C114  H77   S    
C17   C18   A    
C73   C79   A    
C116  H87   S    
C30   C40   S    
C94   C95   A    
C93   C94   A    
C42   C48   A    
C52   C53   A    
C84   C85   A    
C89   C92   A    
C66   N7    S    
C75   C77   A    
C76   C87   A    
C75   H29   S    
C78   H33   S    
C98   N15   S    
Cr6   O17   S    
C10   O17   A    
C20   C22   A    
C49   C50   A    
C80   H28   S    
C13   N3    S    
N14   C116  S    
C8    O6    A    
Cr3   O22   S    
C54   C58   S    
Cr1   O25   S    
C17   N16   S    
C118  H94   S    
Cr1   O1    S    
N16   H93   S    
Cr2   O2    S    
C8    O11   A    
C96   C105  S    
Cr5   O15   S    
C15   H26   S    
C5    C107  A    
C116  H88   S    
C16   C25   S    
C60   H22   S    
C46   C47   A    
C28   C29   A    
C31   C33   A    
C109  H49   S    
C59   H20   S    
C47   N6    S    
C111  H63   S    
C2    C19   S    
C78   C79   A    
C50   C57   A    
C3    H37   S    
C14   C19   A    
C68   C69   A    
C44   C45   A    
C58   C63   A    
C80   C81   A    
C118  H95   S    
N10   C113  S    
Cr5   O9    S    
C117  H92   S    
Cr2   O5    S    
Cr6   O10   S    
C7    C76   S    
C3    C108  A    
C113  H74   S    
C64   C69   A    
C101  H38   S    
C113  H73   S    
C32   O1    A    
C100  N11   S    
C89   C90   A    
N11   H75   S    
C18   H43   S    
Cr6   O18   S    
Cr2   O26   S    
C61   C71   S    
C90   C91   A    
C38   C39   S    
C95   H39   S    
Cr2   O21   S    
C49   C53   A    
Cr4   O7    S    
N13   H83   S    
C81   H27   S    
C100  C101  A    
N7    C111  S    
C88   N9    S    
N6    H60   S    
C54   O3    A    
C5    C43   S    
N4    H53   S    
C35   C41   A    
C69   C70   S    
N15   C117  S    
C54   O2    A    
C12   H3    S    
C39   C40   T    
C45   C46   A    
C1    C42   S    
C21   O21   A    
C79   H24   S    
C12   C13   A    
C2    C98   A    
C33   H6    S    
C113  H72   S    
C22   C26   A    
C46   C56   S    
C103  C104  A    
C110  H55   S    
C14   C15   A    
N2    H47   S    
C9    O14   A    
C28   H7    S    
N5    H57   S    
C104  H40   S    
C34   C38   A    
C112  H70   S    
C107  H41   S    
C3    C4    A    
C116  H86   S    
C114  H76   S    
Cr4   O19   S    
C27   C28   A    
C5    C108  A    
C10   C72   S    
