data_mof_unit_3387.cif
_audit_creation_date              2012-10-26T18:43:29-0400
_audit_creation_method            fapswitch 2.2
_symmetry_space_group_name_H-M    P1
_symmetry_Int_Tables_number       1
_space_group_crystal_system       triclinic
_cell_length_a                    10.739676
_cell_length_b                    10.815248
_cell_length_c                    9.541959
_cell_angle_alpha                 89.968506
_cell_angle_beta                  90.196766
_cell_angle_gamma                 89.964404
_cell_volume                      1108.31317847

loop_
_atom_site_label
_atom_site_type_symbol
_atom_type_description
_atom_site_fract_x
_atom_site_fract_y
_atom_site_fract_z
_atom_type_partial_charge
C1    C     C_R   0.501862 0.262332 0.500001 0.582738
C2    C     C_R   0.509561 0.936132 0.625880 -0.010239
C3    C     C_3   0.419849 0.927115 0.744716 -0.214259
C4    C     C_R   0.259883 0.500178 0.500013 0.559981
C5    C     C_3   0.416226 0.067804 0.744320 0.102899
C6    C     C_R   0.554130 0.594766 0.073895 0.159699
C7    C     C_R   0.435429 0.413718 0.074240 -0.016445
C8    C     C_R   0.435314 0.413807 0.925323 -0.018341
C9    C     C_R   0.554248 0.594665 0.926480 0.157088
C10   C     C_3   0.687625 0.632081 0.921696 -0.278078
C11   C     C_3   0.687279 0.632843 0.080613 -0.280623
C12   C     C_3   0.878325 0.502952 0.500715 0.035478
C13   C     C_R   0.502494 0.737615 0.499957 0.555551
C14   C     C_R   0.740142 0.500645 0.500298 0.547168
C15   C     C_3   0.072158 0.502164 0.653055 -0.232973
C16   C     C_3   0.929780 0.504854 0.653287 -0.238172
C17   C     C_3   0.073199 0.618634 0.424210 -0.229789
C18   C     C_3   0.071331 0.384879 0.425042 -0.237011
C19   C     C_3   0.122057 0.501396 0.500403 0.026033
C20   C     C_1   0.878158 0.735507 0.474439 0.176797
C21   C     C_3   0.928798 0.618020 0.419603 -0.105689
C22   C     C_3   0.927710 0.384424 0.427867 -0.251918
C23   C     C_R   0.507108 0.063162 0.625664 0.036482
C24   C     C_R   0.513027 0.129172 0.500109 0.042536
C25   C     C_R   0.536491 0.064505 0.375086 -0.151894
C26   C     C_R   0.537080 0.935528 0.375061 -0.133897
C27   C     C_R   0.514788 0.870597 0.500204 0.030728
Cl1   Cl    Cl    0.267039 0.127733 0.694708 -0.667929
Cu1   Cu    Cu3+1 0.499990 0.499980 0.640670 0.955491
Cu2   Cu    Cu3+1 0.500010 0.500020 0.359330 0.935694
H1    H     H_    0.107946 0.584501 0.710514 0.132207
H2    H     H_    0.385053 0.342503 0.129873 0.123902
H3    H     H_    0.104956 0.418316 0.710147 0.165936
H4    H     H_    0.384625 0.342903 0.869398 0.159138
H5    H     H_    0.747927 0.558218 0.878415 0.144225
H6    H     H_    0.700346 0.725294 0.874749 0.137268
H7    H     H_    0.748315 0.560244 0.126380 0.146554
H8    H     H_    0.699002 0.726685 0.126217 0.124688
H9    H     H_    0.894535 0.423729 0.713149 0.132342
H10   H     H_    0.898170 0.589879 0.708103 0.134142
H11   H     H_    0.109848 0.702421 0.478401 0.130127
H12   H     H_    0.891575 0.378609 0.318566 0.126565
H13   H     H_    0.103679 0.383059 0.314348 0.129122
H14   H     H_    0.107357 0.299903 0.477127 0.175445
H15   H     H_    0.894380 0.300824 0.484609 0.134259
H16   H     H_    0.109337 0.621504 0.315025 0.122829
H17   H     H_    0.899021 0.611535 0.308137 0.103569
H18   H     H_    0.548767 0.112862 0.276670 0.128579
H19   H     H_    0.549373 0.887338 0.276591 0.128878
H20   H     H_    0.330837 0.882016 0.713779 0.179036
H21   H     H_    0.464323 0.888121 0.840419 0.103220
H22   H     H_    0.456420 0.109989 0.840538 0.115750
N1    N     N_R   0.500800 0.500930 0.147930 -0.232943
N2    N     N_R   0.500800 0.500890 0.852020 -0.237163
N3    N     N_1   0.838420 0.827405 0.517425 -0.302960
O1    O     O_R   0.500000 0.319640 0.618810 -0.484837
O2    O     O_R   0.500010 0.319680 0.381230 -0.518620
O3    O     O_R   0.317690 0.499960 0.618790 -0.497095
O4    O     O_R   0.317700 0.500000 0.381210 -0.507126
O5    O     O_R   0.499990 0.680320 0.618770 -0.501667
O6    O     O_R   0.500000 0.680360 0.381190 -0.506567
O7    O     O_R   0.682300 0.500000 0.618790 -0.511204
O8    O     O_R   0.682310 0.500040 0.381210 -0.514709

loop_
_geom_bond_atom_site_label_1
_geom_bond_atom_site_label_2
_ccdc_geom_bond_type
C11   H8    S    
C23   C24   A    
C5    H22   S    
C15   H1    S    
Cu1   Cu2   S    
C9    N2    A    
Cu1   O1    S    
C18   H14   S    
C5    Cl1   S    
C9    C10   S    
C5    C23   S    
Cu1   O5    S    
C2    C27   A    
Cu2   O4    S    
C6    C9    A    
C2    C3    S    
C18   H13   S    
C24   C25   A    
C7    C8    A    
C13   O5    A    
C8    H4    S    
Cu2   O8    S    
C17   H16   S    
C15   C19   S    
C25   H18   S    
C26   C27   A    
C22   H12   S    
C16   H10   S    
C20   N3    T    
C14   O8    A    
Cu1   O3    S    
C4    O4    A    
C17   C19   S    
C1    O1    A    
C12   C14   S    
C1    O2    A    
Cu2   N1    S    
C17   H11   S    
C26   H19   S    
C10   C11   S    
C7    N1    A    
C16   H9    S    
C4    O3    A    
C15   C16   S    
C10   H5    S    
Cu2   O2    S    
C12   C22   S    
C6    C11   S    
C22   H15   S    
C13   O6    A    
C20   C21   S    
C1    C24   S    
C18   C19   S    
Cu1   N2    S    
Cu2   O6    S    
C8    N2    A    
C2    C23   A    
C11   H7    S    
C3    H21   S    
Cu1   O7    S    
C13   C27   S    
C10   H6    S    
C7    H2    S    
C6    N1    A    
C3    C5    S    
C25   C26   A    
C18   C22   S    
C4    C19   S    
C12   C21   S    
C3    H20   S    
C17   C21   S    
C12   C16   S    
C15   H3    S    
C21   H17   S    
C14   O7    A    
