data_mof_unit_2725.cif
_audit_creation_date              2013-03-05T15:52:14-0500
_audit_creation_method            fapswitch 2.2
_symmetry_space_group_name_H-M    P1
_symmetry_Int_Tables_number       1
_space_group_crystal_system       triclinic
_cell_length_a                    23.578749
_cell_length_b                    10.907222
_cell_length_c                    9.691747
_cell_angle_alpha                 90.816329
_cell_angle_beta                  90.050245
_cell_angle_gamma                 98.112573
_cell_volume                      2467.30620022

loop_
_atom_site_label
_atom_site_type_symbol
_atom_site_description
_atom_site_fract_x
_atom_site_fract_y
_atom_site_fract_z
_atom_type_partial_charge
O1    O     O_R   0.500000 0.319640 0.618810 -0.572120
O2    O     O_R   0.500000 0.319660 0.381240 -0.533042
C1    C     C_R   0.503787 0.263805 0.499872 0.818189
O3    O     O_R   0.417880 0.499950 0.618810 -0.563552
O4    O     O_R   0.417880 0.499980 0.381240 -0.554338
C2    C     C_R   0.391098 0.497902 0.499964 0.861707
Cu1   Cu    Cu3+1 0.500000 0.499990 0.640660 1.015235
Cu2   Cu    Cu3+1 0.500000 0.500010 0.359340 1.095166
O5    O     O_R   0.500000 0.680340 0.618760 -0.624984
O6    O     O_R   0.500000 0.680360 0.381190 -0.566685
O7    O     O_R   0.582120 0.500020 0.618760 -0.582702
O8    O     O_R   0.582120 0.500050 0.381190 -0.514156
C3    C     C_R   0.497052 0.736632 0.501608 0.822278
C4    C     C_R   0.608943 0.494753 0.500337 0.902609
C5    C     C_R   0.891824 0.616001 0.502472 0.697507
N1    N     N_R   0.854075 0.509153 0.493918 -0.442067
C6    C     C_R   0.872184 0.395579 0.487764 0.695665
C7    C     C_R   0.931246 0.385463 0.489322 -0.163788
C8    C     C_R   0.970965 0.495371 0.498641 -0.031379
C9    C     C_R   0.950982 0.611291 0.504719 -0.072731
C10   C     C_R   0.951626 0.269587 0.486232 0.252294
C11   C     C_R   0.010553 0.263785 0.494438 0.266000
C12   C     C_R   0.050655 0.373410 0.498569 -0.160815
C13   C     C_R   0.030647 0.489822 0.502305 -0.063475
C14   C     C_R   0.070170 0.600814 0.510298 -0.081407
C15   C     C_R   0.049022 0.716295 0.516027 0.313540
C16   C     C_R   0.990207 0.720077 0.513448 -0.113233
C17   C     C_R   0.110379 0.370861 0.495980 0.705070
N2    N     N_R   0.147615 0.478488 0.502154 -0.456236
C18   C     C_R   0.129255 0.591363 0.511609 0.650476
O9    O     O_2   0.872053 0.726182 0.508674 -0.421387
O10   O     O_2   0.832629 0.293374 0.482682 -0.409800
O11   O     O_2   0.131610 0.262674 0.484281 -0.407030
O12   O     O_2   0.168777 0.693084 0.521597 -0.444330
H1    H     H_    0.975260 0.809544 0.518114 0.243546
C19   C     C_R   0.239239 0.502116 0.374257 0.336952
C20   C     C_R   0.299154 0.511797 0.377577 -0.186315
H2    H     H_    0.323154 0.535255 0.284265 0.233495
C21   C     C_R   0.328269 0.491956 0.499708 -0.159464
C22   C     C_R   0.296935 0.464141 0.620838 -0.183066
H3    H     H_    0.318532 0.449426 0.716506 0.225514
C23   C     C_R   0.237432 0.455600 0.620295 0.295880
C24   C     C_R   0.208184 0.474238 0.497547 0.139759
C25   C     C_R   0.762332 0.494644 0.371043 0.261429
C26   C     C_R   0.702139 0.483023 0.373181 0.209033
C27   C     C_R   0.672442 0.492176 0.500214 -0.302526
C28   C     C_R   0.704852 0.503387 0.625185 0.181061
C29   C     C_R   0.765030 0.519264 0.621225 0.291902
C30   C     C_R   0.793513 0.514096 0.494709 0.027473
H4    H     H_    0.501133 0.106700 0.282452 0.245133
C31   C     C_R   0.532843 0.128660 0.750660 -0.133643
H5    H     H_    0.559004 0.218483 0.750533 0.207927
C32   C     C_R   0.518801 0.074238 0.876618 0.327746
C33   C     C_R   0.485598 0.957065 0.879678 0.241653
C34   C     C_R   0.476176 0.887839 0.757590 -0.230661
H6    H     H_    0.450949 0.797361 0.763088 0.207374
C35   C     C_R   0.495155 0.939665 0.630418 0.061637
C36   C     C_R   0.513185 0.068132 0.627370 0.054151
C37   C     C_R   0.509423 0.131004 0.501979 -0.112991
C38   C     C_R   0.503669 0.062134 0.379442 -0.043546
H7    H     H_    0.503705 0.885384 0.284973 0.215869
C39   C     C_R   0.501490 0.934676 0.381169 -0.079950
C40   C     C_R   0.495596 0.870937 0.505475 -0.091565
C41   C     C_R   0.575716 0.701687 0.133088 0.189928
C42   C     C_R   0.602363 0.798389 0.046780 0.203983
C43   C     C_R   0.602068 0.782477 0.904982 0.175664
C44   C     C_R   0.572183 0.676539 0.849061 -0.190039
H8    H     H_    0.577088 0.667942 0.741765 0.252696
C45   C     C_R   0.536212 0.589237 0.924699 0.076969
C46   C     C_R   0.537025 0.594042 0.074382 0.090680
N3    N     N_R   0.500540 0.501210 0.147910 -0.244171
C47   C     C_R   0.463091 0.418608 0.072866 0.392458
C48   C     C_R   0.463516 0.417910 0.925569 0.290829
N4    N     N_R   0.500560 0.501290 0.852040 -0.229489
N5    N     N_R   0.913029 0.155732 0.477353 0.195228
O13   O     O_R   0.891807 0.116173 0.358259 -0.192315
O14   O     O_R   0.905559 0.083795 0.583656 -0.208565
N6    N     N_R   0.671654 0.456535 0.245673 0.186866
O15   O     O_R   0.640677 0.349135 0.226433 -0.244372
O16   O     O_R   0.681634 0.531228 0.142286 -0.238287
Br1   Br    Br    0.670558 0.478124 0.805640 -0.248239
N7    N     N_R   0.797571 0.536921 0.747113 0.183536
O17   O     O_R   0.833512 0.461654 0.779281 -0.262916
O18   O     O_R   0.792054 0.630096 0.828942 -0.188158
Br2   Br    Br    0.545526 0.167935 0.036288 -0.318566
Br3   Br    Br    0.449445 0.889989 0.042737 -0.462126
N8    N     N_R   0.419859 0.337644 0.142864 0.160048
O19   O     O_R   0.368080 0.365577 0.147267 -0.312836
O20   O     O_R   0.427414 0.223806 0.164533 -0.296188
N9    N     N_R   0.028698 0.144655 0.504505 0.187593
O21   O     O_R   0.043922 0.107684 0.624251 -0.229340
O22   O     O_R   0.019497 0.065693 0.402305 -0.245197
Br4   Br    Br    0.612826 0.732802 0.311768 -0.325700
N10   N     N_R   0.636468 0.907593 0.103535 0.210518
O23   O     O_R   0.691609 0.925853 0.083979 -0.161650
O24   O     O_R   0.613418 0.982635 0.184635 -0.267225
N11   N     N_R   0.633376 0.872446 0.815015 0.171000
O25   O     O_R   0.637931 0.990403 0.843217 -0.254805
O26   O     O_R   0.653521 0.837461 0.698080 -0.279942
Br5   Br    Br    0.409084 0.297646 0.831191 -0.346069
Br6   Br    Br    0.096453 0.874786 0.526617 -0.149424
N12   N     N_R   0.210899 0.522806 0.246436 0.168396
O27   O     O_R   0.158254 0.473103 0.223003 -0.286638
O28   O     O_R   0.239130 0.583845 0.147802 -0.260467
Br7   Br    Br    0.197225 0.423069 0.790734 -0.250171
N13   N     N_R   0.792011 0.480775 0.243354 0.185793
O29   O     O_R   0.836469 0.559702 0.210839 -0.255003
O30   O     O_R   0.776409 0.385890 0.162213 -0.174565

loop_
_geom_bond_atom_site_label_1
_geom_bond_atom_site_label_2
_geom_bond_distance
_ccdc_geom_bond_type
C25   C30   1.403294 A    
C48   Br5   1.921764 S    
C31   C32   1.384953 A    
N8    O19   1.299987 A    
C22   H3    1.082238 S    
C7    C10   1.414067 A    
C48   N4    1.375936 A    
C8    C9    1.410732 A    
C34   H6    1.080009 S    
N11   O25   1.300948 A    
C35   C36   1.406444 A    
Cu1   Cu2   2.726484 S    
C4    C27   1.501452 S    
C32   C33   1.402107 A    
Cu1   O7    1.948025 S    
C17   N2    1.363633 A    
C15   C16   1.393418 A    
C39   C40   1.396757 A    
C43   N11   1.445415 S    
C38   C39   1.384235 A    
C19   C20   1.402034 A    
C41   Br4   1.943306 S    
C45   C46   1.450896 A    
C15   Br6   1.923212 S    
O4    C2    1.311957 A    
O7    C4    1.315382 A    
N6    O16   1.301033 A    
N13   O29   1.301108 A    
C5    N1    1.364423 A    
C19   N12   1.442623 S    
C7    C8    1.415008 A    
O5    C3    1.304891 A    
C33   C34   1.395088 A    
N1    C6    1.366624 A    
C12   C13   1.415567 A    
C46   N3    1.431403 A    
C41   C46   1.487362 A    
N2    C18   1.363378 A    
C22   C23   1.392926 A    
C43   C44   1.370073 A    
C37   C38   1.392339 A    
C10   C11   1.401999 A    
N2    C24   1.436134 S    
N12   O27   1.300928 A    
O3    Cu1   1.947586 S    
N11   O26   1.302074 A    
C35   C40   1.415890 A    
Cu1   N4    2.048507 S    
C5    C9    1.403201 A    
C18   O12   1.346743 S    
C44   H8    1.050721 S    
C45   N4    1.369257 A    
C13   C14   1.420850 A    
O3    C2    1.311485 A    
C21   C22   1.401604 A    
C33   Br3   1.902264 S    
N6    O15   1.300981 A    
C16   H1    1.083678 S    
C36   C37   1.412706 A    
C26   C27   1.426113 A    
C31   H5    1.081580 S    
O1    C1    1.305044 A    
N10   O24   1.300417 A    
N5    O13   1.301032 A    
C20   H2    1.081752 S    
N9    O22   1.300956 A    
C28   C29   1.405611 A    
C3    C40   1.470076 S    
Cu2   O8    1.947586 S    
C2    C21   1.473673 S    
C6    C7    1.412473 A    
C11   N9    1.428779 S    
N10   O23   1.301696 A    
C31   C36   1.403081 A    
C12   C17   1.412660 A    
N1    C30   1.436600 S    
N12   O28   1.301659 A    
N5    O14   1.300945 A    
C26   N6    1.434201 S    
C29   C30   1.402795 A    
O8    C4    1.322008 A    
C17   O11   1.348667 S    
C42   C43   1.382618 A    
N7    O18   1.301234 A    
N8    O20   1.298967 A    
C23   C24   1.406122 A    
C47   N8    1.429467 S    
C25   C26   1.407185 A    
C14   C18   1.411452 A    
Cu1   O5    1.981540 S    
C27   C28   1.426072 A    
C42   N10   1.441596 S    
Cu2   N3    2.049395 S    
O1    Cu1   1.975480 S    
O2    Cu2   1.981538 S    
C47   C48   1.427535 A    
O6    C3    1.317327 A    
O4    Cu2   1.948027 S    
C5    O9    1.349554 S    
C9    C16   1.399198 A    
C25   N13   1.438795 S    
C10   N5    1.433739 S    
H4    C38   1.069850 S    
C41   C42   1.430382 A    
C34   C35   1.410079 A    
O2    C1    1.317639 A    
C14   C15   1.419010 A    
N3    C47   1.369688 A    
C20   C21   1.402487 A    
N9    O21   1.300687 A    
N13   O30   1.301415 A    
C29   N7    1.436780 S    
C8    C13   1.417489 A    
C28   Br1   1.934385 S    
H7    C39   1.074572 S    
C23   Br7   1.917741 S    
Cu2   O6    1.975481 S    
N7    O17   1.300962 A    
C6    O10   1.349045 S    
C11   C12   1.415931 A    
C19   C24   1.416135 A    
C32   Br2   1.899385 S    
C44   C45   1.398752 A    
C1    C37   1.473561 S    
