data_mof_unit_3220.cif
_audit_creation_date              2012-12-10T18:46:12-0500
_audit_creation_method            fapswitch 2.2
_symmetry_space_group_name_H-M    P1
_symmetry_Int_Tables_number       1
_space_group_crystal_system       triclinic
_cell_length_a                    9.928065
_cell_length_b                    10.605521
_cell_length_c                    13.050263
_cell_angle_alpha                 90.394585
_cell_angle_beta                  69.593828
_cell_angle_gamma                 88.327308
_cell_volume                      1287.09795214

loop_
_atom_site_label
_atom_site_type_symbol
_atom_type_description
_atom_site_fract_x
_atom_site_fract_y
_atom_site_fract_z
_atom_type_partial_charge
C1    C     C_R   0.499001 0.739621 0.499093 0.924097
C2    C     C_R   0.433220 0.446350 0.984407 -0.127266
C3    C     C_R   0.467791 0.420249 0.872034 -0.283346
C4    C     C_R   0.545897 0.441901 0.027121 0.032798
C5    C     C_R   0.680484 0.382693 0.966768 -0.085061
C6    C     C_R   0.702999 0.333717 0.862287 0.523624
C7    C     C_R   0.598199 0.352380 0.814962 0.574500
C8    C     C_R   0.529659 0.499749 0.126778 -0.078949
C9    C     C_R   0.761521 0.415876 0.119996 -0.217123
C10   C     C_R   0.369412 0.461737 0.821586 -0.195666
C11   C     C_R   0.391189 0.936589 0.585147 -0.302484
C12   C     C_R   0.420437 0.488436 0.703980 0.928140
C13   C     C_R   0.392470 0.066534 0.592669 0.186532
C14   C     C_R   0.500387 0.128314 0.509682 -0.093281
C15   C     C_R   0.607825 0.062845 0.426120 -0.277687
C16   C     C_R   0.606489 0.933786 0.421421 0.642876
C17   C     C_R   0.496695 0.872205 0.500047 -0.188384
C18   C     C_R   0.952190 0.401580 0.454934 -0.102265
C19   C     C_R   0.095115 0.401087 0.455411 0.720973
C20   C     C_R   0.044748 0.601566 0.542780 0.134766
C21   C     C_R   0.901367 0.597335 0.545071 -0.092518
C22   C     C_R   0.499671 0.260679 0.504143 0.907535
C23   C     C_R   0.580379 0.498841 0.295241 0.884805
C24   C     C_R   0.788382 0.371432 0.013463 -0.044028
C25   C     C_R   0.630150 0.478240 0.177295 -0.082625
C26   C     C_R   0.225266 0.489030 0.886942 0.522380
C27   C     C_R   0.184329 0.489864 0.000057 -0.297410
C28   C     C_R   0.286948 0.472578 0.049347 0.598078
H1    H     H_    0.840347 0.397509 0.158658 0.167050
H2    H     H_    0.690241 0.112091 0.363341 0.172764
H3    H     H_    0.917742 0.322813 0.418188 0.165005
H4    H     H_    0.824510 0.674033 0.580803 0.161434
H5    H     H_    0.890918 0.324293 0.969591 0.204686
H6    H     H_    0.436597 0.559955 0.168257 0.204099
H7    H     H_    0.072682 0.507648 0.050007 0.194146
H8    H     H_    0.311265 0.885300 0.647358 0.166527
N1    N     N_R   0.142790 0.500030 0.500030 -0.137285
N2    N     N_R   0.857180 0.499940 0.500010 -0.116382
O1    O     O_R   0.385370 0.683250 0.500010 -0.647207
O2    O     O_R   0.614700 0.683220 0.500010 -0.588526
O3    O     O_R   0.328400 0.499990 0.653620 -0.588056
O4    O     O_R   0.557730 0.499960 0.653620 -0.574478
O5    O     O_R   0.385300 0.316780 0.499990 -0.571044
O6    O     O_R   0.614630 0.316750 0.499990 -0.579354
O7    O     O_R   0.442270 0.500040 0.346380 -0.572740
O8    O     O_R   0.671600 0.500010 0.346380 -0.602884
Zn1   Zn    Zn3+2 0.346870 0.500020 0.500000 1.035788
Zn2   Zn    Zn3+2 0.653130 0.499980 0.500000 1.023308
C29   C     C_3   0.280524 0.133933 0.689873 -0.346353
C30   C     C_3   0.302288 0.101255 0.796995 -0.817519
H9    H     H_    0.284528 0.999696 0.815071 0.252218
H10   H     H_    0.224324 0.157618 0.865190 0.259838
H11   H     H_    0.412793 0.123624 0.792332 0.293253
H12   H     H_    0.283086 0.237815 0.683335 0.230709
H13   H     H_    0.171444 0.106445 0.694363 0.237589
F1    F     F_    0.709681 0.869063 0.339643 -0.654132
F2    F     F_    0.185749 0.302392 0.408274 -0.624832
C31   C     C_3   0.079866 0.727226 0.582239 -0.380688
C32   C     C_3   0.083167 0.723700 0.698032 -0.693128
H14   H     H_    0.996787 0.664015 0.750532 0.293593
H15   H     H_    0.188863 0.689491 0.697952 0.289504
H16   H     H_    0.064507 0.820547 0.734307 0.214437
H17   H     H_    0.172414 0.770822 0.521876 0.237941
H18   H     H_    0.994173 0.799118 0.586127 0.184689
F3    F     F_    0.827248 0.269390 0.805060 -0.636227
F4    F     F_    0.123100 0.513375 0.842272 -0.670451
F5    F     F_    0.238793 0.468871 0.160196 -0.664953
F6    F     F_    0.619652 0.293586 0.717565 -0.635348

loop_
_geom_bond_atom_site_label_1
_geom_bond_atom_site_label_2
_ccdc_geom_bond_type
C30   H10   S    
C16   F1    S    
C9    C24   A    
C6    C7    A    
C23   O7    A    
C22   O5    A    
N1    Zn1   S    
C1    C17   S    
C24   H5    S    
C9    H1    S    
C4    C8    A    
C29   H13   S    
C10   C26   A    
O7    Zn1   S    
C2    C3    A    
C18   N2    A    
C22   O6    A    
C9    C25   A    
C32   H14   S    
C23   O8    A    
O4    Zn2   S    
C13   C14   A    
C12   O4    A    
C4    C5    A    
C20   N1    A    
C11   C13   A    
C14   C22   S    
C26   C27   A    
C12   O3    A    
C5    C24   A    
C10   C12   S    
C13   C29   S    
C2    C4    A    
C11   H8    S    
O3    Zn1   S    
C28   F5    S    
N2    Zn2   S    
C30   H9    S    
C3    C7    A    
C23   C25   S    
C31   H18   S    
C5    C6    A    
C21   H4    S    
O8    Zn2   S    
C32   H15   S    
C30   H11   S    
C1    O1    A    
C8    C25   A    
C15   C16   A    
C26   F4    S    
O6    Zn2   S    
C31   H17   S    
C20   C31   S    
C20   C21   A    
C15   H2    S    
O1    Zn1   S    
C29   C30   S    
C27   C28   A    
C3    C10   A    
O2    Zn2   S    
C14   C15   A    
C18   C19   A    
C32   H16   S    
C2    C28   A    
C18   H3    S    
C19   N1    A    
C1    O2    A    
C27   H7    S    
C7    F6    S    
C8    H6    S    
C31   C32   S    
O5    Zn1   S    
C19   F2    S    
C6    F3    S    
C11   C17   A    
C21   N2    A    
C29   H12   S    
C16   C17   A    
