data_mof_unit_3707.cif
_audit_creation_date              2012-12-10T19:13:28-0500
_audit_creation_method            fapswitch 2.2
_symmetry_space_group_name_H-M    P1
_symmetry_Int_Tables_number       1
_space_group_crystal_system       triclinic
_cell_length_a                    9.816737
_cell_length_b                    11.05792
_cell_length_c                    16.881586
_cell_angle_alpha                 92.711798
_cell_angle_beta                  84.838534
_cell_angle_gamma                 89.93368
_cell_volume                      1823.04005194

loop_
_atom_site_label
_atom_site_type_symbol
_atom_type_description
_atom_site_fract_x
_atom_site_fract_y
_atom_site_fract_z
_atom_type_partial_charge
C1    C     C_R   0.500352 0.743240 0.500419 1.064169
C2    C     C_R   0.381737 0.565782 0.788980 0.391186
C3    C     C_R   0.527500 0.408789 0.131067 0.434919
C4    C     C_R   0.471258 0.435184 0.209166 0.292117
C5    C     C_R   0.665440 0.566241 0.229888 0.498067
C6    C     C_R   0.711389 0.552446 0.149583 0.332024
C7    C     C_R   0.637915 0.478404 0.099772 -0.199897
C8    C     C_2   0.540150 0.546057 0.983881 0.612137
C9    C     C_2   0.648969 0.498094 0.014816 -0.153311
C10   C     C_R   0.546289 0.506760 0.260580 -0.454316
C11   C     C_3   0.436305 0.920671 0.421263 0.692925
C12   C     C_R   0.480703 0.495434 0.652661 0.902264
C13   C     C_3   0.445632 0.066492 0.413588 0.642842
C14   C     C_3   0.422603 0.937158 0.583836 0.659742
C15   C     C_3   0.655558 0.932891 0.498734 0.840961
C16   C     C_3   0.500874 0.881744 0.501923 -0.580762
C17   C     C_3   0.499380 0.121828 0.495496 -0.637414
C18   C     C_3   0.419029 0.081004 0.577174 0.833020
C19   C     C_3   0.651200 0.074037 0.497242 0.953682
C20   C     C_3   0.916487 0.624189 0.515810 0.910104
C21   C     C_3   0.078239 0.625901 0.506141 0.256358
C22   C     C_3   0.911271 0.425573 0.565315 0.955213
C23   C     C_R   0.500037 0.257921 0.498505 1.080658
C24   C     C_3   0.930172 0.450763 0.423574 0.737746
C25   C     C_3   0.071969 0.437333 0.569457 -0.027335
C26   C     C_3   0.091558 0.440594 0.427562 0.930852
C27   C     C_R   0.520605 0.504674 0.347185 0.959842
C28   C     C_R   0.472209 0.490490 0.739082 -0.280027
C29   C     C_R   0.570106 0.419963 0.771452 0.708279
C30   C     C_R   0.591511 0.435536 0.851002 -0.330069
C31   C     C_R   0.517614 0.524103 0.899287 -0.074316
C32   C     C_R   0.410633 0.585720 0.868781 -0.268295
H1    H     H_    0.117601 0.679899 0.556328 0.184201
H2    H     H_    0.118472 0.347242 0.563891 0.181936
H3    H     H_    0.739606 0.465296 0.978800 0.103632
H4    H     H_    0.351549 0.650721 0.907351 0.189671
H5    H     H_    0.666738 0.378071 0.873555 0.166296
N1    N     N_3   0.861190 0.500250 0.501720 -0.305215
N2    N     N_3   0.138550 0.503270 0.501080 -0.262115
O1    O     O_R   0.383960 0.685090 0.500020 -0.558154
O2    O     O_R   0.616040 0.685320 0.499960 -0.510889
O3    O     O_R   0.370240 0.499890 0.615830 -0.574918
O4    O     O_R   0.602330 0.500120 0.615770 -0.531212
O5    O     O_R   0.383960 0.314680 0.500040 -0.584491
O6    O     O_R   0.616040 0.314910 0.499980 -0.500127
O7    O     O_R   0.397670 0.499880 0.384230 -0.501849
O8    O     O_R   0.629760 0.500110 0.384170 -0.558569
Zn1   Zn    Zn3+2 0.345040 0.499850 0.500040 1.110773
Zn2   Zn    Zn3+2 0.654960 0.500150 0.499960 1.204510
F1    F     F_    0.646723 0.336597 0.725383 -0.539702
O9    O     O_3   0.816577 0.623538 0.118066 -0.563286
C33   C     C_3   0.941470 0.566144 0.128554 -0.236951
H6    H     H_    0.026288 0.620544 0.100912 0.184414
H7    H     H_    0.948070 0.474077 0.098645 0.116546
H8    H     H_    0.956792 0.561138 0.192817 0.228290
O10   O     O_3   0.308442 0.859827 0.411826 -0.583814
C34   C     C_3   0.179027 0.907447 0.440236 -0.095082
H9    H     H_    0.162822 0.002975 0.443009 0.133807
H10   H     H_    0.142892 0.869009 0.496896 0.205737
H11   H     H_    0.105855 0.877555 0.396997 0.248845
O11   O     O_3   0.530218 0.866581 0.359159 -0.500935
C35   C     C_3   0.480000 0.847293 0.283425 -0.019387
H12   H     H_    0.457481 0.932981 0.256167 0.117162
H13   H     H_    0.392195 0.783968 0.284535 0.162291
H14   H     H_    0.562393 0.804196 0.242608 0.182086
O12   O     O_3   0.546381 0.087496 0.348316 -0.557323
C36   C     C_3   0.560480 0.209137 0.325772 -0.200535
H15   H     H_    0.468518 0.266266 0.340638 0.197454
H16   H     H_    0.586640 0.208926 0.260579 0.131342
H17   H     H_    0.644946 0.253402 0.353735 0.215118
O13   O     O_3   0.320562 0.124063 0.399212 -0.621189
C37   C     C_3   0.275504 0.099522 0.321941 -0.141808
H18   H     H_    0.258843 0.002555 0.308261 0.127010
H19   H     H_    0.342402 0.136546 0.272841 0.181205
H20   H     H_    0.174485 0.143446 0.320296 0.210944
O14   O     O_3   0.289439 0.886813 0.596922 -0.662514
C38   C     C_3   0.227387 0.909851 0.675821 -0.230795
H21   H     H_    0.114761 0.914142 0.674562 0.141523
H22   H     H_    0.261586 0.994670 0.705692 0.226102
H23   H     H_    0.246771 0.834645 0.713227 0.215170
O15   O     O_3   0.296835 0.146215 0.605676 -0.596340
C39   C     C_3   0.174806 0.125656 0.570643 -0.321857
H24   H     H_    0.175825 0.167628 0.513349 0.286419
H25   H     H_    0.091747 0.169421 0.610518 0.188601
H26   H     H_    0.140393 0.033222 0.569645 0.153059
O16   O     O_3   0.725105 0.894783 0.564160 -0.559198
C40   C     C_3   0.862756 0.936196 0.562796 0.080003
H27   H     H_    0.932119 0.862299 0.574078 0.152115
H28   H     H_    0.871745 0.003606 0.612829 0.176426
H29   H     H_    0.903180 0.975784 0.506105 0.162637
F2    F     F_    0.729908 0.887562 0.429658 -0.510456
F3    F     F_    0.736696 0.108925 0.432837 -0.589480
O17   O     O_3   0.344907 0.389506 0.234904 -0.563824
C41   C     C_3   0.244194 0.454442 0.199137 -0.032586
H30   H     H_    0.255846 0.445300 0.133105 0.170284
H31   H     H_    0.243979 0.552071 0.218670 0.184697
H32   H     H_    0.142608 0.417058 0.217328 0.150480
F4    F     F_    0.708001 0.127217 0.562453 -0.532368
O18   O     O_3   0.501031 0.914601 0.650056 -0.541608
C42   C     C_3   0.506218 0.793619 0.673400 -0.144366
H33   H     H_    0.427912 0.734124 0.649576 0.165151
H34   H     H_    0.491006 0.794429 0.739300 0.164961
H35   H     H_    0.608738 0.753908 0.656012 0.229052
F5    F     F_    0.498921 0.124764 0.636045 -0.535528
F6    F     F_    0.869440 0.667549 0.591714 -0.657643
F7    F     F_    0.869274 0.701830 0.462595 -0.491421
F8    F     F_    0.120855 0.679466 0.436540 -0.572540
F9    F     F_    0.844950 0.460305 0.638634 -0.545821
O19   O     O_3   0.100194 0.493491 0.643575 -0.524561
C43   C     C_3   0.098791 0.406019 0.702662 -0.014790
H36   H     H_    0.199524 0.359515 0.699791 0.172845
H37   H     H_    0.078258 0.451310 0.762176 0.161663
H38   H     H_    0.016824 0.337307 0.698039 0.164412
O20   O     O_3   0.874199 0.335633 0.404077 -0.525323
C44   C     C_3   0.904563 0.300435 0.322561 -0.117566
H39   H     H_    0.877910 0.203726 0.313346 0.204943
H40   H     H_    0.014513 0.307599 0.302858 0.168017
H41   H     H_    0.842932 0.353709 0.284315 0.133794
F10   F     F_    0.733429 0.643424 0.277291 -0.517005
F11   F     F_    0.904992 0.529976 0.364714 -0.556752
F12   F     F_    0.154091 0.490077 0.360471 -0.566067
F13   F     F_    0.132164 0.320628 0.423933 -0.675084
F14   F     F_    0.880292 0.304833 0.551890 -0.571549
O21   O     O_3   0.459235 0.330541 0.081962 -0.573911
C45   C     C_3   0.538749 0.224716 0.065081 -0.309022
H42   H     H_    0.555396 0.178314 0.120481 0.150164
H43   H     H_    0.638388 0.244142 0.031439 0.158322
H44   H     H_    0.482399 0.161315 0.027125 0.198689
O22   O     O_3   0.276276 0.624561 0.755661 -0.591843
C46   C     C_3   0.169579 0.666551 0.812326 -0.314387
H45   H     H_    0.078565 0.686141 0.780481 0.226974
H46   H     H_    0.198926 0.752669 0.842739 0.145728
H47   H     H_    0.138608 0.597824 0.856495 0.161784
O23   O     O_3   0.433798 0.597767 0.034346 -0.615595
C47   C     C_3   0.465698 0.719906 0.052086 -0.410217
H48   H     H_    0.482852 0.771709 0.997149 0.171576
H49   H     H_    0.556368 0.727874 0.086811 0.198860
H50   H     H_    0.377886 0.762228 0.089296 0.188486

loop_
_geom_bond_atom_site_label_1
_geom_bond_atom_site_label_2
_ccdc_geom_bond_type
C10   C27   S    
C47   H50   S    
C40   H27   S    
C24   O20   S    
O17   C41   S    
C23   O6    A    
C14   C18   S    
C2    O22   S    
O20   C44   S    
C47   H48   S    
O8    Zn2   S    
N1    Zn2   S    
C38   H21   S    
C33   H6    S    
C15   C19   S    
C35   H12   S    
C5    F10   S    
C32   H4    S    
C28   C29   A    
C24   C26   S    
O22   C46   S    
C12   O4    A    
C3    C7    A    
C5    C6    A    
C9    H3    S    
C26   N2    S    
C34   H10   S    
C21   H1    S    
C15   C16   S    
C22   N1    S    
C18   O15   S    
O10   C34   S    
C2    C32   A    
O1    Zn1   S    
C43   H36   S    
C35   H13   S    
C19   F3    S    
C1    O1    A    
C31   C32   A    
C8    C9    D    
C44   H40   S    
C22   C25   S    
C21   N2    S    
C45   H44   S    
C24   N1    S    
C26   F12   S    
C6    O9    S    
C33   H8    S    
C25   O19   S    
C25   H2    S    
C29   F1    S    
O12   C36   S    
C41   H30   S    
C12   O3    A    
C37   H20   S    
O2    Zn2   S    
C19   F4    S    
C33   H7    S    
O15   C39   S    
C20   F7    S    
C13   O12   S    
C38   H22   S    
O7    Zn1   S    
C24   F11   S    
C8    O23   S    
C36   H15   S    
C14   O18   S    
O14   C38   S    
C37   H19   S    
O16   C40   S    
O4    Zn2   S    
C34   H11   S    
O3    Zn1   S    
C13   O13   S    
C41   H32   S    
C42   H35   S    
C23   O5    A    
O9    C33   S    
C30   H5    S    
C36   H16   S    
C14   O14   S    
C46   H46   S    
C29   C30   A    
C20   N1    S    
C11   C16   S    
O18   C42   S    
C17   C23   S    
O6    Zn2   S    
C44   H41   S    
C42   H34   S    
C17   C18   S    
C1    C16   S    
C18   F5    S    
C41   H31   S    
C43   H38   S    
C21   F8    S    
C15   O16   S    
C27   O7    A    
C1    O2    A    
C12   C28   S    
C39   H25   S    
C40   H28   S    
C45   H42   S    
C14   C16   S    
C46   H47   S    
C4    C10   A    
C3    C4    A    
C3    O21   S    
C22   F14   S    
C20   F6    S    
C38   H23   S    
C27   O8    A    
C47   H49   S    
C35   H14   S    
C8    C31   S    
C37   H18   S    
C11   O11   S    
C6    C7    A    
C39   H26   S    
O23   C47   S    
C13   C17   S    
C36   H17   S    
C46   H45   S    
C5    C10   A    
O19   C43   S    
C25   N2    S    
C11   C13   S    
C34   H9    S    
C30   C31   A    
C22   F9    S    
C42   H33   S    
C17   C19   S    
O11   C35   S    
C43   H37   S    
C15   F2    S    
C4    O17   S    
C7    C9    S    
O13   C37   S    
C20   C21   S    
C39   H24   S    
C40   H29   S    
C45   H43   S    
N2    Zn1   S    
C2    C28   A    
C26   F13   S    
C44   H39   S    
C11   O10   S    
O5    Zn1   S    
O21   C45   S    
