data_mof_unit_2186.cif
_audit_creation_date              2013-03-05T16:15:03-0500
_audit_creation_method            fapswitch 2.2
_symmetry_space_group_name_H-M    P1
_symmetry_Int_Tables_number       1
_space_group_crystal_system       triclinic
_cell_length_a                    23.551546
_cell_length_b                    10.630148
_cell_length_c                    9.543791
_cell_angle_alpha                 90.353209
_cell_angle_beta                  89.367624
_cell_angle_gamma                 89.857233
_cell_volume                      2389.15058773

loop_
_atom_site_label
_atom_site_type_symbol
_atom_site_description
_atom_site_fract_x
_atom_site_fract_y
_atom_site_fract_z
_atom_type_partial_charge
O1    O     O_R   0.500030 0.316850 0.620870 -0.546795
O2    O     O_R   0.499970 0.683150 0.379130 -0.531257
O3    O     O_R   0.500000 0.316860 0.379090 -0.507492
O4    O     O_R   0.500000 0.683140 0.620910 -0.507406
C1    C     C_R   0.500625 0.260094 0.499451 0.869656
C2    C     C_R   0.500061 0.740056 0.500537 0.850676
O5    O     O_R   0.417890 0.499960 0.620920 -0.566449
O6    O     O_R   0.582110 0.500040 0.379080 -0.535396
O7    O     O_R   0.417870 0.499970 0.379140 -0.522655
O8    O     O_R   0.582130 0.500030 0.620860 -0.551335
C3    C     C_R   0.391242 0.502887 0.500816 0.867331
C4    C     C_R   0.608591 0.497854 0.499711 0.875576
Cu1   Cu    Cu3+1 0.500010 0.499990 0.643150 1.109591
Cu2   Cu    Cu3+1 0.499990 0.500010 0.356850 1.138812
C5    C     C_R   0.879634 0.614241 0.487800 0.653596
C6    C     C_R   0.119468 0.397238 0.533698 0.655926
N1    N     N_R   0.851370 0.508483 0.529926 -0.472401
N2    N     N_R   0.147610 0.509528 0.528255 -0.471318
C7    C     C_R   0.880287 0.405035 0.575255 0.641628
C8    C     C_R   0.118676 0.621112 0.525515 0.641990
C9    C     C_R   0.939668 0.397286 0.557900 -0.117909
C10   C     C_R   0.059332 0.622536 0.508020 -0.119646
C11   C     C_R   0.969565 0.508707 0.526169 -0.125385
C12   C     C_R   0.029469 0.508512 0.525621 -0.124354
C13   C     C_R   0.939396 0.620493 0.496323 -0.109960
C14   C     C_R   0.059625 0.394519 0.543726 -0.109724
C15   C     C_R   0.969745 0.282471 0.573406 0.326595
C16   C     C_R   0.029185 0.734430 0.476332 0.321135
C17   C     C_R   0.029680 0.281333 0.568425 0.430700
C18   C     C_R   0.969261 0.733968 0.473108 0.433566
O9    O     O_2   0.849768 0.712354 0.437794 -0.390586
O10   O     O_2   0.149607 0.289152 0.529467 -0.391498
O11   O     O_2   0.851459 0.311237 0.638442 -0.433551
O12   O     O_2   0.147457 0.729714 0.541850 -0.437949
C19   C     C_R   0.236907 0.562753 0.403641 0.267858
C20   C     C_R   0.763877 0.411882 0.437125 0.261795
C21   C     C_R   0.296838 0.567155 0.397926 0.230740
C22   C     C_R   0.703950 0.403812 0.432655 0.236664
C23   C     C_R   0.328538 0.508363 0.504449 -0.267266
C24   C     C_R   0.670992 0.496966 0.502287 -0.255694
C25   C     C_R   0.300089 0.454139 0.618649 -0.156722
C26   C     C_R   0.697538 0.588880 0.583816 -0.172379
H1    H     H_    0.323879 0.408369 0.700452 0.233298
H2    H     H_    0.672170 0.658959 0.638878 0.233366
C27   C     C_R   0.241269 0.459516 0.631839 0.472345
C28   C     C_R   0.756137 0.590330 0.599824 0.478383
C29   C     C_R   0.208907 0.510309 0.521473 0.036019
C30   C     C_R   0.790150 0.504121 0.522197 0.037006
C31   C     C_3   0.544864 0.042767 0.577823 -0.194430
C32   C     C_3   0.457210 0.958028 0.421968 -0.216110
C33   C     C_3   0.550780 0.956139 0.446310 -0.247473
C34   C     C_3   0.451283 0.044280 0.553666 -0.283944
H3    H     H_    0.590845 0.918332 0.400174 0.207311
H4    H     H_    0.411229 0.082088 0.599874 0.201953
H5    H     H_    0.579840 0.079294 0.643529 0.222572
H6    H     H_    0.422223 0.923502 0.355341 0.242767
C35   C     C_3   0.500572 0.876958 0.501242 -0.112403
C36   C     C_3   0.501361 0.123462 0.498696 -0.092932
C37   C     C_3   0.494883 0.962449 0.629771 0.504877
C38   C     C_3   0.507266 0.038229 0.370182 0.518641
C39   C     C_3   0.497109 0.612658 0.049762 0.330742
C40   C     C_3   0.502586 0.387463 0.949904 0.315041
C41   C     C_3   0.454314 0.551234 0.951662 0.209883
C42   C     C_3   0.545287 0.448900 0.047268 0.204182
N3    N     N_3   0.500040 0.499970 0.858290 -0.293025
N4    N     N_3   0.499960 0.500030 0.141710 -0.292770
C43   C     C_3   0.542555 0.561419 0.949530 0.212614
C44   C     C_3   0.457014 0.438569 0.050314 0.199391
O13   O     O_3   0.941806 0.169125 0.585935 -0.663667
H7    H     H_    0.911550 0.167470 0.514551 0.392637
O14   O     O_3   0.057065 0.843829 0.440771 -0.660149
H8    H     H_    0.087300 0.821110 0.372001 0.391640
N5    N     N_R   0.405415 0.616218 0.893443 0.188389
O15   O     O_R   0.355630 0.564139 0.894049 -0.252899
O16   O     O_R   0.412086 0.724226 0.832578 -0.274586
N6    N     N_R   0.596189 0.389164 0.100301 0.197256
O17   O     O_R   0.639240 0.458073 0.136062 -0.262514
O18   O     O_R   0.602659 0.268201 0.086735 -0.237936
O19   O     O_3   0.494023 0.734216 0.105999 -0.648523
H9    H     H_    0.493555 0.791435 0.024532 0.369711
O20   O     O_3   0.505698 0.266111 0.893024 -0.658774
H10   H     H_    0.502422 0.208210 0.973570 0.369631
N7    N     N_R   0.589581 0.633329 0.890383 0.165096
O21   O     O_R   0.641237 0.590569 0.896012 -0.271456
O22   O     O_R   0.580090 0.741160 0.831549 -0.313994
N8    N     N_R   0.411531 0.361617 0.109622 0.166492
O23   O     O_R   0.358609 0.390258 0.090085 -0.240301
O24   O     O_R   0.423733 0.257674 0.173645 -0.310026
O25   O     O_3   0.059917 0.170826 0.587088 -0.605214
H11   H     H_    0.034069 0.100502 0.610011 0.393475
O26   O     O_3   0.938953 0.843155 0.447494 -0.613769
H12   H     H_    0.964650 0.916526 0.442740 0.387837
N9    N     N_R   0.204139 0.614636 0.291815 0.171885
O27   O     O_R   0.165961 0.546497 0.229810 -0.304184
O28   O     O_R   0.209337 0.732700 0.258921 -0.234180
N10   N     N_R   0.798501 0.324348 0.359036 0.170727
O29   O     O_R   0.836086 0.365250 0.269484 -0.298765
O30   O     O_R   0.796791 0.204930 0.387990 -0.233776
N11   N     N_R   0.324987 0.635054 0.287504 0.181564
O31   O     O_R   0.362633 0.719973 0.317841 -0.341099
O32   O     O_R   0.308670 0.623157 0.158430 -0.184542
N12   N     N_R   0.677095 0.298844 0.364003 0.189111
O33   O     O_R   0.633382 0.244464 0.421706 -0.362482
O34   O     O_R   0.698808 0.250129 0.249995 -0.176474
O35   O     O_3   0.217301 0.414424 0.754244 -0.612137
H13   H     H_    0.177894 0.446081 0.763628 0.349658
O36   O     O_3   0.778215 0.676674 0.693019 -0.615701
H14   H     H_    0.817390 0.651667 0.717096 0.348192
O37   O     O_3   0.488484 0.920224 0.767298 -0.632290
H15   H     H_    0.485579 0.997301 0.825896 0.344646
O38   O     O_3   0.514348 0.081443 0.233131 -0.631019
H16   H     H_    0.516507 0.004764 0.173706 0.346494

loop_
_geom_bond_atom_site_label_1
_geom_bond_atom_site_label_2
_geom_bond_distance
_ccdc_geom_bond_type
N4    C44   1.492121 S    
C41   N3    1.490202 S    
C43   N7    1.457861 S    
N9    O27   1.301147 A    
C15   C17   1.411847 A    
C44   N8    1.460719 S    
N5    O15   1.297849 A    
O38   H16   0.991006 S    
N1    C30   1.445355 S    
C19   C29   1.415449 A    
N2    C29   1.444422 S    
C17   O25   1.385642 S    
O20   H10   0.990182 S    
C23   C25   1.400929 A    
Cu1   N3    2.053259 S    
O5    C3    1.313372 A    
C1    C36   1.452450 S    
O1    C1    1.303071 A    
C19   C21   1.412813 A    
C12   C14   1.415497 A    
O13   H7    0.991396 S    
N8    O24   1.298999 A    
C35   C37   1.526611 S    
C36   C38   1.525284 S    
C26   C28   1.390299 A    
O4    Cu1   1.959746 S    
C39   C41   1.528164 S    
C39   C43   1.524937 S    
C40   C42   1.522420 S    
C37   O37   1.396481 S    
C39   N4    1.490582 S    
N7    O21   1.299440 A    
C34   H4    1.110229 S    
C31   C33   1.556932 S    
N10   O30   1.301451 A    
C32   C34   1.556027 S    
O36   H14   0.989402 S    
C33   C35   1.542166 S    
C25   H1    1.083120 S    
C15   O13   1.379483 S    
C8    O12   1.349282 S    
C27   C29   1.415837 A    
C9    C15   1.418995 A    
N9    O28   1.301327 A    
C10   C16   1.419619 A    
Cu1   Cu2   2.732395 S    
N10   O29   1.301091 A    
N5    O16   1.299019 A    
C2    C35   1.455346 S    
O2    C2    1.303798 A    
C26   H2    1.083557 S    
C27   O35   1.380873 S    
C19   N9    1.436004 S    
C6    C14   1.411978 A    
C34   C36   1.539957 S    
C28   C30   1.416082 A    
C42   C43   1.523009 S    
N6    O17   1.299746 A    
Cu2   N4    2.053260 S    
O4    C2    1.301680 A    
C7    O11   1.349276 S    
O26   H12   0.989339 S    
N8    O23   1.298034 A    
C41   N5    1.458472 S    
N3    C43   1.484263 S    
C31   H5    1.110194 S    
C32   H6    1.108243 S    
C31   C36   1.541601 S    
C33   H3    1.110178 S    
C42   N4    1.489051 S    
C4    C24   1.470125 S    
C3    C23   1.477796 S    
O7    Cu2   1.943383 S    
C34   C37   1.535725 S    
C20   N10   1.435432 S    
C24   C26   1.398341 A    
N11   O31   1.300466 A    
O6    C4    1.315699 A    
C28   O36   1.380736 S    
C42   N6    1.452629 S    
N12   O34   1.301156 A    
O7    C3    1.313832 A    
O3    Cu2   1.959747 S    
O8    C4    1.307465 A    
C6    N2    1.367747 A    
N7    O22   1.299448 A    
C40   O20   1.397906 S    
C8    C10   1.409467 A    
C9    C11   1.412166 A    
C10   C12   1.412855 A    
C16   O14   1.379303 S    
O1    Cu1   1.957079 S    
C21   N11   1.437846 S    
C13   C18   1.415254 A    
C5    N1    1.368213 A    
C41   C44   1.529603 S    
O6    Cu2   1.947979 S    
C40   N3    1.487313 S    
N11   O32   1.299967 A    
C32   C35   1.542310 S    
N6    O18   1.299972 A    
C18   O26   1.385508 S    
O3    C1    1.301047 A    
O8    Cu1   1.943381 S    
C5    O9    1.349136 S    
C6    O10   1.349205 S    
O35   H13   0.989396 S    
C31   C37   1.535501 S    
C40   C44   1.527546 S    
C32   C38   1.535649 S    
C20   C22   1.415305 A    
O14   H8    0.991468 S    
C21   C23   1.415549 A    
C38   O38   1.397372 S    
O37   H15   0.990955 S    
C22   C24   1.414692 A    
C39   O19   1.397567 S    
C16   C18   1.412009 A    
N1    C7    1.367061 A    
C20   C30   1.416964 A    
N2    C8    1.367022 A    
C11   C13   1.415090 A    
N12   O33   1.300656 A    
O2    Cu2   1.957079 S    
C5    C13   1.412441 A    
C11   C12   1.410782 A    
O19   H9    0.990240 S    
O5    Cu1   1.947984 S    
C14   C17   1.415853 A    
C22   N12   1.441539 S    
C25   C27   1.390628 A    
C33   C38   1.536043 S    
O25   H11   0.989265 S    
C7    C9    1.408627 A    
