data_mof_unit_4489.cif
_audit_creation_date              2012-12-10T16:58:24-0500
_audit_creation_method            fapswitch 2.2
_symmetry_space_group_name_H-M    P1
_symmetry_Int_Tables_number       1
_space_group_crystal_system       triclinic
_cell_length_a                    15.841021
_cell_length_b                    10.926355
_cell_length_c                    9.707094
_cell_angle_alpha                 90.086004
_cell_angle_beta                  90.123889
_cell_angle_gamma                 90.682572
_cell_volume                      1680.02355661

loop_
_atom_site_label
_atom_site_type_symbol
_atom_type_description
_atom_site_fract_x
_atom_site_fract_y
_atom_site_fract_z
_atom_type_partial_charge
C1    C     C_R   0.498923 0.265219 0.499585 0.888662
C2    C     C_3   0.083122 0.489220 0.502172 0.021721
C3    C     C_3   0.971726 0.578159 0.582848 -0.243928
C4    C     C_3   0.916194 0.483000 0.505896 -0.036995
C5    C     C_3   0.026835 0.594782 0.451743 -0.269596
C6    C     C_3   0.971610 0.498576 0.376433 0.376263
C7    C     C_1   0.174725 0.493232 0.500629 0.023725
C8    C     C_1   0.824795 0.490644 0.502843 -0.006472
C9    C     C_2   0.482700 0.932589 0.387271 0.373054
C10   C     C_2   0.504811 0.867003 0.498857 -0.474799
C11   C     C_2   0.498482 0.065853 0.383033 0.384849
C12   C     C_R   0.339920 0.499460 0.499880 0.802787
C13   C     C_2   0.492632 0.132833 0.499282 -0.492359
C14   C     C_2   0.441928 0.445720 0.923501 0.496498
C15   C     C_2   0.434912 0.468435 0.077362 -0.195816
C16   C     C_R   0.500167 0.734687 0.499802 0.892927
C17   C     C_R   0.660013 0.500089 0.500165 0.803411
C18   C     C_3   0.973588 0.378586 0.556049 0.381727
C19   C     C_3   0.028102 0.394116 0.426515 0.347120
C20   C     C_1   0.250267 0.496506 0.499858 -0.165727
C21   C     C_1   0.749453 0.496076 0.500860 -0.166259
C22   C     C_3   0.029750 0.473187 0.633418 -0.208152
Cu1   Cu    Cu3+1 0.500020 0.500020 0.638630 0.965743
Cu2   Cu    Cu3+1 0.499980 0.499980 0.361370 0.963624
H1    H     H_    0.479667 0.090598 0.598091 0.120285
H2    H     H_    0.373841 0.455494 0.125571 0.174384
H3    H     H_    0.557738 0.487177 0.110428 0.198879
H4    H     H_    0.050253 0.683610 0.410965 0.148414
H5    H     H_    0.947697 0.653341 0.648487 0.167107
H6    H     H_    0.055213 0.462013 0.739197 0.154658
H7    H     H_    0.530090 0.909880 0.591159 0.121559
N1    N     N_2   0.499090 0.498660 0.846910 -0.253086
N2    N     N_2   0.499070 0.498630 0.153040 -0.288462
O1    O     O_R   0.500010 0.321960 0.617040 -0.572048
O2    O     O_R   0.499990 0.321920 0.382900 -0.525665
O3    O     O_R   0.379090 0.500010 0.617050 -0.526704
O4    O     O_R   0.379060 0.499970 0.382910 -0.594437
O5    O     O_R   0.500010 0.678080 0.617100 -0.594964
O6    O     O_R   0.499990 0.678040 0.382960 -0.509895
O7    O     O_R   0.620940 0.500030 0.617090 -0.586640
O8    O     O_R   0.620910 0.499990 0.382950 -0.583382
O9    O     O_3   0.065053 0.302011 0.345090 -0.618621
C23   C     C_3   0.002742 0.226484 0.282745 0.094930
H8    H     H_    0.010387 0.232810 0.169222 0.151851
H9    H     H_    0.936570 0.253236 0.305407 0.126495
C24   C     C_3   0.016690 0.093923 0.326934 -0.321967
H10   H     H_    0.078427 0.062462 0.286802 0.217392
H11   H     H_    0.018578 0.088554 0.441160 0.246213
C25   C     C_3   0.946751 0.009076 0.273675 -0.960490
H12   H     H_    0.943959 0.011645 0.159358 0.264800
H13   H     H_    0.884936 0.036738 0.316622 0.255156
H14   H     H_    0.959403 0.913934 0.307052 0.257473
O10   O     O_3   0.380432 0.375806 0.857778 -0.579161
C26   C     C_3   0.377696 0.256534 0.913170 0.056929
H15   H     H_    0.349479 0.257484 0.018064 0.146750
H16   H     H_    0.442117 0.216405 0.917958 0.140649
C27   C     C_3   0.322351 0.176345 0.819577 -0.294315
H17   H     H_    0.258059 0.215701 0.813164 0.226585
H18   H     H_    0.349548 0.175164 0.714181 0.220721
C28   C     C_3   0.315470 0.045475 0.872995 -0.957696
H19   H     H_    0.379055 0.004312 0.881012 0.248154
H20   H     H_    0.276674 0.989435 0.800709 0.262309
H21   H     H_    0.284485 0.044495 0.975499 0.255418
C29   C     C_R   0.542884 0.604985 0.896160 0.233545
C30   C     C_R   0.631441 0.606042 0.901849 -0.156730
C31   C     C_R   0.675413 0.712571 0.939822 -0.149085
C32   C     C_R   0.631347 0.819237 0.970325 -0.129715
C33   C     C_R   0.543182 0.819352 0.963768 -0.113209
C34   C     C_R   0.498921 0.712832 0.926691 -0.094909
H22   H     H_    0.666201 0.524028 0.877798 0.137944
H23   H     H_    0.743692 0.712662 0.944630 0.134963
H24   H     H_    0.665636 0.901906 0.998127 0.122251
H25   H     H_    0.509134 0.902214 0.986139 0.133231
H26   H     H_    0.430713 0.714513 0.919541 0.114308
O11   O     O_3   0.956620 0.264161 0.619307 -0.612468
C35   C     C_3   0.874419 0.219359 0.590763 0.054263
H27   H     H_    0.878615 0.118678 0.577071 0.164660
H28   H     H_    0.847134 0.254269 0.493077 0.123423
C36   C     C_3   0.816278 0.243874 0.713490 -0.334065
H29   H     H_    0.841681 0.197585 0.806408 0.220276
H30   H     H_    0.814427 0.343560 0.735398 0.221801
C37   C     C_3   0.726671 0.196649 0.686117 -0.918878
H31   H     H_    0.699589 0.242067 0.594145 0.247743
H32   H     H_    0.686063 0.216848 0.776250 0.253477
H33   H     H_    0.726730 0.096104 0.669017 0.249881
O12   O     O_3   0.935814 0.508733 0.243648 -0.616597
C38   C     C_3   0.998712 0.534523 0.144236 0.065540
H34   H     H_    0.987121 0.473150 0.054621 0.159409
H35   H     H_    0.064506 0.516741 0.179851 0.147147
C39   C     C_3   0.991420 0.667382 0.096386 -0.342294
H36   H     H_    0.926122 0.684082 0.059279 0.227504
H37   H     H_    0.004505 0.729879 0.184162 0.214866
C40   C     C_3   0.053495 0.696451 0.980711 -0.931259
H38   H     H_    0.119116 0.677000 0.013846 0.262101
H39   H     H_    0.049361 0.794800 0.953161 0.261059
H40   H     H_    0.037990 0.640886 0.888149 0.255433
O13   O     O_3   0.455434 0.874420 0.267658 -0.581022
C41   C     C_3   0.369821 0.901539 0.241045 0.080092
H41   H     H_    0.363301 0.915452 0.128449 0.157534
H42   H     H_    0.347177 0.986934 0.291657 0.135720
C42   C     C_3   0.313782 0.792790 0.282786 -0.323502
H43   H     H_    0.334589 0.709573 0.226907 0.242326
H44   H     H_    0.320244 0.776289 0.395231 0.202615
C43   C     C_3   0.221175 0.815677 0.249126 -0.956919
H45   H     H_    0.197693 0.894560 0.309649 0.258104
H46   H     H_    0.182932 0.733253 0.275634 0.259633
H47   H     H_    0.213298 0.834849 0.137527 0.261968
O14   O     O_3   0.506190 0.122474 0.255407 -0.584574
C44   C     C_3   0.583514 0.091109 0.192441 0.076929
H48   H     H_    0.574226 0.097034 0.079194 0.142419
H49   H     H_    0.603577 0.995664 0.214595 0.149326
C45   C     C_3   0.653522 0.182011 0.233906 -0.339344
H50   H     H_    0.633108 0.276764 0.210839 0.245615
H51   H     H_    0.665769 0.174743 0.346319 0.199964
C46   C     C_3   0.735125 0.157040 0.156081 -0.966330
H52   H     H_    0.756033 0.061914 0.175179 0.257938
H53   H     H_    0.785346 0.221519 0.191676 0.265331
H54   H     H_    0.725489 0.170063 0.043691 0.258975

loop_
_geom_bond_atom_site_label_1
_geom_bond_atom_site_label_2
_ccdc_geom_bond_type
C38   H34   S    
C18   O11   S    
C2    C7    S    
C35   C36   S    
C4    C8    S    
C43   H46   S    
O13   C41   S    
C27   H17   S    
O10   C26   S    
H3    N2    S    
C6    C19   S    
C24   C25   S    
C40   H38   S    
C28   H21   S    
C35   H28   S    
C18   C19   S    
C44   H49   S    
C5    C6    S    
C27   H18   S    
Cu1   O7    S    
Cu2   O6    S    
O14   C44   S    
C28   H20   S    
C32   H24   S    
C12   O4    A    
C3    H5    S    
C43   H45   S    
C26   H15   S    
C10   H7    S    
C33   C34   A    
C25   H13   S    
C2    C22   S    
Cu1   Cu2   S    
C12   O3    A    
C9    C10   D    
C19   O9    S    
C4    C18   S    
C46   H54   S    
C31   C32   A    
C40   H39   S    
Cu2   O8    S    
C13   H1    S    
C45   H51   S    
C45   H50   S    
C1    O1    A    
C8    C21   T    
C24   H11   S    
C26   H16   S    
Cu2   O2    S    
C32   C33   A    
C42   H43   S    
C35   H27   S    
N1    C29   S    
C4    C6    S    
C44   C45   S    
C36   H30   S    
O12   C38   S    
C15   H2    S    
C46   H53   S    
C33   H25   S    
C7    C20   T    
C17   C21   S    
C28   H19   S    
C17   O7    A    
O11   C35   S    
C5    H4    S    
C9    C11   S    
C39   H37   S    
C31   H23   S    
C46   H52   S    
Cu1   O1    S    
C12   C20   S    
Cu2   O4    S    
C34   H26   S    
C29   C34   A    
C43   H47   S    
C23   H9    S    
Cu1   O3    S    
C40   H40   S    
C37   H32   S    
C38   H35   S    
C23   H8    S    
C25   H12   S    
C2    C5    S    
C1    C13   S    
O9    C23   S    
C3    C4    S    
C41   C42   S    
C1    O2    A    
C39   C40   S    
C24   H10   S    
C9    O13   S    
C22   H6    S    
C2    C19   S    
C18   C22   S    
C25   H14   S    
C14   N1    D    
C3    C5    S    
C36   C37   S    
C42   C43   S    
C37   H33   S    
C41   H42   S    
Cu2   N2    S    
C6    O12   S    
Cu1   O5    S    
C29   C30   A    
C10   C16   S    
C44   H48   S    
Cu1   N1    S    
C11   C13   D    
C39   H36   S    
C30   C31   A    
C23   C24   S    
C17   O8    A    
C16   O6    A    
C36   H29   S    
C27   C28   S    
C14   O10   S    
C42   H44   S    
C41   H41   S    
C38   C39   S    
C11   O14   S    
C14   C15   S    
C3    C22   S    
C37   H31   S    
C15   N2    D    
C45   C46   S    
C30   H22   S    
C16   O5    A    
C26   C27   S    
