data_mof_unit_2338.cif
_audit_creation_date              2013-03-05T15:51:40-0500
_audit_creation_method            fapswitch 2.2
_symmetry_space_group_name_H-M    P1
_symmetry_Int_Tables_number       1
_space_group_crystal_system       triclinic
_cell_length_a                    11.57503
_cell_length_b                    11.552026
_cell_length_c                    19.461117
_cell_angle_alpha                 90.543236
_cell_angle_beta                  90.016284
_cell_angle_gamma                 60.065141
_cell_volume                      2254.95633934

loop_
_atom_site_label
_atom_site_type_symbol
_atom_site_description
_atom_site_fract_x
_atom_site_fract_y
_atom_site_fract_z
_atom_type_partial_charge
O1    O     O_R   0.267750 0.231960 0.575440 -0.485942
O2    O     O_R   0.527290 0.186640 0.570530 -0.496162
C1    C     C_R   0.640586 0.117613 0.599000 0.544574
O3    O     O_R   0.728110 0.003450 0.576380 -0.493542
O4    O     O_R   0.682980 0.789190 0.570500 -0.482557
C2    C     C_R   0.612554 0.745650 0.598391 0.549829
O5    O     O_R   0.499300 0.771880 0.575540 -0.501915
O6    O     O_R   0.285350 0.030870 0.569740 -0.485858
C3    C     C_R   0.240445 0.145553 0.597911 0.564326
O7    O     O_R   0.270960 0.227070 0.423890 -0.476843
O8    O     O_R   0.530270 0.182120 0.430040 -0.530424
C4    C     C_R   0.645512 0.112327 0.402836 0.544422
O9    O     O_R   0.731320 0.998570 0.424830 -0.456567
O10   O     O_R   0.685950 0.784660 0.430010 -0.454499
C5    C     C_R   0.619846 0.731896 0.405005 0.557505
O11   O     O_R   0.502510 0.767000 0.423980 -0.537269
O12   O     O_R   0.288320 0.026340 0.429250 -0.494612
C6    C     C_R   0.301442 0.114798 0.393867 0.551055
Cr1   Cr    Cr6+3 0.404720 0.198220 0.499960 1.069820
Cr2   Cr    Cr6+3 0.698290 0.897110 0.500380 1.128348
Cr3   Cr    Cr6+3 0.396970 0.904720 0.499610 1.064577
O13   O     O_3   0.499990 0.000020 0.499980 -0.305914
C7    C     C_1   0.670383 0.647002 0.860361 0.010515
C8    C     C_1   0.655008 0.683333 0.728344 -0.026280
C9    C     C_1   0.663563 0.666930 0.799760 -0.026909
C10   C     C_1   0.641421 0.703311 0.667757 0.012659
C11   C     C_1   0.127468 0.198267 0.859545 0.013203
C12   C     C_1   0.171101 0.170316 0.727624 -0.026224
C13   C     C_1   0.150539 0.181864 0.799013 -0.025572
C14   C     C_1   0.194532 0.161251 0.667123 0.010379
C15   C     C_1   0.678498 0.190691 0.861045 0.013035
C16   C     C_1   0.658499 0.167557 0.728980 -0.026317
C17   C     C_1   0.665513 0.180657 0.800445 -0.026061
C18   C     C_1   0.653058 0.150198 0.668411 0.010684
C19   C     C_R   0.703083 0.573005 0.205931 -0.002149
C20   C     C_R   0.588601 0.597565 0.240603 -0.038718
C21   C     C_R   0.572679 0.624199 0.309336 -0.059671
C22   C     C_R   0.794768 0.593357 0.315508 0.167401
C23   C     C_R   0.811288 0.559629 0.244780 -0.154067
C24   C     C_3   0.443781 0.685114 0.224932 0.096043
C25   C     C_3   0.424149 0.711950 0.301542 -0.121246
C26   C     C_R   0.667040 0.642672 0.345471 0.021972
H1    H     H_    0.905127 0.528950 0.219710 0.140755
H2    H     H_    0.396704 0.630178 0.202729 0.177372
H3    H     H_    0.386926 0.817150 0.316409 0.161945
C27   C     C_R   0.164590 0.181030 0.186521 0.024561
C28   C     C_R   0.246621 0.228235 0.210753 0.083723
C29   C     C_R   0.296987 0.200968 0.276783 -0.029647
C30   C     C_R   0.199096 0.062387 0.293998 -0.104316
C31   C     C_R   0.150001 0.088559 0.226894 -0.068188
C32   C     C_3   0.224441 0.366812 0.212570 0.102822
C33   C     C_3   0.277964 0.338080 0.285374 -0.229547
C34   C     C_R   0.265355 0.126232 0.321289 0.002712
H4    H     H_    0.177620 0.999304 0.325842 0.193103
H5    H     H_    0.091143 0.045223 0.209049 0.180783
H6    H     H_    0.118989 0.446050 0.209048 0.144368
H7    H     H_    0.371391 0.338653 0.291763 0.160289
H8    H     H_    0.203445 0.395635 0.325602 0.222581
C35   C     C_R   0.665499 0.188273 0.192212 0.076511
C36   C     C_R   0.708735 0.059491 0.215697 0.006064
C37   C     C_R   0.704429 0.037525 0.284758 0.006717
C38   C     C_R   0.606418 0.272350 0.309633 -0.164747
C39   C     C_R   0.604289 0.295545 0.239144 -0.130242
C40   C     C_3   0.836345 0.930437 0.204799 -0.228275
C41   C     C_3   0.832214 0.907581 0.281226 0.109387
C42   C     C_R   0.661693 0.141361 0.332906 0.062134
H9    H     H_    0.563125 0.355897 0.345437 0.138613
H10   H     H_    0.562049 0.396318 0.221567 0.143259
H11   H     H_    0.922042 0.942499 0.189181 0.189421
H12   H     H_    0.821672 0.858829 0.172611 0.142345
H13   H     H_    0.817850 0.822427 0.293765 0.162114
O14   O     O_R   0.821590 0.119350 0.952850 -0.500059
O15   O     O_R   0.037230 0.162540 0.957390 -0.485228
C43   C     C_R   0.082373 0.230833 0.928874 0.562812
O16   O     O_R   0.056530 0.344750 0.951370 -0.489025
O17   O     O_R   0.798000 0.560370 0.957490 -0.491461
C44   C     C_R   0.683855 0.604774 0.929754 0.561092
O18   O     O_R   0.596230 0.579400 0.952760 -0.486117
O19   O     O_R   0.639160 0.321170 0.958690 -0.483340
C45   C     C_R   0.708341 0.206361 0.930400 0.555784
O20   O     O_R   0.821370 0.124220 0.104400 -0.531279
O21   O     O_R   0.037020 0.167050 0.097880 -0.492179
C46   C     C_R   0.084244 0.234903 0.125003 0.543525
O22   O     O_R   0.056310 0.349620 0.102920 -0.512632
O23   O     O_R   0.797790 0.564880 0.097980 -0.495465
C47   C     C_R   0.710384 0.548632 0.132591 0.561230
O24   O     O_R   0.596000 0.584270 0.104310 -0.451348
O25   O     O_R   0.638950 0.325690 0.099180 -0.486171
C48   C     C_R   0.707131 0.210919 0.126204 0.565474
Cr4   Cr    Cr6+3 0.926290 0.152010 0.028150 1.065042
Cr5   Cr    Cr6+3 0.921440 0.451830 0.027490 1.070022
Cr6   Cr    Cr6+3 0.626370 0.446880 0.028730 1.115039
O26   O     O_3   0.824700 0.350240 0.028120 -0.312976
N1    N     N_R   0.904677 0.582480 0.354616 0.076105
O27   O     O_R   0.920134 0.544915 0.418400 -0.299627
O28   O     O_R   0.997203 0.596419 0.324689 -0.360628
N2    N     N_R   0.310511 0.385642 0.164421 0.082410
O29   O     O_R   0.384337 0.292705 0.120027 -0.312111
O30   O     O_R   0.293390 0.504831 0.156916 -0.353490
N3    N     N_R   0.939396 0.911292 0.319470 0.100887
O31   O     O_R   0.005034 0.821747 0.365677 -0.237327
O32   O     O_R   0.957817 0.013117 0.314284 -0.395838
N4    N     N_R   0.416186 0.804231 0.186000 0.093409
O33   O     O_R   0.472925 0.873876 0.201935 -0.350613
O34   O     O_R   0.337552 0.838342 0.133127 -0.304497
C49   C     C_1   0.351494 0.652508 0.334073 0.215349
N5    N     N_1   0.294855 0.605292 0.359720 -0.208415

loop_
_geom_bond_atom_site_label_1
_geom_bond_atom_site_label_2
_geom_bond_distance
_ccdc_geom_bond_type
C32   N2    1.462386 S    
O11   Cr3   2.051028 S    
C11   C13   1.200150 T    
O15   C43   1.274088 A    
C19   C20   1.383267 A    
N2    O29   1.302501 A    
O23   Cr5   1.933276 S    
C15   C45   1.425264 S    
O4    Cr2   1.923723 S    
C2    C10   1.422110 S    
C44   O18   1.270660 A    
C4    O9    1.266643 A    
O8    Cr1   1.929934 S    
C38   H9    1.082990 S    
C46   O22   1.276122 A    
C12   C13   1.403431 S    
C8    C10   1.198785 T    
O15   Cr4   1.928780 S    
C22   C26   1.415628 A    
O23   C47   1.305684 A    
O4    C2    1.275438 A    
C19   C47   1.446469 S    
C49   N5    1.157015 T    
C30   H4    1.079982 S    
C32   H6    1.103861 S    
C35   C48   1.443380 S    
C21   C26   1.400849 A    
N3    O31   1.299535 A    
C6    C34   1.461203 S    
C39   H10   1.072684 S    
C37   C42   1.395822 A    
O25   Cr6   1.921910 S    
O6    C3    1.274769 A    
C15   C17   1.200645 T    
O22   Cr5   2.044028 S    
C40   H12   1.111700 S    
C11   C43   1.424501 S    
O16   Cr5   2.050811 S    
O20   C48   1.265776 A    
C35   C36   1.393661 A    
Cr3   O13   1.985966 S    
N2    O30   1.299174 A    
O12   C6    1.307568 A    
O17   C44   1.276152 A    
C29   C34   1.399815 A    
O1    Cr1   2.048657 S    
C25   C49   1.471213 S    
C38   C42   1.396718 A    
C32   C33   1.518111 S    
O10   Cr2   1.932532 S    
C20   C24   1.496461 S    
Cr1   O13   1.984564 S    
O1    C3    1.269134 A    
C8    C9    1.401263 S    
C5    C26   1.455648 S    
C43   O16   1.268542 A    
C47   O24   1.298175 A    
C23   H1    1.075295 S    
C1    C18   1.425397 S    
O18   Cr6   2.039788 S    
C41   H13   1.105748 S    
C4    C42   1.439161 S    
O12   Cr3   1.924197 S    
O19   C45   1.276641 A    
C36   C37   1.375616 A    
C16   C18   1.200688 T    
C19   C23   1.404526 A    
C38   C39   1.398060 A    
Cr5   O26   1.985729 S    
O14   Cr4   2.050210 S    
C28   C29   1.383583 A    
C29   C33   1.494038 S    
O7    Cr1   2.047656 S    
C22   N1    1.433625 S    
N3    O32   1.300729 A    
O6    Cr3   1.933865 S    
N4    O34   1.300647 A    
C40   H11   1.111170 S    
C7    C44   1.422140 S    
N1    O28   1.298613 A    
O19   Cr6   1.933070 S    
C33   H8    1.103233 S    
C3    C14   1.424484 S    
O20   Cr4   2.044286 S    
C24   C25   1.513833 S    
Cr2   O13   1.989647 S    
O21   C46   1.269426 A    
C1    O3    1.270907 A    
Cr4   O26   1.984746 S    
C27   C28   1.390312 A    
C20   C21   1.361477 A    
O9    Cr2   2.040071 S    
O2    Cr1   1.931285 S    
C41   N3    1.465231 S    
C28   C32   1.489496 S    
O8    C4    1.276180 A    
C2    O5    1.270384 A    
C27   C31   1.408186 A    
C35   C39   1.405172 A    
C31   H5    1.082742 S    
O21   Cr4   1.931646 S    
C36   C40   1.498593 S    
C16   C17   1.404286 S    
C12   C14   1.200140 T    
O2    C1    1.275505 A    
O14   C45   1.269863 A    
O5    Cr3   2.041899 S    
C40   C41   1.517987 S    
C24   N4    1.466468 S    
C22   C23   1.413721 A    
O7    C6    1.295008 A    
C30   C34   1.403971 A    
Cr6   O26   1.989607 S    
C7    C9    1.198790 T    
C21   C25   1.506580 S    
N1    O27   1.301436 A    
C33   H7    1.091801 S    
O17   Cr5   1.926852 S    
C27   C46   1.456499 S    
O3    Cr2   2.050421 S    
C37   C41   1.492644 S    
C24   H2    1.107331 S    
O25   C48   1.275136 A    
C30   C31   1.398334 A    
N4    O33   1.302797 A    
C25   H3    1.103212 S    
O10   C5    1.285853 A    
O24   Cr6   2.050663 S    
C5    O11   1.262217 A    
