data_mof_unit_3539.cif
_audit_creation_date              2012-12-10T19:00:13-0500
_audit_creation_method            fapswitch 2.2
_symmetry_space_group_name_H-M    P1
_symmetry_Int_Tables_number       1
_space_group_crystal_system       triclinic
_cell_length_a                    9.540169
_cell_length_b                    10.861378
_cell_length_c                    13.452679
_cell_angle_alpha                 90.141688
_cell_angle_beta                  72.709378
_cell_angle_gamma                 89.97802
_cell_volume                      1330.95956979

loop_
_atom_site_label
_atom_site_type_symbol
_atom_type_description
_atom_site_fract_x
_atom_site_fract_y
_atom_site_fract_z
_atom_type_partial_charge
C1    C     C_R   0.500381 0.737302 0.499216 0.797361
C2    C     C_R   0.437245 0.504073 0.978389 0.081825
C3    C     C_R   0.469235 0.539978 0.872681 0.090554
C4    C     C_R   0.543811 0.526068 0.031333 0.077663
C5    C     C_R   0.674000 0.592069 0.980959 0.167891
C6    C     C_R   0.695781 0.637347 0.880795 -0.249860
C7    C     C_R   0.593833 0.613631 0.828175 -0.205393
C8    C     C_R   0.524855 0.485110 0.133244 -0.254035
C9    C     C_R   0.753443 0.579415 0.135824 -0.202251
C10   C     C_R   0.374278 0.502712 0.814639 -0.106226
C11   C     C_R   0.380006 0.938071 0.496120 0.074588
C12   C     C_R   0.421536 0.504476 0.700076 0.782818
C13   C     C_R   0.502658 0.869884 0.497150 -0.112677
C14   C     C_R   0.630743 0.935320 0.496711 -0.207943
C15   C     C_R   0.630765 0.064440 0.497015 -0.211644
C16   C     C_R   0.502505 0.130089 0.498226 -0.095587
C17   C     C_R   0.379686 0.062236 0.497553 0.073823
C18   C     C_3   0.222634 0.072911 0.500697 -0.444728
C19   C     C_3   0.222047 0.930888 0.499086 -0.041362
C20   C     C_R   0.947291 0.409304 0.449309 0.261312
C21   C     C_R   0.901515 0.582774 0.557554 -0.059023
C22   C     C_R   0.050188 0.582393 0.557979 -0.089969
C23   C     C_R   0.500301 0.262696 0.499696 0.812200
C24   C     C_R   0.095120 0.409862 0.448728 0.269762
C25   C     C_3   0.146762 0.384825 0.334668 -0.530698
C26   C     C_3   0.987596 0.381246 0.335896 -0.507721
C27   C     C_R   0.578577 0.501460 0.300116 0.799460
C28   C     C_R   0.779261 0.615355 0.032656 -0.196167
C29   C     C_R   0.623581 0.517595 0.187199 -0.049332
C30   C     C_R   0.238060 0.449667 0.866012 -0.192743
C31   C     C_R   0.199745 0.426017 0.971903 -0.150012
C32   C     C_R   0.298875 0.449682 0.027233 -0.189627
Cu1   Cu    Cu3+1 0.359330 0.500020 0.500010 0.932619
Cu2   Cu    Cu3+1 0.640670 0.499980 0.499990 0.939892
H1    H     H_    0.831459 0.604807 0.176609 0.150813
H2    H     H_    0.730529 0.112071 0.496951 0.166083
H3    H     H_    0.153628 0.112872 0.575365 0.174240
H4    H     H_    0.209602 0.116713 0.429405 0.198296
H5    H     H_    0.149565 0.888166 0.571140 0.146931
H6    H     H_    0.827273 0.651819 0.602019 0.127295
H7    H     H_    0.087019 0.650521 0.603380 0.131811
H8    H     H_    0.206015 0.464913 0.290660 0.214913
H9    H     H_    0.203659 0.294724 0.315561 0.188979
H10   H     H_    0.958881 0.456590 0.289665 0.217450
H11   H     H_    0.791675 0.692216 0.843081 0.136084
H12   H     H_    0.950552 0.288011 0.320548 0.195062
H13   H     H_    0.878946 0.665400 0.994506 0.137903
H14   H     H_    0.433128 0.428840 0.173550 0.135388
H15   H     H_    0.162578 0.422582 0.823627 0.158101
H16   H     H_    0.262136 0.426545 0.108467 0.132892
H17   H     H_    0.094249 0.385091 0.010820 0.147770
H18   H     H_    0.612046 0.656968 0.753276 0.155593
H19   H     H_    0.730378 0.887518 0.496792 0.170310
N1    N     N_R   0.852320 0.499070 0.499340 -0.186195
N2    N     N_R   0.148230 0.499110 0.499340 -0.188626
O1    O     O_R   0.381190 0.680360 0.500000 -0.593136
O2    O     O_R   0.618780 0.680320 0.499990 -0.591762
O3    O     O_R   0.323230 0.500000 0.650990 -0.582814
O4    O     O_R   0.560820 0.499960 0.650980 -0.578100
O5    O     O_R   0.381220 0.319680 0.500010 -0.578305
O6    O     O_R   0.618810 0.319640 0.500000 -0.583816
O7    O     O_R   0.439180 0.500040 0.349020 -0.582914
O8    O     O_R   0.676770 0.500000 0.349010 -0.585984
N3    N     N_3   0.201126 0.880930 0.403229 -0.576347
H20   H     H_    0.284002 0.912550 0.338360 0.230832
H21   H     H_    0.211215 0.785224 0.404744 0.246485

loop_
_geom_bond_atom_site_label_1
_geom_bond_atom_site_label_2
_ccdc_geom_bond_type
C25   H8    S    
Cu1   N2    S    
Cu2   O2    S    
C2    C4    A    
C8    H14   S    
C28   H13   S    
Cu1   O3    S    
C27   O7    A    
C1    O2    A    
C27   C29   S    
C5    C28   A    
C10   C30   A    
C31   C32   A    
C17   C18   S    
C9    C29   A    
C30   C31   A    
C4    C8    A    
C12   O3    A    
N3    H20   S    
C25   H9    S    
Cu1   O1    S    
C2    C3    A    
C18   H4    S    
C26   H10   S    
C3    C10   A    
C13   C14   A    
C24   N2    A    
C23   O5    A    
C11   C13   A    
C32   H16   S    
C22   N2    A    
C21   H6    S    
C27   O8    A    
Cu1   O5    S    
C5    C6    A    
C19   H5    S    
C2    C32   A    
Cu2   O8    S    
C6    H11   S    
C18   H3    S    
Cu1   Cu2   S    
C7    H18   S    
Cu2   N1    S    
C16   C23   S    
C3    C7    A    
C21   N1    A    
C10   C12   S    
C1    O1    A    
Cu2   O4    S    
C22   H7    S    
C1    C13   S    
C8    C29   A    
C15   C16   A    
C16   C17   A    
C15   H2    S    
C23   O6    A    
C14   H19   S    
C24   C25   S    
C20   N1    A    
C18   C19   S    
C9    H1    S    
C26   H12   S    
C14   C15   A    
C11   C19   S    
C25   C26   S    
C21   C22   A    
C12   O4    A    
Cu1   O7    S    
C30   H15   S    
Cu2   O6    S    
C11   C17   A    
C6    C7    A    
C20   C24   A    
C9    C28   A    
C31   H17   S    
C4    C5    A    
C20   C26   S    
C19   N3    S    
N3    H21   S    
