data_mof_unit_57.cif
_audit_creation_date              2013-03-05T16:51:32-0500
_audit_creation_method            fapswitch 2.2
_symmetry_space_group_name_H-M    P1
_symmetry_Int_Tables_number       1
_space_group_crystal_system       triclinic
_cell_length_a                    15.791043
_cell_length_b                    15.112189
_cell_length_c                    10.552687
_cell_angle_alpha                 89.483654
_cell_angle_beta                  90.561329
_cell_angle_gamma                 90.493582
_cell_volume                      2517.94930356

loop_
_atom_site_label
_atom_site_type_symbol
_atom_site_description
_atom_site_fract_x
_atom_site_fract_y
_atom_site_fract_z
_atom_type_partial_charge
O1    O     O_R   0.378020 0.573650 0.500040 -0.619152
O2    O     O_R   0.621980 0.426350 0.499960 -0.631766
O3    O     O_R   0.621980 0.573650 0.499960 -0.574657
O4    O     O_R   0.378020 0.426350 0.500040 -0.601481
C1    C     C_R   0.338848 0.499538 0.500700 0.914589
C2    C     C_R   0.661145 0.500486 0.499712 0.908860
O5    O     O_R   0.499980 0.573650 0.313960 -0.565430
O6    O     O_R   0.500020 0.426350 0.686040 -0.565549
O7    O     O_R   0.500020 0.573650 0.686040 -0.591591
O8    O     O_R   0.499980 0.426350 0.313960 -0.593977
C3    C     C_R   0.500390 0.500669 0.257071 1.011600
C4    C     C_R   0.499914 0.499298 0.742927 1.022190
Zn1   Zn    Zn3+2 0.500000 0.598370 0.500000 1.092676
Zn2   Zn    Zn3+2 0.500000 0.401630 0.500000 1.075485
C5    C     C_1   0.250436 0.497593 0.508011 -0.049771
C6    C     C_1   0.749647 0.502525 0.495664 -0.011987
C7    C     C_R   0.431117 0.951714 0.445705 0.073102
C8    C     C_R   0.568955 0.048277 0.553116 0.073554
C9    C     C_R   0.571181 0.953514 0.548451 0.073679
C10   C     C_R   0.428994 0.046512 0.449969 0.076138
C11   C     C_R   0.501354 0.905119 0.497527 -0.037017
C12   C     C_R   0.498674 0.094890 0.501467 -0.034985
C13   C     C_3   0.508708 0.583899 0.036475 0.438082
C14   C     C_3   0.492242 0.415916 0.963442 0.451684
C15   C     C_3   0.573230 0.533532 0.958035 0.342108
C16   C     C_3   0.427690 0.466182 0.041867 0.384227
C17   C     C_3   0.434834 0.548230 0.954305 -0.361350
C18   C     C_3   0.566018 0.451541 0.045706 -0.382689
H1    H     H_    0.381392 0.587019 0.914052 0.247794
H2    H     H_    0.619409 0.412712 0.086024 0.221566
C19   C     C_3   0.500394 0.497433 0.877047 -0.368262
C20   C     C_3   0.500425 0.502368 0.122949 -0.367005
C21   C     C_1   0.501000 0.806894 0.499134 0.122487
C22   C     C_1   0.498975 0.193108 0.500418 0.118203
N1    N     N_1   0.500000 0.270550 0.500000 -0.062376
N2    N     N_1   0.500000 0.729450 0.500000 -0.059333
C23   C     C_1   0.824624 0.506474 0.491628 0.236498
C24   C     C_1   0.175570 0.493511 0.515022 0.214614
C25   C     C_R   0.957171 0.562961 0.578679 0.258773
C26   C     C_R   0.042885 0.435881 0.431529 0.309571
C27   C     C_R   0.043957 0.547955 0.600364 0.235406
C28   C     C_R   0.956460 0.451629 0.408680 0.299074
C29   C     C_R   0.914146 0.510241 0.488826 -0.260221
C30   C     C_R   0.086110 0.489143 0.520287 -0.252982
C31   C     C_3   0.352040 0.096688 0.400304 -0.424217
C32   C     C_3   0.363220 0.122578 0.260558 -0.379117
C33   C     C_3   0.279439 0.150060 0.199294 -0.655121
H3    H     H_    0.234589 0.093047 0.197446 0.243053
H4    H     H_    0.250680 0.204911 0.252570 0.295820
H5    H     H_    0.290622 0.172673 0.100391 0.273641
H6    H     H_    0.409045 0.178521 0.254358 0.282354
H7    H     H_    0.389099 0.066337 0.206354 0.222645
H8    H     H_    0.293132 0.057431 0.413712 0.221355
H9    H     H_    0.341379 0.157282 0.456654 0.224338
C34   C     C_3   0.648662 0.903381 0.596175 -0.425001
C35   C     C_3   0.638793 0.876555 0.735762 -0.378565
C36   C     C_3   0.722915 0.847121 0.793861 -0.633905
H10   H     H_    0.749356 0.791450 0.739515 0.328878
H11   H     H_    0.769079 0.902997 0.793841 0.238150
H12   H     H_    0.712935 0.824999 0.893253 0.255249
H13   H     H_    0.614564 0.932801 0.791632 0.219890
H14   H     H_    0.592196 0.821332 0.742476 0.282068
H15   H     H_    0.659075 0.843220 0.538773 0.230313
H16   H     H_    0.707307 0.942986 0.582287 0.215625
C37   C     C_3   0.640236 0.100988 0.616568 -0.422635
C38   C     C_3   0.704631 0.134926 0.519242 -0.365361
C39   C     C_3   0.774541 0.189353 0.583111 -0.717840
H17   H     H_    0.747448 0.248874 0.627994 0.272870
H18   H     H_    0.807748 0.148961 0.656353 0.258842
H19   H     H_    0.821392 0.211140 0.511407 0.287747
H20   H     H_    0.733635 0.078200 0.470002 0.234545
H21   H     H_    0.672570 0.177021 0.446795 0.243570
H22   H     H_    0.613654 0.157759 0.668622 0.249352
H23   H     H_    0.672921 0.061874 0.691353 0.215090
C40   C     C_3   0.359786 0.898908 0.382539 -0.424373
C41   C     C_3   0.295211 0.865704 0.480096 -0.362250
C42   C     C_3   0.225468 0.810673 0.416894 -0.714635
H24   H     H_    0.192180 0.850517 0.343117 0.258963
H25   H     H_    0.252737 0.750949 0.372798 0.274526
H26   H     H_    0.178671 0.789167 0.488869 0.283913
H27   H     H_    0.327184 0.824225 0.553369 0.245708
H28   H     H_    0.266071 0.922819 0.528240 0.236828
H29   H     H_    0.327340 0.937705 0.307172 0.216552
H30   H     H_    0.386262 0.841754 0.331206 0.249253
S1    S     S_3+6 0.517180 0.696845 0.083305 0.053744
O9    O     O_2   0.439137 0.721668 0.154654 -0.298259
O10   O     O_2   0.594015 0.709279 0.166598 -0.299910
O11   O     O_3   0.525565 0.761269 0.953505 -0.552892
H31   H     H_    0.532657 0.822149 0.986192 0.368168
S2    S     S_3+6 0.484033 0.302917 0.916724 0.071949
O12   O     O_2   0.405741 0.289646 0.836809 -0.257806
O13   O     O_2   0.560905 0.279012 0.841981 -0.311576
O14   O     O_3   0.478866 0.238342 0.046759 -0.548116
H32   H     H_    0.472549 0.177326 0.014264 0.367412
S3    S     S_3+6 0.671407 0.573253 0.896946 0.105192
O15   O     O_2   0.714696 0.499346 0.829584 -0.254740
O16   O     O_2   0.655406 0.647584 0.804560 -0.279013
O17   O     O_3   0.733869 0.608492 0.016596 -0.459706
H33   H     H_    0.730962 0.673898 0.013499 0.391001
S4    S     S_3+6 0.329719 0.424580 0.101111 0.096684
O18   O     O_2   0.346717 0.351148 0.194515 -0.311505
O19   O     O_2   0.283663 0.497877 0.165691 -0.261846
O20   O     O_3   0.270587 0.386310 0.979803 -0.484633
H34   H     H_    0.227439 0.347265 0.019323 0.402092
S5    S     S_3+6 0.100272 0.596153 0.731144 0.118086
O21   O     O_2   0.136437 0.684012 0.690319 -0.246894
O22   O     O_2   0.043320 0.609554 0.842460 -0.160234
O23   O     O_3   0.180493 0.531020 0.779247 -0.513561
H35   H     H_    0.153034 0.474927 0.806552 0.383873
S6    S     S_3+6 0.901122 0.405213 0.275751 0.101732
O24   O     O_2   0.959735 0.391578 0.166462 -0.164052
O25   O     O_2   0.862601 0.317967 0.314583 -0.302085
O26   O     O_3   0.823461 0.473256 0.226261 -0.530036
H36   H     H_    0.789909 0.438407 0.164173 0.398519
S7    S     S_3+6 0.902357 0.650880 0.654411 0.101287
O27   O     O_2   0.868548 0.617694 0.778746 -0.142573
O28   O     O_2   0.960158 0.728616 0.678143 -0.227324
O29   O     O_3   0.820638 0.686409 0.564584 -0.559334
H37   H     H_    0.846868 0.710778 0.486704 0.360189
S8    S     S_3+6 0.097134 0.346401 0.358972 0.094261
O30   O     O_2   0.038064 0.270126 0.332879 -0.193141
O31   O     O_2   0.134315 0.378481 0.236141 -0.242582
O32   O     O_3   0.175088 0.308989 0.455022 -0.557482
H38   H     H_    0.228365 0.318582 0.407933 0.376609

loop_
_geom_bond_atom_site_label_1
_geom_bond_atom_site_label_2
_geom_bond_distance
_ccdc_geom_bond_type
C15   C19   1.526179 S    
C34   C35   1.533315 S    
C16   C20   1.526007 S    
O14   H32   0.990563 S    
C17   H1    1.110516 S    
S3    O15   1.502339 D    
O3    C2    1.271549 A    
C21   N2    1.170270 T    
S2    O12   1.502749 D    
S3    O17   1.682066 S    
O32   H38   0.990207 S    
C25   C27   1.407198 A    
C42   H24   1.110855 S    
O23   H35   0.990609 S    
C8    C37   1.526192 S    
O5    C3    1.260541 A    
S5    O22   1.502608 D    
C16   C17   1.543670 S    
C27   S5    1.791328 S    
O1    C1    1.274774 A    
C9    C11   1.421651 A    
C14   C16   1.530421 S    
C22   N1    1.170258 T    
S1    O9    1.502535 D    
C40   H30   1.110552 S    
C42   H26   1.109504 S    
C11   C21   1.484300 S    
S7    O27   1.501773 D    
O17   H33   0.990120 S    
C32   H7    1.111704 S    
C7    C10   1.434406 A    
C37   H22   1.110496 S    
C35   C36   1.525657 S    
C8    C9    1.434117 A    
O7    Zn1   1.995136 S    
O29   H37   0.990557 S    
S6    O24   1.502562 D    
C38   H21   1.111161 S    
C33   H3    1.110772 S    
S7    O28   1.502742 D    
C34   H15   1.111305 S    
C13   C17   1.543055 S    
C10   C31   1.524001 S    
O3    Zn1   1.965243 S    
S8    O32   1.685088 S    
C6    C23   1.186109 T    
C42   H25   1.111190 S    
C38   C39   1.526194 S    
C31   H8    1.108531 S    
O2    C2    1.275049 A    
S8    O31   1.502853 D    
C33   H5    1.110593 S    
S1    O10   1.502715 D    
C12   C22   1.484205 S    
S5    O23   1.682603 S    
C17   C19   1.538574 S    
C39   H17   1.111195 S    
C18   C20   1.539079 S    
C41   C42   1.526161 S    
Zn1   N2    1.980907 S    
C33   H4    1.108730 S    
O8    Zn2   1.995137 S    
C41   H28   1.110933 S    
Zn2   N1    1.980907 S    
C36   H12   1.110267 S    
C25   C29   1.409634 A    
C31   C32   1.533779 S    
C32   H6    1.109971 S    
S4    O20   1.680986 S    
C7    C11   1.421140 A    
C37   H23   1.107901 S    
C15   C18   1.543752 S    
C23   C29   1.414902 S    
C40   C41   1.534239 S    
C5    C24   1.186289 T    
C24   C30   1.415253 S    
S2    O13   1.502530 D    
C38   H20   1.110901 S    
C26   C30   1.408075 A    
O6    C4    1.260021 A    
S7    O29   1.682498 S    
C34   H16   1.108523 S    
S4    O19   1.502491 D    
S6    O26   1.683294 S    
C26   S8    1.788884 S    
C10   C12   1.422009 A    
C3    C20   1.415357 S    
C15   S3    1.782116 S    
C25   S7    1.790448 S    
C4    C19   1.415310 S    
C27   C30   1.407772 A    
C35   H14   1.110090 S    
O1    Zn1   1.958926 S    
C28   C29   1.407512 A    
S8    O30   1.502244 D    
S2    O14   1.678883 S    
O26   H36   0.990939 S    
S1    O11   1.678952 S    
C9    C34   1.523676 S    
C32   C33   1.525987 S    
O6    Zn2   2.001750 S    
C8    C12   1.421146 A    
C14   C18   1.542230 S    
O4    C1    1.272003 A    
C14   S2    1.784961 S    
C41   H27   1.111213 S    
C31   H9    1.111253 S    
S3    O16   1.502153 D    
S5    O21   1.502014 D    
C39   H19   1.109319 S    
C13   C20   1.532061 S    
C18   H2    1.110467 S    
C28   S6    1.790677 S    
C14   C19   1.531221 S    
C40   H29   1.107975 S    
C36   H10   1.109261 S    
C26   C28   1.405495 A    
S4    O18   1.501759 D    
C13   C15   1.530970 S    
O4    Zn2   1.965246 S    
O2    Zn2   1.958923 S    
O7    C4    1.269138 A    
S6    O25   1.502547 D    
C1    C5    1.399039 S    
C36   H11   1.110785 S    
O8    C3    1.268715 A    
C2    C6    1.398682 S    
O5    Zn1   2.001751 S    
O11   H31   0.990539 S    
C37   C38   1.534235 S    
C13   S1    1.784793 S    
O20   H34   0.990215 S    
C7    C40   1.526199 S    
C35   H13   1.111556 S    
C39   H18   1.110863 S    
C16   S4    1.781762 S    
