data_mof_unit_4402.cif
_audit_creation_date              2012-12-10T18:09:50-0500
_audit_creation_method            fapswitch 2.2
_symmetry_space_group_name_H-M    P1
_symmetry_Int_Tables_number       1
_space_group_crystal_system       triclinic
_cell_length_a                    10.594696
_cell_length_b                    12.675086
_cell_length_c                    13.116541
_cell_angle_alpha                 82.575725
_cell_angle_beta                  92.127515
_cell_angle_gamma                 101.312019
_cell_volume                      1712.57968669

loop_
_atom_site_label
_atom_site_type_symbol
_atom_type_description
_atom_site_fract_x
_atom_site_fract_y
_atom_site_fract_z
_atom_type_partial_charge
C1    C     C_R   0.490264 0.439426 0.691025 0.840128
C2    C     C_R   0.511347 0.445457 0.974466 0.073291
C3    C     C_R   0.552331 0.465338 0.871929 0.101060
C4    C     C_R   0.740953 0.498043 0.505659 0.806494
C5    C     C_R   0.553781 0.526482 0.038972 0.076666
C6    C     C_R   0.653497 0.615832 0.007100 0.183007
C7    C     C_R   0.707938 0.624280 0.910555 -0.255687
C8    C     C_R   0.657677 0.549853 0.843443 -0.220268
C9    C     C_R   0.496735 0.522249 0.133438 -0.251677
C10   C     C_R   0.647211 0.682390 0.171482 -0.186802
C11   C     C_R   0.485643 0.400411 0.800447 -0.112224
C12   C     C_3   0.120813 0.496453 0.507972 0.160150
C13   C     C_R   0.394837 0.111898 0.309239 -0.245140
C14   C     C_R   0.633076 0.792116 0.643763 0.031109
C15   C     C_R   0.663291 0.893965 0.676938 -0.245953
C16   C     C_R   0.517278 0.560198 0.309230 0.916056
C17   C     C_R   0.624358 0.981833 0.618626 -0.178895
C18   C     C_R   0.557222 0.968538 0.525073 0.027659
C19   C     C_R   0.530003 0.863000 0.492665 0.103026
C20   C     C_R   0.508767 0.054039 0.464934 -0.005300
C21   C     C_R   0.460866 0.038464 0.364951 0.075051
C22   C     C_R   0.462467 0.942441 0.326174 -0.274528
C23   C     C_3   0.073806 0.533177 0.398390 -0.391002
C24   C     C_R   0.468745 0.851173 0.395284 -0.006426
C25   C     C_R   0.499481 0.152423 0.500629 -0.068347
C26   C     C_R   0.374366 0.200982 0.352943 0.149701
C27   C     C_R   0.258235 0.498278 0.504346 0.842639
C28   C     C_3   0.901738 0.380723 0.547095 -0.395962
C29   C     C_3   0.046132 0.380343 0.544855 -0.388875
C30   C     C_3   0.929165 0.531808 0.398536 -0.401970
C31   C     C_3   0.948998 0.575474 0.582335 -0.404129
C32   C     C_3   0.877375 0.496485 0.508694 0.189039
C33   C     C_2   0.288560 0.270046 0.299049 0.328895
C34   C     C_3   0.092715 0.573219 0.584100 -0.391025
C35   C     C_2   0.357162 0.765919 0.381611 0.501193
C36   C     C_R   0.698148 0.694296 0.073164 -0.207060
C37   C     C_R   0.548442 0.594193 0.201939 -0.013981
C38   C     C_R   0.401323 0.303245 0.834580 -0.212044
C39   C     C_R   0.377445 0.274185 0.938719 -0.128378
C40   C     C_R   0.429530 0.345451 0.008261 -0.169311
H1    H     H_    0.850342 0.320631 0.497445 0.193541
H2    H     H_    0.407734 0.319301 0.088158 0.176648
H3    H     H_    0.314221 0.198336 0.965234 0.158774
H4    H     H_    0.865372 0.354599 0.626731 0.158151
H5    H     H_    0.702809 0.557959 0.769473 0.144036
H6    H     H_    0.422020 0.932255 0.249831 0.186399
H7    H     H_    0.352794 0.096162 0.234682 0.180570
H8    H     H_    0.543192 0.175213 0.572115 0.129521
H9    H     H_    0.664205 0.724668 0.689088 0.135830
H10   H     H_    0.716642 0.904651 0.748084 0.146152
H11   H     H_    0.080254 0.351537 0.622903 0.164259
H12   H     H_    0.146370 0.657379 0.563864 0.175228
H13   H     H_    0.062252 0.322240 0.492095 0.189019
H14   H     H_    0.879022 0.474841 0.345437 0.180617
H15   H     H_    0.094541 0.478803 0.343529 0.176721
H16   H     H_    0.935880 0.659904 0.556504 0.189609
H17   H     H_    0.909944 0.552081 0.661433 0.154995
H18   H     H_    0.123411 0.544863 0.663356 0.170992
H19   H     H_    0.275085 0.342898 0.326886 0.139256
H20   H     H_    0.650341 0.059615 0.646820 0.132112
H21   H     H_    0.283821 0.748093 0.439552 0.032278
H22   H     H_    0.910794 0.614028 0.369368 0.168617
H23   H     H_    0.124305 0.616476 0.370852 0.201790
H24   H     H_    0.688978 0.738362 0.224947 0.159267
H25   H     H_    0.787207 0.689710 0.885996 0.140636
H26   H     H_    0.775299 0.762172 0.050244 0.141863
H27   H     H_    0.413976 0.460705 0.157398 0.156711
H28   H     H_    0.351316 0.251155 0.780599 0.159151
N1    N     N_R   0.433240 0.222190 0.444680 -0.150949
N2    N     N_R   0.566070 0.776970 0.554790 -0.133941
O1    O     O_R   0.468120 0.366740 0.627160 -0.619173
O2    O     O_2   0.336793 0.727604 0.300355 -0.617802
O3    O     O_R   0.510770 0.544830 0.662520 -0.618303
O4    O     O_R   0.663880 0.410950 0.482330 -0.619701
O5    O     O_R   0.706530 0.589040 0.517700 -0.635833
O6    O     O_R   0.489230 0.455170 0.337480 -0.649511
O7    O     O_R   0.531880 0.633260 0.372840 -0.587360
O8    O     O_R   0.293470 0.410960 0.482300 -0.653393
O9    O     O_R   0.336120 0.589050 0.517670 -0.637232
O10   O     O_2   0.227528 0.244270 0.222301 -0.620946
Zn1   Zn    Zn3+2 0.471520 0.381090 0.476390 0.915553
Zn2   Zn    Zn3+2 0.528480 0.618910 0.523610 0.935666

loop_
_geom_bond_atom_site_label_1
_geom_bond_atom_site_label_2
_ccdc_geom_bond_type
C12   C29   S    
C1    C11   S    
C27   O8    A    
C7    C8    A    
C30   H14   S    
C12   C23   S    
C1    O1    A    
C10   C37   A    
C28   C29   S    
C18   C19   A    
C27   O9    A    
C5    C6    A    
C36   H26   S    
C14   H9    S    
C20   C25   A    
C28   H1    S    
C16   O7    A    
C15   H10   S    
C8    H5    S    
C4    O5    A    
C31   H16   S    
C4    O4    A    
C16   C37   S    
C40   H2    S    
C33   H19   S    
C21   C22   A    
C14   N2    A    
C24   C35   S    
C12   C27   S    
C23   C30   S    
C28   C32   S    
C3    C11   A    
C35   H21   S    
C3    C8    A    
C39   C40   A    
C13   H7    S    
C39   H3    S    
C28   H4    S    
C11   C38   A    
C9    H27   S    
C5    C9    A    
C7    H25   S    
C26   C33   S    
C31   C32   S    
C9    C37   A    
C17   C18   A    
C31   C34   S    
C13   C21   A    
C33   O10   D    
C25   H8    S    
C4    C32   S    
C22   H6    S    
C38   H28   S    
C35   O2    D    
C30   H22   S    
C22   C24   A    
C13   C26   A    
C2    C5    A    
C25   N1    A    
O4    Zn1   S    
C12   C34   S    
O3    Zn2   S    
C29   H11   S    
C15   C17   A    
C16   O6    A    
C10   H24   S    
O6    Zn1   S    
O9    Zn2   S    
O5    Zn2   S    
C23   H15   S    
C6    C7    A    
C34   H12   S    
C1    O3    A    
C31   H17   S    
C2    C3    A    
C30   C32   S    
O8    Zn1   S    
C38   C39   A    
C29   H13   S    
O7    Zn2   S    
C23   H23   S    
C6    C36   A    
C19   C24   A    
C18   C20   A    
N2    Zn2   S    
N1    Zn1   S    
C17   H20   S    
C2    C40   A    
C20   C21   A    
C34   H18   S    
C26   N1    A    
C14   C15   A    
C19   N2    A    
C10   C36   A    
O1    Zn1   S    
