data_mof_unit_569.cif
_audit_creation_date              2012-12-11T14:17:36-0500
_audit_creation_method            fapswitch 2.2
_symmetry_space_group_name_H-M    P1
_symmetry_Int_Tables_number       1
_space_group_crystal_system       triclinic
_cell_length_a                    6.976726
_cell_length_b                    13.796264
_cell_length_c                    20.486084
_cell_angle_alpha                 101.851367
_cell_angle_beta                  90.607956
_cell_angle_gamma                 91.008362
_cell_volume                      1929.30680321

loop_
_atom_site_label
_atom_site_type_symbol
_atom_type_description
_atom_site_fract_x
_atom_site_fract_y
_atom_site_fract_z
_atom_type_partial_charge
O1    O     O_R   0.506860 0.599390 0.449240 -0.549005
O2    O     O_R   0.180220 0.594600 0.586780 -0.503448
O3    O     O_R   0.004500 0.400610 0.550760 -0.532754
C1    C     C_R   0.351493 0.615516 0.613201 0.771639
O4    O     O_R   0.177490 0.611290 0.451970 -0.542018
O5    O     O_R   0.001750 0.417420 0.414990 -0.543733
C2    C     C_R   0.346570 0.636827 0.435186 0.885881
O6    O     O_R   0.509610 0.582580 0.585010 -0.541368
O7    O     O_3   0.337420 0.436370 0.488020 -0.385431
V1    V     V_3+5 0.064680 0.511800 0.502220 1.683297
O8    O     O_R   0.671710 0.405400 0.413220 -0.532190
C3    C     C_R   0.839118 0.386631 0.386099 0.734026
O9    O     O_R   0.674440 0.388710 0.548030 -0.547950
C4    C     C_R   0.843016 0.363376 0.565782 0.840522
V2    V     V_3+5 0.564010 0.488200 0.497780 1.643421
O10   O     O_3   0.841140 0.563630 0.511980 -0.374601
C5    C     C_R   0.848507 0.106599 0.605515 0.294253
C6    C     C_R   0.851256 0.282493 0.602729 -0.254746
C7    C     C_R   0.822314 0.307186 0.922654 0.057867
C8    C     C_R   0.780926 0.378063 0.884805 0.183770
C9    C     C_R   0.758313 0.349907 0.815337 0.251375
C10   C     C_R   0.824703 0.256438 0.781319 -0.037049
C11   C     C_R   0.861497 0.183096 0.819502 -0.218100
C12   C     C_R   0.844867 0.232050 0.710340 -0.123509
C13   C     C_R   0.856484 0.131111 0.676839 -0.283330
C14   C     C_R   0.882590 0.058991 0.715970 0.674202
C15   C     C_R   0.892227 0.084955 0.785333 0.550489
C16   C     C_R   0.866839 0.305939 0.672207 0.621417
C17   C     C_R   0.840998 0.183178 0.569035 0.017503
C18   C     C_R   0.857508 0.209146 0.890617 -0.149858
C19   C     C_2   0.987245 0.281036 0.285584 0.102387
C20   C     C_2   0.841760 0.337172 0.314724 -0.013954
C21   C     C_2   0.990269 0.241797 0.212365 0.200692
C22   C     C_2   0.869268 0.167455 0.184108 -0.305937
H1    H     H_    0.765652 0.140871 0.215755 0.168959
C23   C     C_2   0.229922 0.758990 0.792030 -0.004211
C24   C     C_2   0.347658 0.837981 0.815338 0.426226
C25   C     C_2   0.224290 0.700482 0.721877 0.630120
C26   C     C_2   0.373812 0.682304 0.679733 -0.059242
C27   C     C_R   0.381541 0.890283 0.397873 0.222787
C28   C     C_R   0.358448 0.715990 0.398338 -0.351200
C29   C     C_R   0.358287 0.694205 0.081368 -0.022935
C30   C     C_R   0.404259 0.622684 0.117238 0.601877
C31   C     C_R   0.434206 0.648858 0.185465 0.639297
C32   C     C_R   0.395828 0.745556 0.220870 -0.123491
C33   C     C_R   0.379828 0.822682 0.184072 -0.170427
C34   C     C_R   0.382283 0.767754 0.291853 -0.091285
C35   C     C_R   0.392843 0.867948 0.326983 -0.266325
C36   C     C_R   0.409820 0.942780 0.290454 0.702483
C37   C     C_R   0.389428 0.922395 0.220925 0.053264
C38   C     C_R   0.347477 0.693368 0.328952 0.608682
C39   C     C_R   0.375313 0.813636 0.432738 0.488129
C40   C     C_R   0.361485 0.795035 0.112596 -0.198096
O11   O     O_R   0.203230 0.917310 0.915020 -0.529364
O12   O     O_R   0.535500 0.888690 0.048040 -0.546877
O13   O     O_R   0.711080 0.082610 0.085000 -0.537860
C41   C     C_R   0.367393 0.866861 0.068473 0.800985
O14   O     O_R   0.532630 0.905370 0.913230 -0.523008
O15   O     O_R   0.708190 0.099410 0.949230 -0.541211
C42   C     C_R   0.361679 0.887395 0.886221 0.713246
O16   O     O_R   0.206120 0.900510 0.050790 -0.541245
O17   O     O_3   0.375360 0.063570 0.011990 -0.374530
V3    V     V_3+5 0.648170 0.988200 0.997780 1.621269
O18   O     O_R   0.038240 0.111390 0.951940 -0.531557
C43   C     C_R   0.869720 0.134033 0.932268 0.867922
O19   O     O_R   0.041120 0.094710 0.086750 -0.534305
C44   C     C_R   0.874195 0.114554 0.113528 0.769765
V4    V     V_3+5 0.148810 0.011930 0.002180 1.625061
O20   O     O_3   0.871750 0.936430 0.988010 -0.369898
I1    I     I_    0.832278 0.153188 0.462075 -0.212444
I2    I     I_    0.620987 0.379812 0.255756 -0.069696
I3    I     I_    0.178282 0.312860 0.155324 -0.069859
I4    I     I_    0.004301 0.720419 0.851590 -0.099745
F1    F     F_    0.434114 0.886942 0.772238 -0.626438
F2    F     F_    0.059424 0.648179 0.703102 -0.611357
I5    I     I_    0.662536 0.728120 0.705265 0.028072
F3    F     F_    0.373149 0.834207 0.500557 -0.628016
F4    F     F_    0.450003 0.037274 0.322022 -0.625970
I6    I     I_    0.341368 0.033919 0.458111 -0.089696
F5    F     F_    0.911804 0.962532 0.688575 -0.574198
F6    F     F_    0.283050 0.601014 0.299357 -0.616768
I7    I     I_    0.296897 0.645340 0.978868 -0.192413
F7    F     F_    0.519988 0.581785 0.215295 -0.570862
F8    F     F_    0.426812 0.527125 0.085519 -0.571617
I8    I     I_    0.373888 0.053678 0.182642 -0.266792
I9    I     I_    0.837217 0.956237 0.549836 -0.037762
F9    F     F_    0.919177 0.400239 0.701897 -0.633899
I10   I     I_    0.798899 0.344487 0.028932 -0.129542
I11   I     I_    0.548270 0.429812 0.770532 -0.200616
I12   I     I_    0.758663 0.529157 0.932482 -0.115412
F10   F     F_    0.928280 0.011206 0.818364 -0.639842
I13   I     I_    0.221885 0.241284 0.340991 -0.141890

loop_
_geom_bond_atom_site_label_1
_geom_bond_atom_site_label_2
_ccdc_geom_bond_type
O19   V4    S    
C24   F1    S    
C5    C17   A    
C4    C6    S    
C7    C8    A    
C29   I7    S    
C1    O6    A    
C31   F7    S    
O11   C42   A    
C32   C33   A    
C14   C15   A    
O18   V4    S    
C23   C24   D    
C29   C40   A    
O5    C3    A    
C25   C26   D    
O11   V4    S    
O14   C42   A    
V2    O10   S    
C36   F4    S    
C22   H1    S    
C37   I8    S    
O8    V2    S    
V3    O20   S    
V4    O20   S    
O12   V3    S    
C34   C35   A    
C19   C21   S    
C15   F10   S    
O1    V2    S    
C11   C15   A    
O7    V1    S    
C38   F6    S    
C28   C39   A    
C21   I3    S    
O19   C44   A    
O9    C4    A    
C3    C20   S    
C30   F8    S    
C20   I2    S    
C25   F2    S    
C32   C34   A    
C27   I6    S    
C5    I9    S    
C24   C42   S    
C11   C18   A    
C6    C16   A    
C12   C13   A    
C7    I10   S    
O4    C2    A    
C40   C41   S    
C9    I11   S    
C13   C14   A    
C27   C39   A    
C8    I12   S    
C14   F5    S    
O2    C1    A    
C30   C31   A    
O17   V3    S    
C19   C20   D    
C1    C26   S    
C16   F9    S    
C21   C22   D    
O13   V3    S    
C6    C17   A    
C26   I5    S    
O3    C4    A    
C35   C36   A    
C19   I13   S    
O6    V2    S    
O12   C41   A    
C10   C12   A    
C29   C30   A    
C39   F3    S    
O2    V1    S    
C31   C32   A    
C17   I1    S    
O14   V3    S    
C27   C35   A    
O1    C2    A    
C12   C16   A    
C22   C44   S    
O5    V1    S    
C34   C38   A    
O8    C3    A    
C41   O16   A    
O13   C44   A    
C33   C37   A    
O15   V3    S    
O17   V4    S    
C5    C13   A    
O18   C43   A    
O9    V2    S    
O7    V2    S    
O4    V1    S    
O3    V1    S    
V1    O10   S    
O15   C43   A    
O16   V4    S    
C33   C40   A    
C23   C25   S    
C2    C28   S    
C18   C43   S    
C23   I4    S    
C8    C9    A    
C36   C37   A    
C10   C11   A    
C9    C10   A    
C7    C18   A    
C28   C38   A    
