data_mof_unit_2416.cif
_audit_creation_date              2012-12-10T19:33:11-0500
_audit_creation_method            fapswitch 2.2
_symmetry_space_group_name_H-M    P1
_symmetry_Int_Tables_number       1
_space_group_crystal_system       triclinic
_cell_length_a                    8.715284
_cell_length_b                    15.871719
_cell_length_c                    16.985685
_cell_angle_alpha                 94.621896
_cell_angle_beta                  90.591554
_cell_angle_gamma                 84.461352
_cell_volume                      2330.98917173

loop_
_atom_site_label
_atom_site_type_symbol
_atom_type_description
_atom_site_fract_x
_atom_site_fract_y
_atom_site_fract_z
_atom_type_partial_charge
C1    C     C_R   0.496902 0.491227 0.348981 0.913813
C2    C     C_R   0.493849 0.509468 0.651074 0.923577
C3    C     C_R   0.421748 0.756486 0.462112 0.733894
C4    C     C_R   0.574156 0.244642 0.540567 0.716764
C5    C     C_R   0.413432 0.846024 0.466023 -0.086735
C6    C     C_R   0.587510 0.154875 0.535776 -0.082097
C7    C     C_R   0.512183 0.889482 0.519346 0.239113
C8    C     C_R   0.497530 0.110105 0.478623 0.248177
C9    C     C_R   0.609364 0.839568 0.569288 0.009449
C10   C     C_R   0.404940 0.159122 0.426103 0.010970
C11   C     C_R   0.611413 0.750324 0.562115 -0.108251
C12   C     C_R   0.397514 0.248496 0.434388 -0.089882
C13   C     C_R   0.205618 0.521799 0.499831 0.855453
C14   C     C_R   0.794412 0.478131 0.498589 0.929910
C15   C     C_2   0.040527 0.533670 0.499200 -0.367914
C16   C     C_2   0.959520 0.466159 0.497189 -0.344474
C17   C     C_R   0.494121 0.491357 0.263217 -0.285344
C18   C     C_R   0.477219 0.511283 0.736865 -0.277745
C19   C     C_R   0.368736 0.535024 0.224830 0.041446
C20   C     C_R   0.349645 0.477841 0.770501 0.029164
C21   C     C_R   0.387060 0.553620 0.145128 0.035486
C22   C     C_R   0.354001 0.463876 0.852220 0.035059
C23   C     C_R   0.524807 0.521519 0.104780 0.110545
C24   C     C_R   0.476152 0.492440 0.899710 0.094889
C25   C     C_R   0.643317 0.475244 0.143173 0.532426
C26   C     C_R   0.596919 0.529809 0.865072 0.537488
C27   C     C_R   0.628795 0.460821 0.222064 0.433364
C28   C     C_R   0.597614 0.538089 0.784411 0.444781
Cu1   Cu    Cu3+1 0.492520 0.415770 0.496210 1.009891
Cu2   Cu    Cu3+1 0.507480 0.584230 0.503790 1.004431
H1    H     H_    0.985527 0.598274 0.501395 0.186772
H2    H     H_    0.014564 0.401558 0.495013 0.184306
H3    H     H_    0.684582 0.712180 0.600214 0.191437
H4    H     H_    0.327897 0.285671 0.394080 0.169873
N1    N     N_2   0.543543 0.533369 0.024266 -0.087627
N2    N     N_2   0.472284 0.482365 0.982039 -0.207259
N3    N     N_R   0.518730 0.710760 0.509500 -0.244290
N4    N     N_R   0.481270 0.289240 0.490500 -0.244787
N5    N     N_2   0.506240 0.980957 0.530011 -0.223234
N6    N     N_2   0.506269 0.018429 0.467757 -0.220945
O1    O     O_R   0.493000 0.421040 0.382520 -0.574998
O2    O     O_R   0.507000 0.578960 0.617480 -0.570017
O3    O     O_R   0.505640 0.563310 0.388930 -0.549965
O4    O     O_R   0.494360 0.436690 0.611070 -0.543945
O5    O     O_R   0.269980 0.445280 0.497530 -0.603737
O6    O     O_R   0.730020 0.554720 0.502470 -0.591849
O7    O     O_R   0.282610 0.587550 0.503940 -0.549699
O8    O     O_R   0.717390 0.412450 0.496060 -0.525258
C29   C     C_3   0.207406 0.462962 0.719762 -0.373283
C30   C     C_3   0.118463 0.547393 0.702827 -0.747494
H5    H     H_    0.086710 0.585807 0.758821 0.275604
H6    H     H_    0.188544 0.584587 0.666881 0.227511
H7    H     H_    0.011068 0.535261 0.669929 0.272510
H8    H     H_    0.239464 0.425651 0.663449 0.215860
H9    H     H_    0.126075 0.425108 0.747338 0.220162
C31   C     C_3   0.216513 0.557738 0.268966 -0.383483
C32   C     C_3   0.131407 0.478989 0.276010 -0.736111
H10   H     H_    0.105202 0.449780 0.216342 0.290701
H11   H     H_    0.201414 0.431531 0.309292 0.234519
H12   H     H_    0.021267 0.497253 0.308056 0.271697
H13   H     H_    0.236730 0.587780 0.328793 0.255213
H14   H     H_    0.137211 0.604788 0.240606 0.222772
C33   C     C_3   0.232362 0.416951 0.889845 -0.400857
C34   C     C_3   0.088410 0.475664 0.914027 -0.639365
H15   H     H_    0.119571 0.530211 0.953821 0.238370
H16   H     H_    0.027120 0.500058 0.861886 0.282882
H17   H     H_    0.008236 0.440070 0.945866 0.279350
H18   H     H_    0.201773 0.362052 0.850212 0.194145
H19   H     H_    0.278533 0.387202 0.943247 0.227593
C35   C     C_3   0.265353 0.609860 0.103732 -0.330381
C36   C     C_3   0.271263 0.703348 0.132149 -0.816453
H20   H     H_    0.254944 0.714282 0.196917 0.254012
H21   H     H_    0.384409 0.724419 0.116899 0.262337
H22   H     H_    0.178863 0.742573 0.102624 0.246977
H23   H     H_    0.282338 0.605105 0.039008 0.221352
H24   H     H_    0.148694 0.589423 0.111779 0.215549
F1    F     F_    0.774793 0.445425 0.103841 -0.608750
F2    F     F_    0.718817 0.554577 0.908463 -0.612555
F3    F     F_    0.748906 0.419815 0.259522 -0.643509
F4    F     F_    0.719629 0.569662 0.751910 -0.651406
F5    F     F_    0.661929 0.288004 0.592966 -0.661240
F6    F     F_    0.326091 0.714893 0.412748 -0.686985
C37   C     C_3   0.708974 0.110594 0.586668 -0.322102
C38   C     C_3   0.845933 0.070515 0.536931 -0.837506
H25   H     H_    0.937000 0.042535 0.575866 0.230740
H26   H     H_    0.811158 0.019728 0.493574 0.267672
H27   H     H_    0.894416 0.120023 0.504818 0.261234
H28   H     H_    0.754452 0.155616 0.632496 0.244038
H29   H     H_    0.658834 0.063931 0.620843 0.217091
C39   C     C_3   0.289203 0.891071 0.417501 -0.333174
C40   C     C_3   0.332277 0.882977 0.330039 -0.785299
H30   H     H_    0.243617 0.920314 0.296349 0.231675
H31   H     H_    0.446211 0.906855 0.321788 0.247534
H32   H     H_    0.338070 0.815775 0.305701 0.279653
H33   H     H_    0.264446 0.958532 0.438722 0.222230
H34   H     H_    0.178744 0.862805 0.424465 0.217984
C41   C     C_3   0.710133 0.879263 0.631800 -0.379239
C42   C     C_3   0.615709 0.916246 0.703851 -0.788230
H35   H     H_    0.522194 0.964126 0.687254 0.253010
H36   H     H_    0.563663 0.864794 0.731683 0.261964
H37   H     H_    0.691963 0.947276 0.747696 0.239391
H38   H     H_    0.800644 0.831289 0.651750 0.202640
H39   H     H_    0.772390 0.928313 0.606864 0.217804
C43   C     C_3   0.316306 0.118852 0.358716 -0.382107
C44   C     C_3   0.144980 0.123820 0.377885 -0.819968
H40   H     H_    0.127995 0.093440 0.433267 0.247270
H41   H     H_    0.094897 0.191046 0.385023 0.259623
H42   H     H_    0.083479 0.090159 0.329155 0.249557
H43   H     H_    0.331877 0.151781 0.304411 0.208123
H44   H     H_    0.361129 0.052053 0.344516 0.228724

loop_
_geom_bond_atom_site_label_1
_geom_bond_atom_site_label_2
_ccdc_geom_bond_type
C19   C31   S    
C13   O5    A    
C2    C18   S    
N1    N2    D    
C38   H27   S    
C41   C42   S    
C39   C40   S    
C39   H33   S    
C14   O6    A    
C44   H41   S    
C20   C29   S    
C25   F1    S    
C22   C24   A    
C19   C21   A    
C24   C26   A    
C27   F3    S    
C43   H43   S    
C32   H11   S    
C15   C16   D    
C31   C32   S    
C11   N3    A    
C22   C33   S    
C1    O3    A    
C4    F5    S    
C33   H19   S    
C2    O4    A    
Cu1   N4    S    
C30   H6    S    
C35   C36   S    
C18   C20   A    
C41   H38   S    
C37   H28   S    
C43   C44   S    
C37   H29   S    
C44   H42   S    
C30   H7    S    
Cu1   O8    S    
C17   C27   A    
C34   H17   S    
Cu2   O7    S    
C11   H3    S    
C18   C28   A    
C38   H25   S    
C4    C6    A    
C40   H30   S    
C5    C7    A    
C32   H12   S    
C6    C8    A    
C29   H9    S    
Cu2   N3    S    
Cu1   O5    S    
C34   H16   S    
Cu1   Cu2   S    
C40   H31   S    
C37   C38   S    
C3    F6    S    
C30   H5    S    
C26   F2    S    
C39   H34   S    
C9    C11   A    
C41   H39   S    
C10   C12   A    
C1    O1    A    
C4    N4    A    
C42   H35   S    
C23   N1    S    
C13   C15   S    
Cu1   O4    S    
C35   H24   S    
C14   C16   S    
Cu2   O3    S    
C16   H2    S    
C20   C22   A    
C12   H4    S    
N5    N6    D    
C13   O7    A    
C7    C9    A    
C33   H18   S    
C9    C41   S    
C6    C37   S    
Cu1   O1    S    
C26   C28   A    
Cu2   O6    S    
C5    C39   S    
C38   H26   S    
C3    C5    A    
C36   H22   S    
C14   O8    A    
C15   H1    S    
C25   C27   A    
C42   H37   S    
C44   H40   S    
C1    C17   S    
C24   N2    S    
C21   C35   S    
C34   H15   S    
C21   C23   A    
C36   H20   S    
C40   H32   S    
C43   H44   S    
C32   H10   S    
C2    O2    A    
C10   C43   S    
C17   C19   A    
C31   H14   S    
C23   C25   A    
C12   N4    A    
C28   F4    S    
C42   H36   S    
C33   C34   S    
C3    N3    A    
C8    C10   A    
C29   C30   S    
C36   H21   S    
C35   H23   S    
C7    N5    S    
C31   H13   S    
Cu2   O2    S    
C8    N6    S    
C29   H8    S    
