data_mof_unit_530.cif
_audit_creation_date              2013-03-05T16:32:26-0500
_audit_creation_method            fapswitch 2.2
_symmetry_space_group_name_H-M    P1
_symmetry_Int_Tables_number       1
_space_group_crystal_system       triclinic
_cell_length_a                    10.632816
_cell_length_b                    10.785072
_cell_length_c                    9.578621
_cell_angle_alpha                 90.94013
_cell_angle_beta                  88.748749
_cell_angle_gamma                 91.215468
_cell_volume                      1097.78621957

loop_
_atom_site_label
_atom_site_type_symbol
_atom_site_description
_atom_site_fract_x
_atom_site_fract_y
_atom_site_fract_z
_atom_type_partial_charge
O1    O     O_R   0.500000 0.319640 0.618810 -0.561435
O2    O     O_R   0.500010 0.319680 0.381230 -0.535075
C1    C     C_R   0.502418 0.262680 0.498635 0.856329
O3    O     O_R   0.316850 0.499950 0.618770 -0.565799
O4    O     O_R   0.316860 0.499990 0.381190 -0.499545
C2    C     C_R   0.259551 0.503041 0.500895 0.830977
Cu1   Cu    Cu3+1 0.499990 0.499980 0.640670 0.968236
Cu2   Cu    Cu3+1 0.500010 0.500020 0.359330 1.022263
O5    O     O_R   0.499990 0.680320 0.618770 -0.592602
O6    O     O_R   0.500000 0.680360 0.381190 -0.587610
O7    O     O_R   0.683140 0.500010 0.618810 -0.590492
O8    O     O_R   0.683150 0.500050 0.381230 -0.559664
C3    C     C_R   0.500115 0.737389 0.500754 0.800672
C4    C     C_R   0.740502 0.500706 0.498794 0.839059
C5    C     C_3   0.039914 0.387753 0.516100 -0.273585
C6    C     C_3   0.961478 0.431572 0.393716 0.585691
H1    H     H_    0.075278 0.292514 0.528066 0.151129
C7    C     C_3   0.877188 0.503193 0.496884 -0.128301
C8    C     C_3   0.954209 0.460258 0.620529 -0.189882
C9    C     C_3   0.039115 0.578167 0.605247 -0.193509
C10   C     C_3   0.959739 0.621666 0.482026 -0.343057
C11   C     C_3   0.044409 0.548219 0.379314 0.442461
C12   C     C_3   0.122762 0.505572 0.501146 -0.101916
H2    H     H_    0.912413 0.424870 0.719593 0.165433
H3    H     H_    0.073305 0.638847 0.691750 0.143646
H4    H     H_    0.924153 0.716550 0.467606 0.150454
C13   C     C_R   0.414490 0.064128 0.576824 0.030444
C14   C     C_R   0.501182 0.129176 0.493333 -0.179594
C15   C     C_R   0.576682 0.064179 0.394377 0.429874
C16   C     C_R   0.576299 0.933308 0.400549 -0.344207
H5    H     H_    0.639847 0.879909 0.334892 0.138102
C17   C     C_R   0.499939 0.870663 0.499079 -0.114439
C18   C     C_R   0.413180 0.937004 0.579321 0.118629
C19   C     C_3   0.380426 0.935309 0.731757 -0.489421
C20   C     C_3   0.381385 0.076109 0.728415 -0.409044
H6    H     H_    0.285460 0.893838 0.753019 0.194737
H7    H     H_    0.456670 0.899713 0.795742 0.194638
H8    H     H_    0.286732 0.115664 0.746439 0.215746
H9    H     H_    0.458104 0.120079 0.790310 0.207031
C21   C     C_R   0.594792 0.557530 0.072023 0.184390
N1    N     N_R   0.500800 0.500930 0.147930 -0.234554
C22   C     C_R   0.417616 0.426177 0.076434 0.397022
C23   C     C_R   0.410830 0.433834 0.926444 0.373787
N2    N     N_R   0.500800 0.500890 0.852020 -0.237731
C24   C     C_R   0.596631 0.555018 0.925257 0.164640
C25   C     C_3   0.638839 0.687494 0.919679 -0.469493
C26   C     C_3   0.633321 0.690972 0.078208 -0.497489
H10   H     H_    0.735974 0.698048 0.875493 0.193765
H11   H     H_    0.568471 0.746885 0.872515 0.205675
H12   H     H_    0.726739 0.706071 0.125507 0.179621
H13   H     H_    0.557750 0.751136 0.121290 0.210237
F1    F     F_    0.918963 0.357103 0.285183 -0.684347
O9    O     O_3   0.332852 0.352931 0.151788 -0.532194
C27   C     C_3   0.359076 0.226318 0.128582 0.063329
H14   H     H_    0.457208 0.206503 0.155956 0.171072
H15   H     H_    0.345205 0.197265 0.018310 0.157263
C28   C     C_3   0.270823 0.147953 0.220064 -0.765352
H16   H     H_    0.294831 0.048538 0.208468 0.192662
H17   H     H_    0.279355 0.176638 0.331276 0.244567
H18   H     H_    0.171860 0.159913 0.189176 0.255640
O10   O     O_3   0.319352 0.367237 0.854325 -0.567289
C29   C     C_3   0.196832 0.406333 0.894103 0.100697
H19   H     H_    0.167837 0.479844 0.823383 0.160349
H20   H     H_    0.187583 0.445512 0.001630 0.188158
C30   C     C_3   0.104170 0.297369 0.882342 -0.805917
H21   H     H_    0.008321 0.327411 0.913906 0.210260
H22   H     H_    0.102964 0.261120 0.773452 0.235258
H23   H     H_    0.131010 0.221671 0.951783 0.249171
O11   O     O_3   0.100725 0.595408 0.255727 -0.561126
C31   C     C_3   0.006753 0.623663 0.160147 0.094171
H24   H     H_    0.926878 0.673198 0.211279 0.121903
H25   H     H_    0.970797 0.537006 0.108989 0.185503
C32   C     C_3   0.062806 0.708402 0.048398 -0.847356
H26   H     H_    0.145200 0.664847 0.995852 0.233407
H27   H     H_    0.990951 0.726466 0.969145 0.198163
H28   H     H_    0.093663 0.798127 0.096563 0.255613
O12   O     O_3   0.659526 0.131565 0.307838 -0.549307
C33   C     C_3   0.682065 0.071596 0.177336 0.071720
H29   H     H_    0.594451 0.028501 0.134509 0.112449
H30   H     H_    0.754506 0.999679 0.187772 0.148539
C34   C     C_3   0.732671 0.166005 0.072611 -0.738047
H31   H     H_    0.826126 0.202340 0.105064 0.297402
H32   H     H_    0.743221 0.121110 0.967956 0.179530
H33   H     H_    0.667329 0.244472 0.065270 0.227864

loop_
_geom_bond_atom_site_label_1
_geom_bond_atom_site_label_2
_geom_bond_distance
_ccdc_geom_bond_type
C21   C26   1.488567 S    
C10   H4    1.110317 S    
C7    C10   1.541512 S    
N1    C22   1.370897 A    
C4    C7    1.452760 S    
C3    C17   1.437765 S    
C8    C9    1.550871 S    
C34   H31   1.109326 S    
Cu1   Cu2   2.694851 S    
O9    C27   1.412563 S    
C13   C18   1.371418 A    
Cu1   O7    1.954067 S    
C25   H11   1.103991 S    
C15   C16   1.413579 A    
C1    C14   1.439709 S    
C7    C8    1.537608 S    
C22   O9    1.384708 S    
O4    C2    1.286942 A    
O7    C4    1.289606 A    
C33   H30   1.111812 S    
C28   H17   1.109472 S    
C9    H3    1.110072 S    
C5    C6    1.539713 S    
C19   H7    1.105831 S    
C5    H1    1.109820 S    
C19   C20   1.519208 S    
C32   H26   1.109930 S    
O5    C3    1.295932 A    
C29   H20   1.109997 S    
C5    C8    1.551544 S    
C30   H22   1.108095 S    
C31   H24   1.113149 S    
C11   O11   1.412381 S    
C5    C12   1.537578 S    
C10   C11   1.540103 S    
C32   H27   1.111066 S    
O10   C29   1.420005 S    
O3    Cu1   1.963102 S    
C34   H32   1.110586 S    
C26   H12   1.108508 S    
C25   H10   1.111886 S    
C21   C24   1.405347 A    
C27   H15   1.108874 S    
C20   H8    1.110360 S    
Cu2   N1    2.024939 S    
O3    C2    1.295859 A    
C33   H29   1.115444 S    
C28   H18   1.109963 S    
C26   H13   1.111689 S    
C13   C20   1.490791 S    
O12   C33   1.416082 S    
O1    C1    1.295866 A    
C20   H9    1.112340 S    
C23   N2    1.379906 A    
C29   H19   1.104357 S    
C9    C12   1.537375 S    
Cu2   O8    1.963102 S    
C30   H23   1.107427 S    
C31   C32   1.522281 S    
C18   C19   1.493984 S    
C25   C26   1.518224 S    
Cu1   N2    2.024511 S    
C6    C7    1.530390 S    
C21   N1    1.362729 A    
O8    C4    1.292114 A    
C32   H28   1.111496 S    
C22   C23   1.443889 A    
C34   H33   1.110346 S    
N2    C24   1.365180 A    
C23   O10   1.386580 S    
Cu1   O5    1.959677 S    
C27   H14   1.107424 S    
C14   C15   1.415317 A    
C6    C11   1.527277 S    
C29   C30   1.521800 S    
O1    Cu1   1.952801 S    
O2    Cu2   1.959680 S    
C6    F1    1.381266 S    
O6    C3    1.291058 A    
O4    Cu2   1.954068 S    
C17   C18   1.390205 A    
O2    C1    1.291454 A    
C16   C17   1.403776 A    
C33   C34   1.522906 S    
C28   H16   1.110669 S    
C16   H5    1.081585 S    
C2    C12   1.455229 S    
C8    H2    1.108984 S    
C19   H6    1.111751 S    
O11   C31   1.411184 S    
C24   C25   1.489923 S    
C15   O12   1.397125 S    
C9    C10   1.550470 S    
Cu2   O6    1.952801 S    
C30   H21   1.110127 S    
C13   C14   1.392902 A    
C11   C12   1.530950 S    
C31   H25   1.112551 S    
C27   C28   1.522321 S    
