data_mof_unit_4518.cif
_audit_creation_date              2012-12-10T17:56:45-0500
_audit_creation_method            fapswitch 2.2
_symmetry_space_group_name_H-M    P1
_symmetry_Int_Tables_number       1
_space_group_crystal_system       triclinic
_cell_length_a                    10.829134
_cell_length_b                    9.53829
_cell_length_c                    10.776892
_cell_angle_alpha                 89.995307
_cell_angle_beta                  90.404838
_cell_angle_gamma                 90.05519
_cell_volume                      1113.13217705

loop_
_atom_site_label
_atom_site_type_symbol
_atom_type_description
_atom_site_fract_x
_atom_site_fract_y
_atom_site_fract_z
_atom_type_partial_charge
C1    C     C_R   0.262131 0.499929 0.499882 0.752098
C2    C     C_R   0.737888 0.500009 0.500141 0.857033
C3    C     C_R   0.936310 0.627458 0.500693 -0.077596
C4    C     C_R   0.064056 0.627412 0.500523 -0.083765
C5    C     C_R   0.422129 0.074275 0.423625 0.530849
C6    C     C_R   0.577809 0.074385 0.576465 0.531057
C7    C     C_R   0.422070 0.925684 0.423691 0.525656
C8    C     C_R   0.577821 0.925756 0.576449 0.522885
C9    C     C_R   0.497393 0.499962 0.262576 0.886636
C10   C     C_R   0.497576 0.500020 0.737391 0.895608
C11   C     C_R   0.287981 0.618283 0.127939 -0.227849
C12   C     C_R   0.289026 0.620768 0.869003 -0.302819
C13   C     C_R   0.189183 0.676787 0.062423 0.636787
C14   C     C_R   0.189764 0.678167 0.933204 0.604627
C15   C     C_R   0.390687 0.562057 0.933642 -0.064471
C16   C     C_R   0.390358 0.561345 0.064750 -0.069657
C17   C     C_R   0.490871 0.499546 0.128812 -0.245270
C18   C     C_R   0.491096 0.499890 0.871051 -0.256535
C19   C     C_R   0.586957 0.434818 0.064720 0.542466
C20   C     C_R   0.586989 0.434833 0.936553 0.586048
C21   C     C_R   0.063782 0.372603 0.499439 -0.120403
C22   C     C_R   0.936052 0.372644 0.499615 -0.084999
C23   C     C_R   0.871787 0.500065 0.500188 -0.043619
C24   C     C_R   0.128287 0.499973 0.499911 -0.055542
Cu1   Cu    Cu3+1 0.500000 0.640660 0.500000 1.083466
Cu2   Cu    Cu3+1 0.500000 0.359340 0.500000 1.116136
N1    N     N_R   0.500000 0.852070 0.500000 -0.341855
N2    N     N_R   0.500000 0.147940 0.500000 -0.345667
O1    O     O_R   0.319640 0.618740 0.499990 -0.568562
O2    O     O_R   0.680360 0.618740 0.500010 -0.552022
O3    O     O_R   0.319620 0.381170 0.499990 -0.555938
O4    O     O_R   0.680380 0.381170 0.500010 -0.536705
O5    O     O_R   0.500000 0.618810 0.319650 -0.549786
O6    O     O_R   0.500000 0.618810 0.680350 -0.542457
O7    O     O_R   0.499970 0.381240 0.319640 -0.508675
O8    O     O_R   0.500030 0.381240 0.680360 -0.519953
F1    F     F_    0.682678 0.374449 0.126961 -0.593800
F2    F     F_    0.682704 0.374392 0.875727 -0.551899
H1    H     H_    0.282244 0.615966 0.228023 0.206607
H2    H     H_    0.284221 0.621013 0.768765 0.174459
F3    F     F_    0.091802 0.730714 0.124802 -0.574324
F4    F     F_    0.092976 0.733534 0.869497 -0.584956
H3    H     H_    0.111710 0.272974 0.498926 0.195768
H4    H     H_    0.887931 0.273025 0.499252 0.197021
H5    H     H_    0.888380 0.727083 0.501210 0.194875
H6    H     H_    0.112207 0.727012 0.500901 0.197230
F5    F     F_    0.343842 0.143785 0.346689 -0.581054
F6    F     F_    0.656035 0.144024 0.653473 -0.540638
F7    F     F_    0.343510 0.856224 0.347004 -0.593087
F8    F     F_    0.656045 0.856246 0.653444 -0.563407

loop_
_geom_bond_atom_site_label_1
_geom_bond_atom_site_label_2
_ccdc_geom_bond_type
C12   H2    S    
C15   C18   A    
C11   H1    S    
C5    C7    A    
Cu2   O4    S    
C13   C14   A    
Cu1   N1    S    
C5    N2    A    
C20   F2    S    
C11   C16   A    
Cu2   N2    S    
C19   C20   A    
C12   C15   A    
C14   F4    S    
Cu1   O6    S    
C2    O2    A    
C13   F3    S    
Cu2   O3    S    
C10   O6    A    
C4    H6    S    
C21   C22   A    
C9    C17   S    
C9    O5    A    
C11   C13   A    
C6    F6    S    
C10   C18   S    
C1    O1    A    
C5    F5    S    
C12   C14   A    
C18   C20   A    
Cu1   O1    S    
C4    C24   A    
C6    N2    A    
C3    C4    A    
C8    F8    S    
Cu2   O7    S    
C1    O3    A    
C7    N1    A    
C7    F7    S    
C1    C24   S    
C2    O4    A    
C21   C24   A    
Cu2   O8    S    
C2    C23   S    
C9    O7    A    
C8    N1    A    
C22   C23   A    
Cu1   O2    S    
C6    C8    A    
C19   F1    S    
C17   C19   A    
Cu1   Cu2   S    
C21   H3    S    
C3    C23   A    
C3    H5    S    
C22   H4    S    
C15   C16   A    
Cu1   O5    S    
C16   C17   A    
C10   O8    A    
