data_mof_unit_3868.cif
_audit_creation_date              2012-12-11T15:32:37-0500
_audit_creation_method            fapswitch 2.2
_symmetry_space_group_name_H-M    P1
_symmetry_Int_Tables_number       1
_space_group_crystal_system       triclinic
_cell_length_a                    6.952508
_cell_length_b                    20.454592
_cell_length_c                    24.379882
_cell_angle_alpha                 89.644388
_cell_angle_beta                  90.577873
_cell_angle_gamma                 89.541932
_cell_volume                      3466.72477237

loop_
_atom_site_label
_atom_site_type_symbol
_atom_type_description
_atom_site_fract_x
_atom_site_fract_y
_atom_site_fract_z
_atom_type_partial_charge
O1    O     O_R   0.507320 0.423560 0.460500 -0.536707
O2    O     O_R   0.170760 0.556250 0.437010 -0.536909
O3    O     O_R   0.004030 0.576440 0.539500 -0.536416
C1    C     C_R   0.338743 0.576423 0.421059 0.724798
O4    O     O_R   0.177370 0.422820 0.454110 -0.537463
O5    O     O_R   0.010680 0.442050 0.556720 -0.535219
C2    C     C_R   0.345769 0.398834 0.443347 0.692068
O6    O     O_R   0.500680 0.557950 0.443280 -0.535186
O7    O     O_3   0.340380 0.506470 0.533650 -0.366289
V1    V     V_3+5 0.064130 0.498800 0.493760 1.423077
O8    O     O_R   0.681160 0.443750 0.562990 -0.537500
C3    C     C_R   0.850934 0.423666 0.578882 0.725481
O9    O     O_R   0.674560 0.577180 0.545890 -0.537685
C4    C     C_R   0.842827 0.601183 0.556417 0.695017
V2    V     V_3+5 0.564560 0.501200 0.506240 1.423294
O10   O     O_3   0.838180 0.493530 0.466350 -0.367194
C5    C     C_R   0.975732 0.838057 0.911420 -0.041654
C6    C     C_R   0.848165 0.661898 0.588551 -0.041869
C7    C     C_R   0.037727 0.721867 0.906430 -0.163649
C8    C     C_R   0.029276 0.779222 0.936706 -0.169531
C9    C     C_R   0.931145 0.839326 0.855035 -0.215295
C10   C     C_R   0.941907 0.781505 0.822799 0.086587
C11   C     C_R   0.995975 0.722491 0.849978 0.141251
C12   C     C_R   0.903615 0.780156 0.764757 0.058366
C13   C     C_R   0.920186 0.719798 0.735216 0.058423
C14   C     C_R   0.973847 0.662836 0.764729 -0.188221
C15   C     C_R   0.010404 0.664346 0.820763 -0.203821
C16   C     C_R   0.849915 0.837115 0.735246 -0.188210
C17   C     C_R   0.813340 0.835603 0.679212 -0.203554
C18   C     C_R   0.827804 0.777460 0.649995 0.141004
C19   C     C_R   0.881914 0.718450 0.677174 0.086609
C20   C     C_R   0.786050 0.778081 0.593543 -0.163212
C21   C     C_R   0.794556 0.720727 0.563265 -0.169133
C22   C     C_R   0.892748 0.660632 0.644935 -0.215255
H1    H     H_    0.051737 0.619249 0.841490 0.120325
H2    H     H_    0.930684 0.613667 0.662276 0.093077
H3    H     H_    0.757941 0.722126 0.519963 0.106130
H4    H     H_    0.771971 0.880698 0.658486 0.120559
H5    H     H_    0.079731 0.676856 0.927145 0.110970
H6    H     H_    0.065901 0.777820 0.980008 0.105725
H7    H     H_    0.893286 0.886297 0.837691 0.093078
H8    H     H_    0.989655 0.615788 0.745717 0.121996
H9    H     H_    0.834070 0.884160 0.754261 0.122026
H10   H     H_    0.744010 0.823089 0.572828 0.111546
C23   C     C_3   0.915673 0.311122 0.769703 -0.138709
C24   C     C_3   0.079419 0.259706 0.776638 -0.137004
H11   H     H_    0.217681 0.267456 0.798744 0.106181
H12   H     H_    0.918371 0.361779 0.785747 0.107548
H13   H     H_    0.179607 0.234836 0.686355 0.105313
C25   C     C_1   0.960634 0.121808 0.875263 -0.194865
C26   C     C_1   0.863687 0.378150 0.624716 -0.195074
C27   C     C_3   0.765686 0.258418 0.784764 -0.137406
C28   C     C_3   0.929211 0.207630 0.791086 0.169624
C29   C     C_3   0.744921 0.240259 0.723347 -0.137018
C30   C     C_3   0.895128 0.292335 0.708899 0.169635
C31   C     C_3   0.908666 0.188844 0.730281 -0.138664
C32   C     C_3   0.058653 0.241547 0.715221 -0.137405
C33   C     C_1   0.947407 0.160322 0.837227 -0.065876
C34   C     C_1   0.876926 0.339641 0.662755 -0.065938
H14   H     H_    0.905968 0.138186 0.714238 0.107669
H15   H     H_    0.606659 0.232509 0.701241 0.106198
H16   H     H_    0.644733 0.265129 0.813630 0.105277
C35   C     C_3   0.489803 0.719123 0.207177 -0.176767
C36   C     C_3   0.294572 0.702008 0.233917 -0.134442
H17   H     H_    0.197185 0.662248 0.220646 0.113259
H18   H     H_    0.553746 0.693587 0.171608 0.115755
H19   H     H_    0.099273 0.796864 0.222877 0.118318
C37   C     C_1   0.348600 0.622109 0.375132 -0.195899
C38   C     C_1   0.475558 0.878090 0.124987 -0.194868
C39   C     C_3   0.583905 0.724355 0.265060 -0.142714
C40   C     C_3   0.388623 0.707957 0.291193 0.135298
C41   C     C_3   0.528125 0.797552 0.266247 0.208034
C42   C     C_3   0.435711 0.792381 0.209059 0.157456
C43   C     C_3   0.334276 0.781181 0.293304 -0.141325
C44   C     C_3   0.240810 0.775802 0.235346 -0.172720
C45   C     C_1   0.364093 0.660661 0.337173 -0.055307
C46   C     C_1   0.460055 0.839607 0.162985 -0.051777
H20   H     H_    0.270918 0.806902 0.328872 0.113146
H21   H     H_    0.725866 0.703523 0.277481 0.114926
C47   C     C_R   0.473382 0.162381 0.088468 -0.048360
C48   C     C_R   0.347159 0.338176 0.410703 -0.048386
C49   C     C_R   0.558095 0.276457 0.095087 -0.165984
C50   C     C_R   0.543379 0.219469 0.064520 -0.165298
C51   C     C_R   0.414112 0.163274 0.143500 -0.229761
C52   C     C_R   0.415216 0.222028 0.174631 0.090897
C53   C     C_R   0.499843 0.277731 0.150032 0.140433
C54   C     C_R   0.349002 0.226367 0.230391 0.034985
C55   C     C_R   0.402239 0.282192 0.262846 0.022543
C56   C     C_R   0.492901 0.335056 0.236423 -0.174909
C57   C     C_R   0.533632 0.333632 0.180864 -0.203729
C58   C     C_R   0.228245 0.178579 0.254992 0.146663
C59   C     C_R   0.204116 0.178044 0.311792 -0.209061
C60   C     C_R   0.268559 0.229256 0.344437 0.097334
C61   C     C_R   0.359726 0.283947 0.320401 0.083218
C62   C     C_R   0.227377 0.228177 0.400666 -0.154696
C63   C     C_R   0.264702 0.282251 0.433247 -0.161880
C64   C     C_R   0.398710 0.338608 0.354959 -0.204244
H22   H     H_    0.600708 0.375942 0.162357 0.120464
H23   H     H_    0.458511 0.383402 0.339477 0.094154
H24   H     H_    0.221667 0.281491 0.475846 0.104748
H25   H     H_    0.119731 0.139450 0.330270 0.130169
H26   H     H_    0.619837 0.319364 0.076048 0.111385
H27   H     H_    0.592317 0.219350 0.022461 0.106770
H28   H     H_    0.379550 0.116939 0.162031 0.122939
H29   H     H_    0.533658 0.378970 0.257493 0.122421
H30   H     H_    0.157524 0.186360 0.419072 0.110743
O11   O     O_R   0.323550 0.942140 0.056770 -0.535295
O12   O     O_R   0.647080 0.077200 0.045890 -0.538347
O13   O     O_R   0.813610 0.057920 0.943260 -0.535188
C65   C     C_R   0.478489 0.101127 0.056746 0.694095
O14   O     O_R   0.653470 0.943760 0.063000 -0.536646
O15   O     O_R   0.820050 0.923540 0.960490 -0.536491
C66   C     C_R   0.485464 0.923680 0.079004 0.724561
O16   O     O_R   0.317110 0.076520 0.039540 -0.536049
O17   O     O_3   0.483830 0.993580 0.966380 -0.366365
V3    V     V_3+5 0.760140 0.001190 0.006240 1.422630
O18   O     O_R   0.149510 0.922740 0.954070 -0.537938
C67   C     C_R   0.981193 0.898772 0.943553 0.694678
O19   O     O_R   0.143120 0.056170 0.936970 -0.537467
C68   C     C_R   0.973363 0.076287 0.921094 0.725660
V4    V     V_3+5 0.259690 0.998700 0.993700 1.423704
O20   O     O_3   0.986130 0.006420 0.033620 -0.366856
C69   C     C_3   0.661609 0.851727 0.284870 -0.820834
H31   H     H_    0.708185 0.842582 0.327926 0.210166
H32   H     H_    0.789882 0.853021 0.258188 0.209239
H33   H     H_    0.585067 0.899474 0.282193 0.213459
C70   C     C_3   0.094570 0.134688 0.222952 -0.788215
H34   H     H_    0.067727 0.153121 0.180665 0.220332
H35   H     H_    0.151882 0.083881 0.222654 0.200345
H36   H     H_    0.950686 0.133681 0.242416 0.211970

loop_
_geom_bond_atom_site_label_1
_geom_bond_atom_site_label_2
_ccdc_geom_bond_type
C13   C19   A    
C18   C20   A    
C54   C55   A    
C60   C61   A    
O17   V4    S    
C54   C58   A    
C4    C6    S    
C38   C46   T    
C62   C63   A    
C47   C51   A    
C49   C53   A    
C69   H31   S    
C52   C53   A    
C38   C66   S    
C14   C15   A    
V3    O20   S    
C25   C68   S    
C7    H5    S    
C16   C17   A    
C30   C34   S    
O5    C3    A    
C40   C45   S    
C8    H6    S    
C69   H32   S    
O17   V3    S    
C5    C8    A    
H13   C32   S    
C31   C32   S    
C36   C40   S    
O18   V4    S    
O11   C66   A    
O13   V3    S    
C24   H11   S    
O16   V4    S    
O8    V2    S    
C7    C8    A    
C17   H4    S    
O14   V3    S    
O1    V2    S    
C11   C15   A    
O7    V1    S    
C65   O16   A    
C1    O6    A    
C52   C54   A    
C35   H18   S    
C60   C62   A    
O9    C4    A    
C42   C44   S    
C47   C50   A    
C64   H23   S    
C27   C29   S    
C55   C61   A    
O19   V4    S    
C20   H10   S    
C29   C31   S    
C43   C44   S    
C50   H27   S    
C25   C33   T    
C12   C13   A    
C41   C43   S    
C53   C57   A    
C58   C59   A    
C1    C37   S    
C48   C63   A    
C69   H33   S    
C35   C42   S    
C23   C27   S    
C15   H1    S    
C13   C14   A    
C23   C24   S    
C21   H3    S    
C31   H14   S    
C23   H12   S    
C7    C11   A    
C70   H35   S    
C17   C18   A    
C62   H30   S    
C35   C39   S    
O8    C3    A    
C49   H26   S    
C19   C22   A    
O14   C66   A    
C51   C52   A    
O19   C68   A    
C6    C22   A    
V4    O20   S    
C39   C40   S    
O3    C4    A    
C58   C70   S    
C5    C67   S    
C9    H7    S    
C59   H25   S    
C2    C48   S    
O6    V2    S    
O9    V2    S    
C41   C69   S    
C51   H28   S    
C10   C12   A    
C26   C34   T    
O11   V4    S    
C56   H29   S    
C70   H34   S    
O2    V1    S    
O15   V3    S    
C3    C26   S    
C27   C28   S    
C14   H8    S    
O4    C2    A    
C28   C31   S    
C29   C30   S    
C39   H21   S    
O1    C2    A    
C12   C16   A    
C41   C42   S    
O5    V1    S    
C40   C43   S    
C39   C41   S    
C28   C33   S    
C29   H15   S    
C37   C45   T    
C16   H9    S    
C61   C64   A    
C20   C21   A    
O12   V3    S    
C30   C32   S    
O7    V2    S    
C70   H36   S    
O4    V1    S    
C24   C32   S    
O3    V1    S    
C27   H16   S    
O18   C67   A    
C36   H17   S    
O15   C67   A    
C18   C19   A    
C48   C64   A    
O2    C1    A    
C63   H24   S    
C24   C28   S    
C59   C60   A    
C36   C44   S    
O12   C65   A    
C22   H2    S    
C6    C21   A    
C5    C9    A    
C35   C36   S    
H19   C44   S    
C55   C56   A    
C23   C30   S    
C49   C50   A    
C43   H20   S    
C47   C65   S    
C42   C46   S    
C10   C11   A    
V1    O10   S    
C56   C57   A    
C9    C10   A    
C57   H22   S    
V2    O10   S    
O13   C68   A    
