data_mof_unit_2499.cif
_audit_creation_date              2012-10-26T20:12:47-0400
_audit_creation_method            fapswitch 2.2
_symmetry_space_group_name_H-M    P1
_symmetry_Int_Tables_number       1
_space_group_crystal_system       triclinic
_cell_length_a                    15.144006
_cell_length_b                    13.845938
_cell_length_c                    10.922632
_cell_angle_alpha                 89.984049
_cell_angle_beta                  90.002313
_cell_angle_gamma                 90.053119
_cell_volume                      2290.28882288

loop_
_atom_site_label
_atom_site_type_symbol
_atom_type_description
_atom_site_fract_x
_atom_site_fract_y
_atom_site_fract_z
_atom_type_partial_charge
C1    C     C_R   0.329849 0.499950 0.502538 0.621133
C2    C     C_R   0.428430 0.791002 0.457182 0.044507
C3    C     C_R   0.428422 0.208900 0.542877 0.052928
C4    C     C_R   0.571575 0.791081 0.542895 0.053031
C5    C     C_R   0.500000 0.054449 0.500134 0.022543
C6    C     C_R   0.500001 0.945550 0.500134 0.022536
C7    C     C_R   0.500038 0.500017 0.262116 0.692300
C8    C     C_R   0.500027 0.499985 0.737325 0.627660
C9    C     C_R   0.657215 0.562048 0.121162 0.171813
C10   C     C_R   0.336931 0.479795 0.872435 0.165796
C11   C     C_R   0.663129 0.519894 0.872463 0.165786
C12   C     C_R   0.670152 0.500049 0.502501 0.620583
C13   C     C_R   0.342754 0.438291 0.121305 0.171872
C14   C     C_R   0.731043 0.590918 0.050060 0.272097
C15   C     C_R   0.264657 0.433827 0.927416 0.337291
C16   C     C_R   0.735429 0.565885 0.927327 0.337323
C17   C     C_R   0.268982 0.409160 0.050287 0.272132
C18   C     C_R   0.580342 0.514979 0.934571 -0.089885
C19   C     C_R   0.421470 0.472743 0.062988 -0.044990
C20   C     C_R   0.578546 0.527370 0.062941 -0.045062
C21   C     C_R   0.419698 0.484916 0.934572 -0.089821
C22   C     C_R   0.500022 0.499946 0.870965 0.001803
C23   C     C_R   0.048671 0.499331 0.523734 0.045374
C24   C     C_R   0.500011 0.500069 0.127854 0.035710
C25   C     C_R   0.096696 0.582663 0.554808 -0.100452
C26   C     C_R   0.903310 0.417246 0.554601 -0.100546
C27   C     C_R   0.905699 0.584483 0.488592 -0.104418
C28   C     C_R   0.094303 0.415555 0.488395 -0.104512
C29   C     C_R   0.188281 0.583200 0.546477 -0.100410
C30   C     C_R   0.811725 0.416722 0.546257 -0.100400
C31   C     C_R   0.814048 0.584780 0.483975 -0.144670
C32   C     C_R   0.185954 0.415263 0.483791 -0.144685
C33   C     C_R   0.233425 0.499632 0.510345 0.030561
C34   C     C_R   0.951333 0.500638 0.523731 0.045366
C35   C     C_R   0.766578 0.500357 0.510312 0.030468
C36   C     C_R   0.573278 0.107286 0.457817 -0.137243
C37   C     C_R   0.426726 0.892732 0.457798 -0.137247
C38   C     C_R   0.426714 0.107159 0.542386 -0.137488
C39   C     C_R   0.573283 0.892822 0.542405 -0.137484
C40   C     C_R   0.571573 0.209016 0.457200 0.044485
Cu1   Cu    Cu3+1 0.500000 0.596430 0.500000 1.007808
Cu2   Cu    Cu3+1 0.500000 0.403570 0.500000 1.007673
H1    H     H_    0.063653 0.647560 0.585547 0.117805
H2    H     H_    0.368971 0.929858 0.423235 0.100841
H3    H     H_    0.368953 0.069947 0.576972 0.100682
H4    H     H_    0.631042 0.930019 0.577005 0.100677
H5    H     H_    0.628022 0.247865 0.421928 0.124239
H6    H     H_    0.371984 0.752168 0.421896 0.124280
H7    H     H_    0.371988 0.247670 0.578132 0.129714
H8    H     H_    0.628006 0.752293 0.578162 0.129708
H9    H     H_    0.217598 0.325615 0.174303 0.324911
H10   H     H_    0.804958 0.570179 0.776749 0.358478
H11   H     H_    0.195247 0.429015 0.776759 0.358389
H12   H     H_    0.936353 0.352291 0.585188 0.117775
H13   H     H_    0.782320 0.675029 0.173479 0.324908
H14   H     H_    0.724834 0.552362 0.269567 0.319680
H15   H     H_    0.349994 0.591301 0.770712 0.335408
H16   H     H_    0.649878 0.408287 0.771017 0.335485
H17   H     H_    0.274972 0.448859 0.269429 0.319633
H18   H     H_    0.940627 0.649377 0.461872 0.117188
H19   H     H_    0.059374 0.350716 0.461507 0.117237
H20   H     H_    0.223788 0.648595 0.569864 0.132017
H21   H     H_    0.776222 0.351281 0.569485 0.132126
H22   H     H_    0.780481 0.650337 0.456420 0.130100
H23   H     H_    0.219523 0.349766 0.456064 0.130169
H24   H     H_    0.631035 0.070176 0.423269 0.100833
N1    N     N_R   0.500000 0.258690 0.500000 -0.228519
N2    N     N_R   0.500000 0.741310 0.500000 -0.228456
O1    O     O_R   0.371460 0.581430 0.500010 -0.521878
O2    O     O_3   0.813186 0.583968 0.864979 -0.618128
O3    O     O_3   0.186952 0.415509 0.865058 -0.618110
O4    O     O_3   0.802271 0.639404 0.099849 -0.641745
O5    O     O_3   0.662968 0.566282 0.246370 -0.703770
O6    O     O_3   0.322461 0.526566 0.763484 -0.727643
O7    O     O_3   0.677570 0.472934 0.763660 -0.727613
O8    O     O_3   0.336846 0.434682 0.246525 -0.703982
O9    O     O_R   0.628540 0.418570 0.499990 -0.521866
O10   O     O_R   0.628540 0.581430 0.499990 -0.483965
O11   O     O_R   0.371460 0.418570 0.500010 -0.483771
O12   O     O_R   0.499990 0.581440 0.319660 -0.456778
O13   O     O_R   0.500010 0.418560 0.680340 -0.498999
O14   O     O_R   0.500010 0.581440 0.680340 -0.499194
O15   O     O_R   0.499990 0.418560 0.319660 -0.457425
O16   O     O_3   0.197731 0.360829 0.100284 -0.641704

loop_
_geom_bond_atom_site_label_1
_geom_bond_atom_site_label_2
_ccdc_geom_bond_type
C40   H5    S    
C7    O15   A    
C11   C18   A    
Cu1   Cu2   S    
C25   H1    S    
Cu1   O12   S    
C3    H7    S    
C1    C33   S    
C30   C35   A    
C8    O14   A    
C21   C22   A    
C19   C21   A    
C2    N2    A    
C27   H18   S    
C5    C6    S    
C36   H24   S    
C7    C24   S    
C5    C36   A    
C29   C33   A    
C38   H3    S    
C26   C34   A    
C20   C24   A    
C3    C38   A    
C40   N1    A    
C12   O10   A    
C8    C22   S    
C4    C39   A    
H13   O4    S    
C28   H19   S    
Cu2   O11   S    
C27   C34   A    
C5    C38   A    
Cu2   O13   S    
C9    O5    S    
C26   H12   S    
H16   O7    S    
Cu1   N2    S    
C10   C21   A    
C25   C29   A    
C13   C19   A    
C27   C31   A    
C8    O13   A    
C36   C40   A    
C16   O2    S    
Cu1   O10   S    
C4    N2    A    
C2    H6    S    
C1    O1    A    
C4    H8    S    
H15   O6    S    
C9    C14   A    
C11   C16   A    
C9    C20   A    
C13   O8    S    
C28   C32   A    
C23   C34   S    
C12   O9    A    
C6    C37   A    
C23   C28   A    
C12   C35   S    
C39   H4    S    
C26   C30   A    
Cu2   N1    S    
C1    O11   A    
C14   C16   A    
H11   O3    S    
Cu1   O1    S    
C15   C17   A    
C29   H20   S    
H14   O5    S    
C18   C22   A    
C14   O4    S    
C31   H22   S    
C3    N1    A    
Cu2   O15   S    
C15   O3    S    
C13   C17   A    
C10   C15   A    
C17   O16   S    
C32   C33   A    
C37   H2    S    
C19   C24   A    
C11   O7    S    
C10   O6    S    
C2    C37   A    
Cu1   O14   S    
H9    O16   S    
C31   C35   A    
C18   C20   A    
C23   C25   A    
H10   O2    S    
Cu2   O9    S    
C6    C39   A    
C32   H23   S    
C30   H21   S    
H17   O8    S    
C7    O12   A    
