data_mof_unit_3677.cif
_audit_creation_date              2012-12-11T15:31:34-0500
_audit_creation_method            fapswitch 2.2
_symmetry_space_group_name_H-M    P1
_symmetry_Int_Tables_number       1
_space_group_crystal_system       triclinic
_cell_length_a                    6.958035
_cell_length_b                    14.723079
_cell_length_c                    21.303468
_cell_angle_alpha                 74.831419
_cell_angle_beta                  89.986748
_cell_angle_gamma                 90.328438
_cell_volume                      2106.3333126

loop_
_atom_site_label
_atom_site_type_symbol
_atom_type_description
_atom_site_fract_x
_atom_site_fract_y
_atom_site_fract_z
_atom_type_partial_charge
O1    O     O_R   0.648150 0.130050 0.214300 -0.538032
O2    O     O_R   0.351850 0.869950 0.785700 -0.535683
O3    O     O_R   0.320490 0.006660 0.340150 -0.525471
O4    O     O_R   0.679510 0.993340 0.659850 -0.524428
O5    O     O_R   0.146100 0.869940 0.285700 -0.530521
O6    O     O_R   0.853900 0.130060 0.714300 -0.520809
C1    C     C_R   0.488541 0.002769 0.366784 0.880992
C2    C     C_R   0.511377 0.997196 0.633234 0.866718
O7    O     O_R   0.318690 0.137980 0.218120 -0.543471
O8    O     O_R   0.681310 0.862020 0.781880 -0.542548
O9    O     O_R   0.144280 0.002190 0.162800 -0.551266
O10   O     O_R   0.855720 0.997810 0.837200 -0.549207
C3    C     C_R   0.487942 0.175695 0.205814 0.768826
C4    C     C_R   0.512056 0.824300 0.794179 0.775504
O11   O     O_R   0.649960 0.997790 0.337200 -0.513102
O12   O     O_R   0.350040 0.002210 0.662800 -0.525549
O13   O     O_3   0.479300 0.955290 0.231990 -0.386040
O14   O     O_3   0.520700 0.044710 0.768010 -0.383375
V1    V     V_3+5 0.206040 0.008290 0.253340 1.618587
V2    V     V_3+5 0.793960 0.991710 0.746660 1.607390
O15   O     O_R   0.814320 0.993320 0.159850 -0.554750
O16   O     O_R   0.185680 0.006680 0.840150 -0.550065
C5    C     C_R   0.982914 0.998357 0.132891 0.683403
C6    C     C_R   0.017085 0.001667 0.867101 0.699398
O17   O     O_R   0.816120 0.862000 0.281880 -0.531623
O18   O     O_R   0.183880 0.138000 0.718120 -0.547341
C7    C     C_R   0.984782 0.824211 0.293721 0.886165
C8    C     C_R   0.015529 0.175594 0.704867 0.805128
V3    V     V_3+5 0.705540 0.991700 0.246660 1.600932
V4    V     V_3+5 0.294460 0.008300 0.753340 1.570715
O19   O     O_3   0.982150 0.044700 0.268010 -0.351732
O20   O     O_3   0.017850 0.955300 0.731990 -0.350602
C9    C     C_R   0.995022 0.721671 0.319774 -0.173988
C10   C     C_R   0.006082 0.277907 0.676503 -0.241143
C11   C     C_R   0.068515 0.565919 0.306750 0.482814
C12   C     C_R   0.932524 0.434232 0.688727 0.471389
C13   C     C_R   0.065953 0.664919 0.281519 0.203684
C14   C     C_R   0.942565 0.335748 0.715136 0.248811
C15   C     C_R   0.937291 0.681688 0.383927 0.291504
C16   C     C_R   0.047953 0.316948 0.609871 0.311836
C17   C     C_R   0.980834 0.585907 0.414245 -0.102872
C18   C     C_R   0.000236 0.412291 0.580172 -0.029178
C19   C     C_R   0.024051 0.525790 0.373523 -0.097408
C20   C     C_R   0.964741 0.473234 0.621077 -0.128266
C21   C     C_R   0.983998 0.548373 0.483459 -0.008999
C22   C     C_R   0.994268 0.449825 0.510812 0.046302
C23   C     C_R   0.989040 0.391637 0.467854 -0.085309
C24   C     C_R   0.989957 0.607058 0.525904 -0.171908
C25   C     C_R   0.016117 0.427272 0.401227 0.493057
C26   C     C_R   0.969503 0.571805 0.592777 0.514771
H1    H     H_    0.962078 0.317080 0.484906 0.241497
H2    H     H_    0.011801 0.682017 0.507791 0.238064
C27   C     C_3   0.921752 0.920477 0.991620 -0.134582
C28   C     C_3   0.078244 0.079581 0.008360 -0.131261
C29   C     C_3   0.097357 0.925626 0.035352 -0.105679
C30   C     C_3   0.902644 0.074433 0.964622 -0.103145
H3    H     H_    0.177852 0.864397 0.064868 0.162810
H4    H     H_    0.822256 0.135662 0.935042 0.160264
H5    H     H_    0.857067 0.854912 0.984282 0.126469
H6    H     H_    0.142925 0.145146 0.015697 0.126238
C31   C     C_3   0.991508 0.998930 0.062238 -0.012123
C32   C     C_3   0.008491 0.001122 0.937744 -0.016783
C33   C     C_3   0.815647 0.993801 0.019301 -0.133416
C34   C     C_3   0.184346 0.006259 0.980677 -0.132551
H7    H     H_    0.663361 0.988599 0.035496 0.118707
H8    H     H_    0.336632 0.011459 0.964482 0.118894
C35   C     C_3   0.671724 0.024992 0.473411 0.419631
C36   C     C_3   0.327722 0.975012 0.526654 0.415531
C37   C     C_3   0.546264 0.084627 0.506628 0.348589
C38   C     C_3   0.453037 0.915326 0.493438 0.361549
C39   C     C_3   0.505171 0.997066 0.562949 -0.312029
C40   C     C_3   0.494332 0.002884 0.437094 -0.307155
C41   C     C_3   0.632376 0.936427 0.530205 -0.229693
C42   C     C_3   0.367042 0.063509 0.469843 -0.236241
H9    H     H_    0.733977 0.881137 0.555258 0.256894
H10   H     H_    0.265470 0.118810 0.444788 0.258307
C43   C     C_R   0.499974 0.277890 0.179184 -0.222764
C44   C     C_R   0.500156 0.722116 0.820912 -0.224556
C45   C     C_R   0.546835 0.435200 0.192141 0.398737
C46   C     C_R   0.454200 0.564654 0.808148 0.396633
C47   C     C_R   0.536938 0.337522 0.219363 0.379595
C48   C     C_R   0.462084 0.662364 0.780896 0.375569
C49   C     C_R   0.481334 0.314813 0.112157 -0.210806
C50   C     C_R   0.520735 0.685281 0.887886 -0.210387
C51   C     C_R   0.508538 0.411718 0.082505 0.060631
C52   C     C_R   0.494270 0.588365 0.917664 0.060055
C53   C     C_R   0.524451 0.472604 0.124047 -0.091406
C54   C     C_R   0.478122 0.527380 0.876192 -0.091013
C55   C     C_R   0.510267 0.450212 0.013206 0.003945
C56   C     C_R   0.493328 0.549947 0.986984 0.003803
C57   C     C_R   0.470890 0.607295 0.030961 0.337022
C58   C     C_R   0.533191 0.392877 0.969258 0.336400
C59   C     C_R   0.503699 0.569332 0.097541 -0.178098
C60   C     C_R   0.499962 0.430715 0.902700 -0.174878
H11   H     H_    0.497500 0.615937 0.129201 0.203637
H12   H     H_    0.506350 0.384076 0.871067 0.202004
H13   H     H_    0.565889 0.733847 0.915154 0.176483
H14   H     H_    0.436896 0.266336 0.084723 0.176364
Cl1   Cl    Cl    0.026702 0.342340 0.356079 -0.403714
Cl2   Cl    Cl    0.965141 0.657643 0.637325 -0.400859
Cl3   Cl    Cl    0.893308 0.065007 0.434194 -0.505866
Cl4   Cl    Cl    0.106048 0.935277 0.565918 -0.509268
Cl5   Cl    Cl    0.434806 0.709966 0.696104 -0.442356
Cl6   Cl    Cl    0.559927 0.289818 0.304292 -0.445711
Cl7   Cl    Cl    0.590255 0.509280 0.244191 -0.533591
Cl8   Cl    Cl    0.411629 0.490352 0.756192 -0.527322
O21   O     O_3   0.402193 0.698105 0.009465 -0.657655
H15   H     H_    0.392537 0.727344 0.046322 0.299833
O22   O     O_3   0.602683 0.302219 0.990780 -0.657363
H16   H     H_    0.612569 0.272962 0.953939 0.298465
O23   O     O_3   0.147564 0.266595 0.573835 -0.612165
H17   H     H_    0.176605 0.202149 0.599662 0.314257
O24   O     O_3   0.829048 0.736677 0.413884 -0.620029
H18   H     H_    0.736269 0.694840 0.443358 0.337880
Cl9   Cl    Cl    0.878885 0.283649 0.797435 -0.685134
Cl10  Cl    Cl    0.145458 0.718863 0.201268 -0.699024
O25   O     O_3   0.124082 0.507955 0.268484 -0.560438
H19   H     H_    0.116817 0.541746 0.221919 0.357973
O26   O     O_3   0.881112 0.492784 0.727077 -0.558420
H20   H     H_    0.900582 0.461031 0.773563 0.359734
Cl11  Cl    Cl    0.607790 0.197977 0.515968 -0.542601
Cl12  Cl    Cl    0.389272 0.802036 0.484418 -0.545622

loop_
_geom_bond_atom_site_label_1
_geom_bond_atom_site_label_2
_ccdc_geom_bond_type
C33   H7    S    
O13   V3    S    
C27   C29   S    
O23   H17   S    
O4    C2    A    
V1    O19   S    
C45   C53   A    
C27   H5    S    
C23   C25   A    
C13   Cl10  S    
C28   H6    S    
C21   C22   A    
C7    C9    S    
O9    V1    S    
C9    C15   A    
C42   H10   S    
C10   C16   A    
C50   H13   S    
C11   C13   A    
C50   C52   A    
O3    C1    A    
C52   C54   A    
C58   O22   S    
C57   C59   A    
C54   C60   A    
C43   C49   A    
C36   C42   S    
C46   Cl8   S    
C45   Cl7   S    
C31   C33   S    
C35   C40   S    
C18   C22   A    
C37   C39   S    
C12   O26   S    
C38   Cl12  S    
O7    C3    A    
O5    C7    A    
O7    V1    S    
O6    C8    A    
C5    C31   S    
O8    V2    S    
C15   O24   S    
C49   H14   S    
C32   C34   S    
C48   Cl5   S    
O3    V1    S    
C35   C41   S    
C37   Cl11  S    
C11   C19   A    
C17   C19   A    
C30   C32   S    
C24   C26   A    
C8    C10   S    
C2    O12   A    
C41   H9    S    
C18   C20   A    
O1    V3    S    
O11   V3    S    
C16   O23   S    
C3    C43   S    
C51   C53   A    
O17   V3    S    
C28   C30   S    
C57   O21   S    
C46   C48   A    
C52   C56   A    
C1    C40   S    
C39   C41   S    
C51   C55   A    
C19   C25   A    
C23   H1    S    
C1    O11   A    
O15   V3    S    
C9    C13   A    
C35   C37   S    
C34   H8    S    
C25   Cl1   S    
C27   C32   S    
C44   C48   A    
C43   C47   A    
O21   H15   S    
C29   C34   S    
O10   V2    S    
C38   C41   S    
C58   C60   A    
C30   C33   S    
C37   C42   S    
C55   C58   A    
C60   H12   S    
O14   V4    S    
C40   C42   S    
C49   C51   A    
O18   V4    S    
C29   H3    S    
O8    C4    A    
O16   C6    A    
C11   O25   S    
O1    C3    A    
C29   C31   S    
C12   C14   A    
C35   Cl3   S    
C45   C47   A    
O24   H18   S    
V2    O20   S    
C21   C24   A    
C20   C26   A    
C22   C23   A    
C2    C39   S    
C6    C32   S    
O16   V4    S    
C10   C14   A    
O18   C8    A    
C36   Cl4   S    
C16   C18   A    
O26   H20   S    
O5    V1    S    
C28   C31   S    
O17   C7    A    
O6    V2    S    
O10   C6    A    
C26   Cl2   S    
O2    V4    S    
O15   C5    A    
V3    O19   S    
O22   H16   S    
V4    O20   S    
C14   Cl9   S    
C27   C33   S    
C56   C57   A    
C59   H11   S    
C28   C34   S    
C36   C39   S    
C53   C59   A    
O9    C5    A    
O13   V1    S    
C30   H4    S    
O14   V2    S    
C4    C44   S    
O2    C4    A    
C12   C20   A    
O4    V2    S    
C44   C50   A    
C24   H2    S    
C15   C17   A    
C46   C54   A    
C36   C38   S    
C17   C21   A    
C38   C40   S    
C55   C56   A    
O25   H19   S    
O12   V4    S    
C47   Cl6   S    
