data_mof_unit_2485.cif
_audit_creation_date              2012-12-11T15:12:40-0500
_audit_creation_method            fapswitch 2.2
_symmetry_space_group_name_H-M    P1
_symmetry_Int_Tables_number       1
_space_group_crystal_system       triclinic
_cell_length_a                    22.354048
_cell_length_b                    7.090687
_cell_length_c                    19.431322
_cell_angle_alpha                 89.999738
_cell_angle_beta                  99.100384
_cell_angle_gamma                 89.999911
_cell_volume                      3041.20413329

loop_
_atom_site_label
_atom_site_type_symbol
_atom_type_description
_atom_site_fract_x
_atom_site_fract_y
_atom_site_fract_z
_atom_type_partial_charge
O1    O     O_R   0.448420 0.506120 0.415750 -0.537790
O2    O     O_R   0.551580 0.006120 0.584250 -0.537791
O3    O     O_R   0.436490 0.174470 0.555610 -0.539419
O4    O     O_R   0.563510 0.674470 0.444390 -0.539418
C1    C     C_R   0.421130 0.345943 0.575207 0.703183
C2    C     C_R   0.578870 0.845944 0.424793 0.703184
O5    O     O_R   0.441310 0.176330 0.414520 -0.540187
O6    O     O_R   0.558690 0.676330 0.585480 -0.540185
O7    O     O_R   0.556430 0.007110 0.442150 -0.531699
O8    O     O_R   0.443570 0.507110 0.557850 -0.531698
C3    C     C_R   0.426763 0.345030 0.389296 0.791430
C4    C     C_R   0.573237 0.845029 0.610704 0.791433
O9    O     O_3   0.537770 0.339560 0.509230 -0.374425
O10   O     O_3   0.462230 0.839560 0.490770 -0.374426
V1    V     V_3+5 0.492990 0.064280 0.498290 1.419028
V2    V     V_3+5 0.507010 0.564280 0.501710 1.419032
C5    C     C_R   0.868870 0.930948 0.697770 0.494122
C6    C     C_R   0.131128 0.430900 0.302230 0.494122
H1    H     H_    0.952035 0.997227 0.765043 0.142787
H2    H     H_    0.047962 0.497182 0.234958 0.142787
C7    C     C_R   0.881143 0.938873 0.824568 -0.209356
C8    C     C_R   0.118856 0.438867 0.175432 -0.209356
C9    C     C_R   0.587299 0.872119 0.738315 0.318604
C10   C     C_R   0.412700 0.372136 0.261686 0.318604
C11   C     C_R   0.620082 0.951616 0.798747 0.357614
C12   C     C_R   0.379916 0.451638 0.201255 0.357619
C13   C     C_R   0.682832 0.982896 0.802997 0.126271
C14   C     C_R   0.317166 0.482913 0.197005 0.126273
C15   C     C_R   0.713879 0.918114 0.748840 0.062176
C16   C     C_R   0.286120 0.418116 0.251162 0.062174
C17   C     C_R   0.678006 0.870307 0.683845 -0.086810
C18   C     C_R   0.321994 0.370302 0.316155 -0.086808
C19   C     C_R   0.778902 0.914246 0.755235 -0.045285
C20   C     C_R   0.221097 0.414237 0.244766 -0.045286
C21   C     C_R   0.805746 0.901352 0.693589 -0.041302
C22   C     C_R   0.194252 0.401319 0.306410 -0.041291
C23   C     C_R   0.769169 0.849438 0.630046 0.217312
C24   C     C_R   0.230830 0.349395 0.369952 0.217307
C25   C     C_R   0.706473 0.833304 0.626164 -0.212290
C26   C     C_R   0.293527 0.333282 0.373835 -0.212302
C27   C     C_R   0.817485 0.903862 0.821298 0.461028
C28   C     C_R   0.182514 0.403865 0.178702 0.461029
C29   C     C_R   0.904467 0.963441 0.762714 -0.343980
C30   C     C_R   0.095532 0.463409 0.237287 -0.343982
C31   C     C_R   0.614113 0.856821 0.678265 -0.242617
C32   C     C_R   0.385887 0.356825 0.321736 -0.242619
H3    H     H_    0.680131 0.789357 0.577125 0.103277
H4    H     H_    0.319869 0.289334 0.422874 0.103286
C33   C     C_3   0.792526 0.691018 0.240576 -0.098171
C34   C     C_3   0.207474 0.191019 0.759425 -0.098171
C35   C     C_3   0.807219 0.029856 0.266844 -0.478702
C36   C     C_3   0.192782 0.529857 0.733157 -0.478702
C37   C     C_3   0.756937 0.039724 0.313821 0.248763
C38   C     C_3   0.243064 0.539725 0.686180 0.248767
H5    H     H_    0.840529 0.666452 0.265022 0.106741
H6    H     H_    0.159471 0.166455 0.734979 0.106740
H7    H     H_    0.818240 0.170291 0.248764 0.155843
H8    H     H_    0.181761 0.670293 0.751236 0.155843
H9    H     H_    0.851006 0.985794 0.298298 0.180268
H10   H     H_    0.148995 0.485796 0.701703 0.180268
H11   H     H_    0.735450 0.177022 0.303808 0.139512
H12   H     H_    0.264552 0.677021 0.696194 0.139513
C39   C     C_1   0.625070 0.862988 0.380043 -0.243355
C40   C     C_1   0.374930 0.362988 0.619958 -0.243354
C41   C     C_3   0.790836 0.890760 0.205028 0.082365
C42   C     C_3   0.209165 0.390761 0.794972 0.082365
C43   C     C_3   0.750252 0.683581 0.300687 0.614565
C44   C     C_3   0.249749 0.183581 0.699315 0.614565
C45   C     C_3   0.709693 0.874166 0.293536 -0.047657
C46   C     C_3   0.290308 0.374165 0.706465 -0.047659
C47   C     C_3   0.675723 0.892765 0.212236 0.537775
C48   C     C_3   0.324279 0.392762 0.787765 0.537773
C49   C     C_3   0.725603 0.941690 0.163646 0.362488
C50   C     C_3   0.274398 0.441689 0.836355 0.362486
C51   C     C_1   0.663426 0.874566 0.341858 0.025913
C52   C     C_1   0.336575 0.374565 0.658143 0.025916
C53   C     C_1   0.838200 0.911016 0.158914 0.023750
C54   C     C_1   0.161800 0.411017 0.841087 0.023751
C55   C     C_1   0.876349 0.932828 0.121436 -0.210264
C56   C     C_1   0.123652 0.432829 0.878564 -0.210264
O11   O     O_R   0.056480 0.288780 0.942210 -0.538396
O12   O     O_R   0.943520 0.788780 0.057790 -0.538398
O13   O     O_R   0.058700 0.616820 0.085490 -0.538548
O14   O     O_R   0.941300 0.116820 0.914510 -0.538547
C57   C     C_R   0.074255 0.447918 0.110222 0.726806
C58   C     C_R   0.925745 0.947919 0.889778 0.726805
O15   O     O_R   0.063520 0.618570 0.944410 -0.537607
O16   O     O_R   0.936480 0.118570 0.055590 -0.537606
O17   O     O_R   0.948420 0.787670 0.915740 -0.532265
O18   O     O_R   0.051580 0.287670 0.084260 -0.532264
C59   C     C_R   0.077791 0.449295 0.923379 0.693541
C60   C     C_R   0.922209 0.949294 0.076620 0.693540
O19   O     O_3   0.962260 0.453430 0.990800 -0.369385
O20   O     O_3   0.037740 0.953430 0.009200 -0.369384
V3    V     V_3+5 0.007000 0.728750 0.001710 1.425299
V4    V     V_3+5 0.993000 0.228750 0.998290 1.425303
O21   O     O_3   0.786477 0.024848 0.384382 -0.533687
C61   C     C_3   0.764972 0.148773 0.431242 -0.223335
H13   H     H_    0.717621 0.116521 0.437366 0.126955
H14   H     H_    0.771183 0.295899 0.416926 0.145655
H15   H     H_    0.793452 0.132231 0.482946 0.184154
O22   O     O_3   0.213525 0.524851 0.615619 -0.533687
C62   C     C_3   0.235029 0.648782 0.568760 -0.223358
H16   H     H_    0.282379 0.616530 0.562634 0.126962
H17   H     H_    0.228819 0.795906 0.583078 0.145665
H18   H     H_    0.206548 0.632250 0.517057 0.184123
N1    N     N_3   0.713531 0.845213 0.095232 -0.675715
H19   H     H_    0.720225 0.700486 0.096962 0.268247
H20   H     H_    0.668648 0.869201 0.072124 0.266186
N2    N     N_3   0.286469 0.345211 0.904770 -0.675713
H21   H     H_    0.279775 0.200485 0.903039 0.268247
H22   H     H_    0.331353 0.369198 0.927878 0.266186
N3    N     N_3   0.724728 0.144549 0.147571 -0.690919
H23   H     H_    0.684365 0.179023 0.114918 0.268724
H24   H     H_    0.758817 0.175820 0.118164 0.244151
N4    N     N_3   0.275273 0.644548 0.852430 -0.690918
H25   H     H_    0.315636 0.679020 0.885083 0.268724
H26   H     H_    0.241184 0.675820 0.881836 0.244150
N5    N     N_3   0.646126 0.712367 0.189578 -0.643298
H27   H     H_    0.616164 0.671032 0.222910 0.245974
H28   H     H_    0.673906 0.601499 0.180450 0.274615
N6    N     N_3   0.353874 0.212362 0.810424 -0.643300
H29   H     H_    0.383836 0.171027 0.777093 0.245974
H30   H     H_    0.326094 0.101495 0.819552 0.274616
N7    N     N_3   0.779244 0.542475 0.188533 -0.690917
H31   H     H_    0.776501 0.416703 0.214457 0.279935
H32   H     H_    0.815707 0.529080 0.161105 0.235724
N8    N     N_3   0.220756 0.042475 0.811468 -0.690917
H33   H     H_    0.223499 0.916703 0.785544 0.279936
H34   H     H_    0.184293 0.029082 0.838897 0.235725
O23   O     O_3   0.713066 0.518665 0.293148 -0.584325
C63   C     C_3   0.678866 0.486455 0.348083 -0.294765
H35   H     H_    0.630760 0.523363 0.330456 0.164693
H36   H     H_    0.697053 0.554365 0.398570 0.179934
H37   H     H_    0.676783 0.336404 0.359809 0.122699
O24   O     O_3   0.286934 0.018664 0.706854 -0.584324
C64   C     C_3   0.321135 0.986456 0.651920 -0.294765
H38   H     H_    0.369241 0.023364 0.669547 0.164691
H39   H     H_    0.302949 0.054364 0.601433 0.179934
H40   H     H_    0.323219 0.836404 0.640194 0.122698
N9    N     N_3   0.795821 0.791188 0.571037 -0.601648
H41   H     H_    0.790371 0.645111 0.566054 0.220134
H42   H     H_    0.771149 0.850631 0.526235 0.242457
N10   N     N_3   0.204179 0.291129 0.428960 -0.601649
H43   H     H_    0.209663 0.145066 0.433966 0.220125
H44   H     H_    0.228830 0.350662 0.473758 0.242479
O25   O     O_3   0.624962 0.018086 0.196960 -0.543179
C65   C     C_3   0.625612 0.190669 0.231674 -0.276090
H45   H     H_    0.665174 0.275244 0.225772 0.213100
H46   H     H_    0.617743 0.171109 0.285634 0.148016
H47   H     H_    0.586592 0.274508 0.205736 0.201606
O26   O     O_3   0.375039 0.518080 0.803041 -0.543179
C66   C     C_3   0.374391 0.690663 0.768327 -0.276089
H48   H     H_    0.334829 0.775241 0.774228 0.213099
H49   H     H_    0.382260 0.671102 0.714367 0.148017
H50   H     H_    0.413411 0.774498 0.794265 0.201609
O27   O     O_3   0.894568 0.948364 0.637668 -0.530042
C67   C     C_3   0.936917 0.801805 0.634997 -0.165697
H51   H     H_    0.917723 0.661086 0.644863 0.133196
H52   H     H_    0.949096 0.798158 0.581843 0.167564
H53   H     H_    0.979283 0.827895 0.672065 0.108698
O28   O     O_3   0.105428 0.448285 0.362331 -0.530045
C68   C     C_3   0.063086 0.301704 0.364997 -0.165683
H54   H     H_    0.082288 0.160998 0.355131 0.133210
H55   H     H_    0.050903 0.298040 0.418148 0.167560
H56   H     H_    0.020721 0.327779 0.327925 0.108693
O29   O     O_3   0.792901 0.813485 0.874273 -0.546747
C69   C     C_3   0.812860 0.885205 0.941466 -0.193347
H57   H     H_    0.825054 0.037516 0.941911 0.122800
H58   H     H_    0.850131 0.795976 0.967380 0.148380
H59   H     H_    0.775707 0.869810 0.972688 0.175681
O30   O     O_3   0.207100 0.313503 0.125726 -0.546748
C70   C     C_3   0.187140 0.385232 0.058534 -0.193352
H60   H     H_    0.174945 0.537541 0.058091 0.122804
H61   H     H_    0.149871 0.296001 0.032619 0.148376
H62   H     H_    0.224293 0.369846 0.027311 0.175683
O31   O     O_3   0.527959 0.815874 0.736885 -0.557417
C71   C     C_3   0.528821 0.622964 0.755276 -0.212422
H63   H     H_    0.541510 0.606815 0.812633 0.168614
H64   H     H_    0.559623 0.537187 0.727814 0.112126
H65   H     H_    0.483093 0.562710 0.739715 0.170915
O32   O     O_3   0.472041 0.315894 0.263114 -0.557416
C72   C     C_3   0.471180 0.122984 0.244724 -0.212434
H66   H     H_    0.458483 0.106831 0.187368 0.168606
H67   H     H_    0.440383 0.037205 0.272194 0.112134
H68   H     H_    0.516908 0.062736 0.260278 0.170924
N11   N     N_3   0.712823 0.102676 0.857170 -0.632242
H69   H     H_    0.701417 0.058800 0.904775 0.272209
H70   H     H_    0.695910 0.239284 0.847904 0.225993
N12   N     N_3   0.287174 0.602703 0.142836 -0.632241
H71   H     H_    0.298580 0.558836 0.095229 0.272209
H72   H     H_    0.304088 0.739309 0.152104 0.225996
O33   O     O_3   0.591781 0.990585 0.855545 -0.541391
C73   C     C_3   0.557232 0.156820 0.842028 -0.184242
H73   H     H_    0.518695 0.136634 0.798899 0.162539
H74   H     H_    0.585806 0.277392 0.830253 0.092749
H75   H     H_    0.537879 0.194043 0.889404 0.178335
O34   O     O_3   0.408217 0.490621 0.144457 -0.541391
C74   C     C_3   0.442767 0.656851 0.157978 -0.184234
H76   H     H_    0.481312 0.636637 0.201094 0.162560
H77   H     H_    0.414198 0.777412 0.169773 0.092731
H78   H     H_    0.462108 0.694109 0.110598 0.178327
N13   N     N_3   0.791139 0.666631 0.368469 -0.625543
H79   H     H_    0.830819 0.744981 0.370227 0.243115
H80   H     H_    0.808618 0.530104 0.371486 0.210133
N14   N     N_3   0.208862 0.166633 0.631533 -0.625542
H81   H     H_    0.169182 0.244986 0.629774 0.243116
H82   H     H_    0.191382 0.030108 0.628516 0.210131

loop_
_geom_bond_atom_site_label_1
_geom_bond_atom_site_label_2
_ccdc_geom_bond_type
C47   O25   S    
N13   H79   S    
O16   V4    S    
O4    V2    S    
N12   H71   S    
C9    C31   A    
O15   C59   A    
C13   C15   A    
C48   C50   S    
C73   H74   S    
C68   H54   S    
O1    C3    A    
C65   H47   S    
O25   C65   S    
O2    C4    A    
N8    H33   S    
C2    O7    A    
O21   C61   S    
O12   C60   A    
C70   H60   S    
O5    C3    A    
C64   H39   S    
O27   C67   S    
N7    H31   S    
C23   N9    S    
C68   H55   S    
C65   H46   S    
N3    H23   S    
N9    H42   S    
O14   V4    S    
N11   H70   S    
C54   C56   T    
C49   N1    S    
C73   H75   S    
N8    H34   S    
C42   C50   S    
C15   C19   A    
C49   N3    S    
N4    H25   S    
C35   C41   S    
C8    C57   S    
C45   C47   S    
O32   C72   S    
C36   H10   S    
C67   H53   S    
C7    C29   A    
C37   H11   S    
C69   H59   S    
C8    C30   A    
O16   C60   A    
H1    C29   S    
C63   H35   S    
C48   O26   S    
C20   C28   A    
C74   H78   S    
N1    H19   S    
O34   C74   S    
C35   H7    S    
C66   H49   S    
C5    O27   S    
C3    C32   S    
C69   H58   S    
C73   H73   S    
C37   C45   S    
C74   H76   S    
O6    V2    S    
C24   C26   A    
C67   H52   S    
N1    H20   S    
O20   V3    S    
C24   N10   S    
H2    C30   S    
C36   C38   S    
C71   H63   S    
N6    H29   S    
C70   H61   S    
C42   C54   S    
C64   H40   S    
C41   C53   S    
C16   C20   A    
C10   O32   S    
C44   O24   S    
C68   H56   S    
C65   H45   S    
N10   H44   S    
C41   C49   S    
O29   C69   S    
C47   C49   S    
O11   V4    S    
N14   H81   S    
N10   H43   S    
O5    V1    S    
C38   H12   S    
C37   O21   S    
C33   H5    S    
C46   C48   S    
C34   H6    S    
N2    H21   S    
C1    C40   S    
O15   V3    S    
C43   C45   S    
C2    C39   S    
O17   V3    S    
C72   H66   S    
C5    C29   A    
N7    H32   S    
C6    C30   A    
C72   H67   S    
N13   H80   S    
C38   C46   S    
O6    C4    A    
C50   N4    S    
C40   C52   T    
C53   C55   T    
C62   H17   S    
O1    V2    S    
C13   N11   S    
O13   V3    S    
C36   H8    S    
C66   H50   S    
O20   V4    S    
O2    V1    S    
C34   C42   S    
C55   C60   S    
N5    H28   S    
C33   C41   S    
C7    C27   A    
C63   H36   S    
C69   H57   S    
O13   C57   A    
O33   C73   S    
O19   V4    S    
C61   H14   S    
O9    V1    S    
C44   N14   S    
C67   H51   S    
O10   V2    S    
C72   H68   S    
O4    C2    A    
C34   N8    S    
C46   C52   S    
N6    H30   S    
O23   C63   S    
C11   O33   S    
O30   C70   S    
C21   C23   A    
C25   H3    S    
O28   C68   S    
C17   C25   A    
C70   H62   S    
C26   H4    S    
C7    C58   S    
N12   H72   S    
O12   V3    S    
C33   C43   S    
C48   N6    S    
C18   C32   A    
C38   O22   S    
C43   O23   S    
C28   O30   S    
C10   C12   A    
C4    C31   S    
O3    C1    A    
C58   O17   A    
C14   N12   S    
C50   N2    S    
C71   H64   S    
N5    H27   S    
O18   V4    S    
C11   C13   A    
C61   H15   S    
C33   N7    S    
C64   H38   S    
C12   C14   A    
C47   N5    S    
C19   C27   A    
C57   O18   A    
C56   C59   S    
C14   C16   A    
O7    V1    S    
C10   C32   A    
C1    O8    A    
C15   C17   A    
O8    V2    S    
N9    H41   S    
C16   C18   A    
C6    O28   S    
C6    C22   A    
C8    C28   A    
C39   C51   T    
C63   H37   S    
C27   O29   S    
C22   C24   A    
C36   C42   S    
C19   C21   A    
C61   H13   S    
N4    H26   S    
C45   C51   S    
C62   H18   S    
C20   C22   A    
C18   C26   A    
O22   C62   S    
C12   O34   S    
N2    H22   S    
C9    O31   S    
C71   H65   S    
C43   N13   S    
O11   C59   A    
C23   C25   A    
C9    C11   A    
C35   H9    S    
O26   C66   S    
O19   V3    S    
O31   C71   S    
C17   C31   A    
O9    V2    S    
C62   H16   S    
C74   H77   S    
C44   C46   S    
O10   V1    S    
O14   C58   A    
O3    V1    S    
N11   H69   S    
C5    C21   A    
C35   C37   S    
C66   H48   S    
N14   H82   S    
C34   C44   S    
O24   C64   S    
N3    H24   S    
