data_mof_unit_2018.cif
_audit_creation_date              2012-12-10T17:15:15-0500
_audit_creation_method            fapswitch 2.2
_symmetry_space_group_name_H-M    P1
_symmetry_Int_Tables_number       1
_space_group_crystal_system       triclinic
_cell_length_a                    10.171332
_cell_length_b                    10.839454
_cell_length_c                    12.856766
_cell_angle_alpha                 92.056553
_cell_angle_beta                  92.247023
_cell_angle_gamma                 94.630474
_cell_volume                      1410.68158848

loop_
_atom_site_label
_atom_site_type_symbol
_atom_type_description
_atom_site_fract_x
_atom_site_fract_y
_atom_site_fract_z
_atom_type_partial_charge
C1    C     C_R   0.444937 0.267746 0.495503 0.936172
C2    C     C_R   0.670829 0.566129 0.047917 0.188499
C3    C     C_R   0.338284 0.458584 0.846792 -0.248225
C4    C     C_R   0.660168 0.549078 0.153946 -0.251609
C5    C     C_R   0.566717 0.540066 0.873755 -0.288288
C6    C     C_R   0.433487 0.462963 0.126346 -0.280536
C7    C     C_R   0.559572 0.529610 0.980338 0.116700
C8    C     C_R   0.438747 0.478837 0.020316 0.110034
C9    C     C_2   0.412692 0.136533 0.501093 -0.376484
C10   C     C_2   0.583789 0.864118 0.522116 -0.377040
C11   C     C_2   0.508530 0.066551 0.529181 -0.154866
C12   C     C_R   0.554334 0.732361 0.509268 0.939959
C13   C     C_2   0.483303 0.935039 0.526951 -0.149608
C14   C     C_3   0.194371 0.392627 0.990540 -0.419454
C15   C     C_3   0.118249 0.493837 0.039896 -0.885979
C16   C     C_3   0.800130 0.626287 0.011510 -0.445166
C17   C     C_3   0.788054 0.761479 0.985641 -0.857548
C18   C     C_3   0.830167 0.283852 0.656393 -0.712400
C19   C     C_3   0.125768 0.718672 0.350668 -0.734854
C20   C     C_2   0.071468 0.497878 0.512158 -0.058898
C21   C     C_2   0.927210 0.506524 0.489754 -0.055233
C22   C     C_R   0.474802 0.503711 0.698331 0.885227
C23   C     C_R   0.525229 0.496500 0.301710 0.892491
C24   C     C_R   0.541843 0.499673 0.191966 -0.084832
C25   C     C_R   0.458275 0.502943 0.808225 -0.083305
C26   C     C_R   0.326472 0.445073 0.953115 0.185064
H1    H     H_    0.344835 0.423205 0.160036 0.176412
H2    H     H_    0.103556 0.449168 0.579631 0.157559
H3    H     H_    0.174635 0.541759 0.107317 0.272244
H4    H     H_    0.096825 0.563259 0.981355 0.262959
H5    H     H_    0.023416 0.451656 0.067520 0.243452
H6    H     H_    0.131804 0.348397 0.924379 0.202544
H7    H     H_    0.207812 0.317648 0.045602 0.196920
H8    H     H_    0.712146 0.769847 0.922535 0.258882
H9    H     H_    0.761086 0.814896 0.055914 0.262858
H10   H     H_    0.884309 0.802527 0.959772 0.247581
H11   H     H_    0.879043 0.625374 0.073712 0.209667
H12   H     H_    0.657034 0.575283 0.839733 0.171578
H13   H     H_    0.835001 0.573204 0.943964 0.199952
H14   H     H_    0.858084 0.470177 0.698341 0.232221
H15   H     H_    0.880363 0.252766 0.727889 0.204580
H16   H     H_    0.852113 0.221709 0.589790 0.228932
H17   H     H_    0.722346 0.277704 0.667843 0.255960
H18   H     H_    0.053846 0.533017 0.317651 0.197850
H19   H     H_    0.106277 0.740861 0.268121 0.215534
H20   H     H_    0.222440 0.766186 0.377795 0.258330
H21   H     H_    0.046608 0.752855 0.398450 0.211830
H22   H     H_    0.742326 0.579136 0.207693 0.149689
H23   H     H_    0.255074 0.430795 0.793427 0.152919
H24   H     H_    0.380961 0.896516 0.522844 0.185374
H25   H     H_    0.608976 0.105332 0.547952 0.185747
H26   H     H_    0.685861 0.903196 0.526230 0.148571
H27   H     H_    0.312595 0.097091 0.481829 0.150687
H28   H     H_    0.893918 0.559880 0.425590 0.133556
N1    N     N_2   0.162330 0.550370 0.457540 -0.027555
N2    N     N_2   0.837670 0.449630 0.542460 -0.031096
N3    N     N_2   0.878097 0.409799 0.638280 -0.256500
N4    N     N_2   0.128560 0.586452 0.358590 -0.210800
O1    O     O_R   0.567930 0.307680 0.508550 -0.609861
O2    O     O_R   0.432070 0.692320 0.491450 -0.607357
O3    O     O_R   0.351090 0.340020 0.481290 -0.620086
O4    O     O_R   0.648910 0.659980 0.518710 -0.624086
O5    O     O_R   0.590490 0.486480 0.665020 -0.626530
O6    O     O_R   0.409510 0.513520 0.334980 -0.591934
O7    O     O_R   0.373660 0.518820 0.637760 -0.629463
O8    O     O_R   0.626340 0.481180 0.362240 -0.629474
Zn1   Zn    Zn3+2 0.644780 0.478400 0.518200 0.937289
Zn2   Zn    Zn3+2 0.355220 0.521600 0.481800 0.963244

loop_
_geom_bond_atom_site_label_1
_geom_bond_atom_site_label_2
_ccdc_geom_bond_type
C21   N2    D    
C2    C4    A    
C23   C24   S    
C19   H19   S    
C22   O7    A    
C15   H5    S    
C17   H10   S    
N2    Zn1   S    
C2    C16   S    
C18   N3    S    
N2    N3    S    
C6    H1    S    
C16   H11   S    
C9    C11   D    
O7    Zn2   S    
C10   H26   S    
C14   H7    S    
C18   H16   S    
N1    Zn2   S    
C3    H23   S    
C19   H20   S    
C6    C24   A    
C7    C8    A    
C5    H12   S    
C14   C26   S    
C11   C13   S    
O3    Zn2   S    
C11   H25   S    
C10   C12   S    
O4    Zn1   S    
C20   N1    D    
C5    C25   A    
O6    Zn2   S    
C23   O8    A    
C17   H9    S    
C23   O6    A    
C15   H3    S    
C19   H21   S    
C1    O1    A    
C19   N4    S    
C21   H28   S    
C4    C24   A    
O5    Zn1   S    
C18   H15   S    
C9    H27   S    
C17   H8    S    
C8    C26   A    
C16   H13   S    
C13   H24   S    
C12   O2    A    
C1    C9    S    
C3    C25   A    
C12   O4    A    
C20   C21   S    
O2    Zn2   S    
C15   H4    S    
C4    H22   S    
N1    N4    S    
C14   H6    S    
O8    Zn1   S    
C5    C7    A    
C14   C15   S    
C6    C8    A    
H14   N3    S    
C20   H2    S    
O1    Zn1   S    
C22   O5    A    
C18   H17   S    
C10   C13   D    
C3    C26   A    
C2    C7    A    
H18   N4    S    
C16   C17   S    
C22   C25   S    
C1    O3    A    
