data_mof_unit_23.cif
_audit_creation_date              2012-12-11T15:33:44-0500
_audit_creation_method            fapswitch 2.2
_symmetry_space_group_name_H-M    P1
_symmetry_Int_Tables_number       1
_space_group_crystal_system       triclinic
_cell_length_a                    27.22715
_cell_length_b                    7.194174
_cell_length_c                    22.70962
_cell_angle_alpha                 90.000118
_cell_angle_beta                  101.026357
_cell_angle_gamma                 90.000373
_cell_volume                      4366.17042683

loop_
_atom_site_label
_atom_site_type_symbol
_atom_type_description
_atom_site_fract_x
_atom_site_fract_y
_atom_site_fract_z
_atom_type_partial_charge
O1    O     O_R   0.207310 0.594030 0.676830 -0.532468
O2    O     O_R   0.792690 0.405970 0.323170 -0.527469
O3    O     O_R   0.292690 0.094030 0.823170 -0.532451
O4    O     O_R   0.707310 0.905970 0.176830 -0.527456
O5    O     O_R   0.197320 0.262370 0.795700 -0.540393
O6    O     O_R   0.802680 0.737630 0.204300 -0.540497
O7    O     O_R   0.302680 0.762370 0.704300 -0.540398
O8    O     O_R   0.697320 0.237630 0.295700 -0.540497
C1    C     C_R   0.185056 0.432023 0.812295 0.675615
C2    C     C_R   0.815540 0.567770 0.188457 0.671080
C3    C     C_R   0.314942 0.932022 0.687704 0.675614
C4    C     C_R   0.684461 0.067769 0.311543 0.671087
O9    O     O_R   0.201410 0.264250 0.675590 -0.532718
O10   O     O_R   0.798590 0.735750 0.324410 -0.536398
O11   O     O_R   0.298590 0.764250 0.824410 -0.532736
O12   O     O_R   0.701410 0.235750 0.175590 -0.536405
O13   O     O_R   0.296810 0.094940 0.702210 -0.537150
O14   O     O_R   0.703190 0.905060 0.297790 -0.537822
O15   O     O_R   0.203190 0.594940 0.797790 -0.537163
O16   O     O_R   0.796810 0.405060 0.202210 -0.537824
C5    C     C_R   0.189871 0.432950 0.653501 0.688493
C6    C     C_R   0.810605 0.566959 0.346112 0.687720
C7    C     C_R   0.310128 0.932953 0.846499 0.688496
C8    C     C_R   0.689395 0.066957 0.153887 0.687744
O17   O     O_3   0.281300 0.427390 0.758870 -0.371242
O18   O     O_3   0.718700 0.572610 0.241130 -0.369387
O19   O     O_3   0.218700 0.927390 0.741130 -0.371249
O20   O     O_3   0.781300 0.072610 0.258870 -0.369390
V1    V     V_3+5 0.244190 0.152150 0.748350 1.417939
V2    V     V_3+5 0.755810 0.847850 0.251650 1.424943
V3    V     V_3+5 0.255810 0.652150 0.751650 1.417904
V4    V     V_3+5 0.744190 0.347850 0.248350 1.424923
C9    C     C_R   0.651735 0.056459 0.097744 -0.152477
C10   C     C_R   0.345089 0.943075 0.904830 -0.153568
C11   C     C_R   0.848264 0.556481 0.402259 -0.152488
C12   C     C_R   0.154909 0.443052 0.595171 -0.153558
C13   C     C_R   0.636102 0.068589 0.988764 0.143116
C14   C     C_R   0.353943 0.000213 0.011783 0.148424
C15   C     C_R   0.863908 0.568943 0.511235 0.143104
C16   C     C_R   0.146054 0.499796 0.488197 0.148442
C17   C     C_R   0.666742 0.104402 0.044509 -0.222138
C18   C     C_R   0.324236 0.971079 0.955235 -0.221824
C19   C     C_R   0.833268 0.604641 0.455481 -0.222098
C20   C     C_R   0.175762 0.470793 0.544753 -0.221822
C21   C     C_R   0.601598 0.998564 0.096345 0.294446
C22   C     C_R   0.397817 0.948609 0.910055 0.294712
C23   C     C_R   0.898393 0.498465 0.403669 0.294432
C24   C     C_R   0.102183 0.448734 0.589951 0.294698
C25   C     C_R   0.567398 0.989918 0.040056 0.018595
C26   C     C_R   0.429511 0.948826 0.968483 0.011552
C27   C     C_R   0.932597 0.489934 0.459957 0.018614
C28   C     C_R   0.070485 0.448799 0.531527 0.011566
C29   C     C_R   0.587981 0.987861 0.987005 -0.013510
C30   C     C_R   0.406865 0.970360 0.020228 -0.015916
C31   C     C_R   0.912019 0.488114 0.513014 -0.013520
C32   C     C_R   0.093128 0.470065 0.479770 -0.015915
C33   C     C_R   0.513784 0.978166 0.033892 0.031672
C34   C     C_R   0.483381 0.938230 0.976964 0.025841
C35   C     C_R   0.986209 0.478085 0.466118 0.031676
C36   C     C_R   0.016614 0.438297 0.523057 0.025844
C37   C     C_R   0.508070 0.878130 0.931362 -0.108917
C38   C     C_R   0.489531 0.007574 0.082315 -0.135994
C39   C     C_R   0.991924 0.378425 0.568685 -0.108893
C40   C     C_R   0.010461 0.507251 0.417680 -0.136016
C41   C     C_R   0.559766 0.898844 0.935726 0.102421
C42   C     C_R   0.438584 0.971622 0.077864 0.099785
C43   C     C_R   0.940231 0.399226 0.564321 0.102386
C44   C     C_R   0.061404 0.471184 0.422136 0.099782
H1    H     H_    0.283977 0.987675 0.949173 0.129720
H2    H     H_    0.703481 0.165003 0.046562 0.133505
H3    H     H_    0.216023 0.487275 0.550803 0.129699
H4    H     H_    0.796538 0.665332 0.453415 0.133521
H5    H     H_    0.487986 0.803552 0.893092 0.184401
H6    H     H_    0.509527 0.051378 0.125574 0.181411
H7    H     H_    0.012004 0.303951 0.606980 0.184407
H8    H     H_    0.990467 0.550941 0.374408 0.181409
C45   C     C_R   0.636739 0.897006 0.379355 -0.164061
C46   C     C_R   0.379716 0.102006 0.642816 -0.165811
C47   C     C_R   0.863244 0.397076 0.120615 -0.164112
C48   C     C_R   0.120306 0.602081 0.857202 -0.165764
H9    H     H_    0.659919 0.775487 0.377689 0.127107
H10   H     H_    0.374652 0.224153 0.668898 0.132536
H11   H     H_    0.840049 0.275584 0.122253 0.127090
H12   H     H_    0.125394 0.724254 0.831144 0.132536
C49   C     C_R   0.599571 0.889437 0.414020 -0.183481
C50   C     C_R   0.414289 0.109146 0.604624 -0.179948
C51   C     C_R   0.900412 0.389532 0.085949 -0.183438
C52   C     C_R   0.085731 0.609248 0.895391 -0.179990
H13   H     H_    0.595857 0.761838 0.438074 0.137984
H14   H     H_    0.434980 0.237065 0.603212 0.139222
H15   H     H_    0.904105 0.261951 0.061877 0.138138
H16   H     H_    0.065054 0.737188 0.896830 0.139054
C53   C     C_R   0.568179 0.042692 0.418556 0.004876
C54   C     C_R   0.422578 0.955313 0.569214 0.003051
C55   C     C_R   0.931833 0.542748 0.081446 0.004581
C56   C     C_R   0.077412 0.455376 0.930761 0.003349
C57   C     C_R   0.575044 0.207657 0.385874 0.142710
C58   C     C_R   0.394322 0.789698 0.573316 0.143979
C59   C     C_R   0.924978 0.707667 0.114168 0.142800
C60   C     C_R   0.105635 0.289712 0.926642 0.143889
C61   C     C_R   0.613473 0.213165 0.351970 -0.183231
C62   C     C_R   0.360429 0.784444 0.613247 -0.179453
C63   C     C_R   0.886548 0.713141 0.148070 -0.183189
C64   C     C_R   0.139532 0.284421 0.886717 -0.179512
H17   H     H_    0.618518 0.337991 0.327101 0.125288
H18   H     H_    0.338714 0.659542 0.615936 0.116661
H19   H     H_    0.881514 0.837920 0.172968 0.125298
H20   H     H_    0.161223 0.159470 0.884011 0.116657
C65   C     C_R   0.644487 0.059214 0.348208 -0.066134
C66   C     C_R   0.352555 0.939399 0.647909 -0.064967
C67   C     C_R   0.855515 0.559226 0.151796 -0.066137
C68   C     C_R   0.147439 0.439413 0.852084 -0.064966
N1    N     N_R   0.508702 0.170493 0.479856 -0.291059
N2    N     N_R   0.482205 0.827761 0.508117 -0.290620
N3    N     N_R   0.991635 0.670543 0.020553 -0.291116
N4    N     N_R   0.017479 0.327842 0.991426 -0.290564
N5    N     N_R   0.474828 0.148894 0.514667 -0.300352
N6    N     N_R   0.515793 0.849346 0.472939 -0.300210
N7    N     N_R   0.025504 0.648948 0.985736 -0.300343
N8    N     N_R   0.983896 0.349426 0.026610 -0.300231
C69   C     C_R   0.460388 0.976728 0.529342 0.513747
C70   C     C_R   0.529643 0.021470 0.457475 0.512916
C71   C     C_R   0.039615 0.476786 0.970633 0.513763
C72   C     C_R   0.970367 0.521520 0.042509 0.512901
C73   C     C_3   0.583748 0.799329 0.889333 -0.366762
C74   C     C_3   0.574282 0.589419 0.888888 -0.761059
H21   H     H_    0.585066 0.531962 0.934971 0.233171
H22   H     H_    0.534407 0.556652 0.870993 0.230133
H23   H     H_    0.597088 0.520027 0.859644 0.216715
H24   H     H_    0.569094 0.857725 0.844086 0.187503
H25   H     H_    0.624703 0.814836 0.898831 0.207199
C75   C     C_3   0.421684 0.916904 0.135619 -0.378483
C76   C     C_3   0.452499 0.755730 0.167800 -0.724975
H26   H     H_    0.452307 0.636273 0.136734 0.231901
H27   H     H_    0.491711 0.798868 0.185328 0.248341
H28   H     H_    0.435984 0.709768 0.206471 0.208627
H29   H     H_    0.424692 0.038453 0.166309 0.174034
H30   H     H_    0.382809 0.866338 0.126673 0.209146
C77   C     C_3   0.916243 0.299924 0.610749 -0.366731
C78   C     C_3   0.925704 0.090004 0.611279 -0.761093
H31   H     H_    0.914949 0.032394 0.565213 0.233150
H32   H     H_    0.965572 0.057259 0.629222 0.230119
H33   H     H_    0.902872 0.020739 0.640520 0.216747
H34   H     H_    0.930895 0.358482 0.655974 0.187502
H35   H     H_    0.875288 0.315446 0.601239 0.207198
C79   C     C_3   0.078289 0.416193 0.364397 -0.378456
C80   C     C_3   0.047450 0.254978 0.332278 -0.725033
H36   H     H_    0.047628 0.135642 0.363388 0.231919
H37   H     H_    0.008243 0.298154 0.314739 0.248341
H38   H     H_    0.063955 0.208816 0.293620 0.208601
H39   H     H_    0.075295 0.537630 0.333663 0.174035
H40   H     H_    0.117157 0.365555 0.373356 0.209146
O21   O     O_3   0.418799 0.972970 0.859633 -0.662203
H41   H     H_    0.392899 0.975733 0.822640 0.273910
O22   O     O_3   0.586837 0.932073 0.147422 -0.662243
H42   H     H_    0.611730 0.964189 0.183673 0.273794
O23   O     O_3   0.081209 0.473355 0.640368 -0.662206
H43   H     H_    0.107114 0.476260 0.677355 0.273927
O24   O     O_3   0.913142 0.431773 0.352610 -0.662248
H44   H     H_    0.888251 0.463839 0.316351 0.273822
C81   C     C_3   0.652487 0.149792 0.933848 -0.365682
C82   C     C_3   0.702268 0.069132 0.923598 -0.757352
H45   H     H_    0.733891 0.127023 0.956702 0.222354
H46   H     H_    0.703171 0.915513 0.927752 0.225004
H47   H     H_    0.707999 0.107500 0.878039 0.222084
H48   H     H_    0.623400 0.133950 0.892755 0.178869
H49   H     H_    0.657359 0.302226 0.940452 0.185487
C83   C     C_3   0.328028 0.100030 0.056494 -0.354424
C84   C     C_3   0.287534 0.980683 0.076471 -0.773268
H50   H     H_    0.254107 0.970375 0.039961 0.223105
H51   H     H_    0.301135 0.837985 0.088839 0.225439
H52   H     H_    0.275805 0.046282 0.115829 0.219757
H53   H     H_    0.354477 0.154152 0.095812 0.171416
H54   H     H_    0.309701 0.227142 0.034599 0.181446
C85   C     C_3   0.847537 0.650369 0.566129 -0.365684
C86   C     C_3   0.797750 0.569853 0.576411 -0.757357
H55   H     H_    0.766131 0.627689 0.543289 0.222353
H56   H     H_    0.796831 0.416221 0.572310 0.225005
H57   H     H_    0.792025 0.608400 0.621958 0.222082
H58   H     H_    0.876625 0.634605 0.607224 0.178880
H59   H     H_    0.842680 0.802791 0.559477 0.185491
C87   C     C_3   0.171981 0.599348 0.443445 -0.354433
C88   C     C_3   0.212452 0.479789 0.423505 -0.773307
H60   H     H_    0.245878 0.469514 0.460017 0.223090
H61   H     H_    0.198825 0.337086 0.411190 0.225441
H62   H     H_    0.224190 0.545193 0.384122 0.219765
H63   H     H_    0.145537 0.653394 0.404110 0.171414
H64   H     H_    0.190331 0.726490 0.465291 0.181426
C89   C     C_3   0.542003 0.378476 0.383644 -0.347829
C90   C     C_3   0.489899 0.343975 0.346232 -0.704148
H65   H     H_    0.492755 0.309742 0.299296 0.214846
H66   H     H_    0.470686 0.228147 0.364761 0.233743
H67   H     H_    0.466853 0.471488 0.345853 0.221631
H68   H     H_    0.539959 0.427671 0.429322 0.220161
H69   H     H_    0.558409 0.497128 0.362661 0.170015
C91   C     C_3   0.397006 0.618185 0.535118 -0.348960
C92   C     C_3   0.371807 0.650722 0.469830 -0.709869
H70   H     H_    0.331579 0.683848 0.467131 0.213733
H71   H     H_    0.389686 0.766618 0.449581 0.235327
H72   H     H_    0.374682 0.522747 0.443357 0.224251
H73   H     H_    0.436089 0.569936 0.538678 0.221831
H74   H     H_    0.377358 0.499440 0.551775 0.166122
C93   C     C_3   0.958014 0.878510 0.116438 -0.347680
C94   C     C_3   0.010075 0.844098 0.153973 -0.704062
H75   H     H_    0.007142 0.810266 0.200913 0.214768
H76   H     H_    0.029301 0.728015 0.135590 0.233863
H77   H     H_    0.033152 0.971515 0.154301 0.221508
H78   H     H_    0.960122 0.927663 0.070774 0.220123
H79   H     H_    0.941560 0.997196 0.137348 0.169900
C95   C     C_3   0.102909 0.118219 0.964836 -0.349108
C96   C     C_3   0.127999 0.150819 0.030159 -0.709953
H80   H     H_    0.168216 0.184308 0.032952 0.213806
H81   H     H_    0.110004 0.266478 0.050375 0.235207
H82   H     H_    0.125161 0.022748 0.056601 0.224381
H83   H     H_    0.063820 0.069953 0.961197 0.221861
H84   H     H_    0.122606 0.999497 0.948241 0.166232

loop_
_geom_bond_atom_site_label_1
_geom_bond_atom_site_label_2
_ccdc_geom_bond_type
C55   C72   S    
O17   V3    S    
C59   C63   A    
C93   C94   S    
C52   C56   A    
O1    C5    A    
O23   H43   S    
N4    C71   A    
C51   H15   S    
O19   V1    S    
O13   V1    S    
C84   H50   S    
O3    C7    A    
C80   H36   S    
C10   C18   A    
C78   H33   S    
C60   C64   A    
C48   H12   S    
C11   C23   A    
C11   C19   A    
C47   C51   A    
C81   C82   S    
C25   C33   A    
C33   C38   A    
C5    C12   S    
C23   O24   S    
O7    C3    A    
C6    C11   S    
C35   C40   A    
C90   H65   S    
C36   C39   A    
C40   C44   A    
O9    V1    S    
C80   H37   S    
C78   H32   S    
C14   C18   A    
C88   H61   S    
O4    C8    A    
C25   C29   A    
C54   C58   A    
C55   C59   A    
C61   C65   A    
C95   H83   S    
O1    V3    S    
C9    C21   A    
C73   H25   S    
C20   H3    S    
O2    V4    S    
N6    C70   A    
O3    V1    S    
N5    C69   A    
C87   C88   S    
C50   C54   A    
C90   H67   S    
C79   H40   S    
N2    C69   A    
C49   C53   A    
C89   H68   S    
C1    O15   A    
C86   H57   S    
C15   C31   A    
N1    C70   A    
C52   H16   S    
C2    O16   A    
C75   C76   S    
C16   C32   A    
C51   C55   A    
O2    C6    A    
C76   H28   S    
C90   H66   S    
O12   V4    S    
C10   C22   A    
C45   H9    S    
C43   C77   S    
C16   C20   A    
C42   C75   S    
C81   H48   S    
C85   H59   S    
C13   C29   A    
C46   C50   A    
C34   C37   A    
O11   C7    A    
O15   V3    S    
C35   C36   A    
O12   C8    A    
C48   C52   A    
C3    C66   S    
C17   H2    S    
C84   H51   S    
C92   H70   S    
O10   V2    S    
C73   H24   S    
C4    C65   S    
C12   C24   A    
C82   H46   S    
C61   H17   S    
C83   H53   S    
C39   C43   A    
O7    V3    S    
C38   C42   A    
C58   C91   S    
C26   C34   A    
C80   H38   S    
C78   H31   S    
C15   C85   S    
C50   H14   S    
C88   H62   S    
C64   C68   A    
C49   H13   S    
O18   V4    S    
C15   C19   A    
C74   H23   S    
C37   H5    S    
C75   H29   S    
C58   C62   A    
C18   H1    S    
N4    N8    A    
O8    V4    S    
C92   H72   S    
C83   H54   S    
C88   H60   S    
C96   H80   S    
O5    C1    A    
C82   H47   S    
C77   H34   S    
C46   H10   S    
C24   O23   S    
C31   C43   A    
O24   H44   S    
C14   C30   A    
C94   H77   S    
C21   C25   A    
O8    C4    A    
C7    C10   S    
C29   C41   A    
C48   C68   A    
C4    O14   A    
C40   H8    S    
O9    C5    A    
C2    C67   S    
C46   C66   A    
C87   H64   S    
C53   C70   S    
C45   C65   A    
C81   H49   S    
C21   O22   S    
C83   C84   S    
O6    V2    S    
C94   H76   S    
N3    N7    A    
C76   H26   S    
C84   H52   S    
N1    N5    A    
C12   C20   A    
C27   C35   A    
C91   H74   S    
O5    V1    S    
C53   C57   A    
C64   H20   S    
C44   C79   S    
C28   C32   A    
C13   C81   S    
C79   C80   S    
O16   V4    S    
C19   H4    S    
C77   H35   S    
C74   H22   S    
N3    C72   A    
C56   C71   S    
C96   H81   S    
C57   C89   S    
C38   H6    S    
C91   C92   S    
C86   H55   S    
C3    O13   A    
O6    C2    A    
C23   C27   A    
C77   C78   S    
C16   C87   S    
O11   V3    S    
C85   H58   S    
C30   C42   A    
C63   C67   A    
N7    C71   A    
C82   H45   S    
C93   H78   S    
C22   C26   A    
C8    C9    S    
C47   C67   A    
C9    C17   A    
O10   C6    A    
C92   H71   S    
O21   H41   S    
O20   V2    S    
C26   C30   A    
C85   C86   S    
C32   C44   A    
C47   H11   S    
C89   H69   S    
C33   C34   A    
C73   C74   S    
C39   H7    S    
C1    C68   S    
C74   H21   S    
C95   H84   S    
C56   C60   A    
C60   C95   S    
N2    N6    A    
C62   H18   S    
C27   C31   A    
C87   H63   S    
C22   O21   S    
C13   C17   A    
C89   C90   S    
C57   C61   A    
C62   C66   A    
O14   V2    S    
C45   C49   A    
C79   H39   S    
C54   C69   S    
C37   C41   A    
C24   C28   A    
C96   H82   S    
C14   C83   S    
C94   H75   S    
C28   C36   A    
C95   C96   S    
C59   C93   S    
O22   H42   S    
C76   H27   S    
C93   H79   S    
C63   H19   S    
C91   H73   S    
C75   H30   S    
O4    V2    S    
N8    C72   A    
C41   C73   S    
C86   H56   S    
