data_mof_unit_1428.cif
_audit_creation_date              2012-12-11T14:40:22-0500
_audit_creation_method            fapswitch 2.2
_symmetry_space_group_name_H-M    P1
_symmetry_Int_Tables_number       1
_space_group_crystal_system       triclinic
_cell_length_a                    19.742492
_cell_length_b                    10.968209
_cell_length_c                    19.349788
_cell_angle_alpha                 90.446971
_cell_angle_beta                  97.036718
_cell_angle_gamma                 90.245292
_cell_volume                      4158.25467079

loop_
_atom_site_label
_atom_site_type_symbol
_atom_type_description
_atom_site_fract_x
_atom_site_fract_y
_atom_site_fract_z
_atom_type_partial_charge
C1    C     C_R   0.727140 0.946828 0.358049 0.554995
C2    C     C_3   0.267030 0.345403 0.558940 0.045130
C3    C     C_3   0.580599 0.867119 0.489973 -0.110391
C4    C     C_3   0.645335 0.239606 0.044950 -0.075368
C5    C     C_3   0.296695 0.212914 0.965795 -0.087554
C6    C     C_3   0.145335 0.739609 0.044953 -0.075361
C7    C     C_3   0.796694 0.712909 0.965798 -0.087560
C8    C     C_3   0.459360 0.472645 0.936764 -0.068309
C9    C     C_3   0.449113 0.450575 0.098329 -0.080266
C10   C     C_3   0.959353 0.972643 0.936763 -0.068308
C11   C     C_3   0.949110 0.950573 0.098329 -0.080265
C12   C     C_3   0.230851 0.839420 0.440246 0.061999
C13   C     C_3   0.767032 0.845405 0.558940 0.045120
C14   C     C_3   0.746164 0.470948 0.464110 -0.149170
C15   C     C_3   0.294882 0.461851 0.529475 -0.107064
C16   C     C_3   0.246155 0.970948 0.464110 -0.149163
C17   C     C_3   0.794889 0.961847 0.529474 -0.107039
C18   C     C_3   0.805261 0.424591 0.516402 -0.115262
C19   C     C_3   0.224371 0.481060 0.486835 -0.079424
C20   C     C_3   0.305257 0.924606 0.516401 -0.115228
C21   C     C_R   0.274514 0.951122 0.639735 0.545024
C22   C     C_3   0.724378 0.981063 0.486834 -0.079396
C23   C     C_3   0.789015 0.293353 0.492665 0.298206
C24   C     C_3   0.197671 0.364186 0.515880 0.299541
C25   C     C_3   0.289022 0.793365 0.492665 0.298226
C26   C     C_3   0.697673 0.864195 0.515881 0.299526
C27   C     C_3   0.739074 0.275233 0.546595 -0.131267
C28   C     C_3   0.219862 0.285911 0.457057 -0.129236
C29   C     C_3   0.239084 0.775228 0.546596 -0.131296
C30   C     C_3   0.719860 0.785913 0.457058 -0.129243
C31   C     C_3   0.754301 0.407385 0.569826 0.018163
C32   C     C_R   0.227140 0.446829 0.358050 0.554995
C33   C     C_3   0.247586 0.403025 0.427723 0.023650
C34   C     C_3   0.254300 0.907384 0.569827 0.018154
C35   C     C_3   0.747589 0.903022 0.427722 0.023653
C36   C     C_3   0.486792 0.276303 0.977894 0.255143
C37   C     C_3   0.446480 0.260460 0.040835 0.243198
C38   C     C_3   0.986791 0.776306 0.977895 0.255146
C39   C     C_3   0.946479 0.760459 0.040836 0.243197
C40   C     C_3   0.537375 0.179407 0.007942 0.257292
C41   C     C_3   0.404731 0.156919 0.001600 0.233585
C42   C     C_3   0.037375 0.679412 0.007941 0.257293
C43   C     C_R   0.774514 0.451123 0.639734 0.545027
C44   C     C_3   0.904731 0.656917 0.001600 0.233586
C45   C     C_3   0.497663 0.165226 0.071446 -0.023294
C46   C     C_3   0.444857 0.173981 0.937878 -0.061103
C47   C     C_3   0.997664 0.665227 0.071445 -0.023296
C48   C     C_3   0.944857 0.673982 0.937878 -0.061102
C49   C     C_R   0.534201 0.180076 0.337050 0.543055
C50   C     C_R   0.464643 0.179896 0.662024 0.555774
C51   C     C_R   0.034201 0.680076 0.337050 0.543055
C52   C     C_R   0.964643 0.679896 0.662024 0.555773
C53   C     C_3   0.455563 0.061765 0.033721 -0.154407
C54   C     C_3   0.679831 0.322964 0.493209 -0.178958
C55   C     C_3   0.495095 0.077016 0.970029 -0.124600
C56   C     C_3   0.955565 0.561765 0.033720 -0.154407
C57   C     C_3   0.995096 0.577019 0.970028 -0.124601
C58   C     C_1   0.765298 0.431237 0.906945 0.022619
C59   C     C_1   0.214602 0.484523 0.081871 0.015240
C60   C     C_1   0.265299 0.931239 0.906946 0.022617
C61   C     C_1   0.714603 0.984521 0.081871 0.015244
C62   C     C_1   0.757256 0.428735 0.041099 0.002011
C63   C     C_1   0.231266 0.466627 0.948902 -0.031575
C64   C     C_1   0.257257 0.928738 0.041099 0.002014
C65   C     C_3   0.290904 0.267836 0.500147 -0.193933
C66   C     C_1   0.731267 0.966625 0.948903 -0.031577
C67   C     C_1   0.760117 0.427277 0.968345 0.015655
C68   C     C_1   0.221743 0.478941 0.020469 -0.000557
C69   C     C_1   0.260118 0.927280 0.968346 0.015657
C70   C     C_1   0.721744 0.978939 0.020470 -0.000558
C71   C     C_1   0.751232 0.414385 0.101816 -0.011906
C72   C     C_1   0.243567 0.435621 0.891363 -0.035162
C73   C     C_1   0.251233 0.914387 0.101817 -0.011907
C74   C     C_1   0.743568 0.935619 0.891363 -0.035162
C75   C     C_R   0.724068 0.308302 0.366900 0.575163
C76   C     C_3   0.179836 0.822945 0.493211 -0.178960
C77   C     C_R   0.274856 0.311120 0.631976 0.566150
C78   C     C_R   0.224068 0.808302 0.366901 0.575150
C79   C     C_R   0.774857 0.811120 0.631976 0.566152
C80   C     C_R   0.704617 0.998109 0.154511 0.554330
C81   C     C_R   0.278353 0.953626 0.836886 0.534254
C82   C     C_R   0.204617 0.498110 0.154511 0.554328
C83   C     C_R   0.778353 0.453625 0.836886 0.534255
C84   C     C_R   0.529337 0.177568 0.142047 0.560948
C85   C     C_R   0.432172 0.183003 0.861610 0.566935
C86   C     C_R   0.029337 0.677568 0.142047 0.560948
C87   C     C_3   0.790901 0.767831 0.500148 -0.193939
C88   C     C_R   0.932172 0.683003 0.861610 0.566935
C89   C     C_R   0.738572 0.367382 0.168046 0.526723
C90   C     C_R   0.260537 0.371712 0.829960 0.526937
C91   C     C_R   0.238572 0.867383 0.168046 0.526722
C92   C     C_R   0.760537 0.871711 0.829961 0.526939
C93   C     C_1   0.484246 0.171519 0.593992 -0.003120
C94   C     C_1   0.510719 0.172262 0.403332 -0.024485
C95   C     C_1   0.984246 0.671519 0.593992 -0.003117
C96   C     C_1   0.010718 0.672262 0.403332 -0.024494
C97   C     C_1   0.499949 0.168402 0.462825 -0.076468
C98   C     C_3   0.730849 0.339423 0.440246 0.062007
C99   C     C_1   0.492707 0.168040 0.533803 -0.060137
C100  C     C_1   0.999949 0.668401 0.462824 -0.076476
C101  C     C_1   0.992706 0.668039 0.533802 -0.060134
C102  C     C_3   0.695357 0.455947 0.518296 -0.125487
C103  C     C_3   0.318392 0.385640 0.469016 -0.114851
C104  C     C_3   0.195350 0.955931 0.518298 -0.125481
C105  C     C_3   0.818394 0.885629 0.469014 -0.114850
C106  C     C_3   0.898633 0.218659 0.514409 -0.123275
C107  C     C_3   0.080596 0.367095 0.489974 -0.110406
C108  C     C_3   0.398623 0.718628 0.514491 -0.123253
Cr1   Cr    Cr6+3 0.765830 0.160660 0.268180 1.040359
Cr2   Cr    Cr6+3 0.384070 0.324050 0.751550 1.004590
Cr3   Cr    Cr6+3 0.115930 0.824050 0.248450 0.997806
Cr4   Cr    Cr6+3 0.884070 0.824050 0.751550 1.004599
Cr5   Cr    Cr6+3 0.234170 0.160660 0.731820 1.038866
Cr6   Cr    Cr6+3 0.265830 0.660660 0.268180 1.040376
Cr7   Cr    Cr6+3 0.734170 0.660660 0.731820 1.038860
Cr8   Cr    Cr6+3 0.612110 0.009150 0.248770 1.009488
Cr9   Cr    Cr6+3 0.387890 0.009150 0.751230 1.018174
Cr10  Cr    Cr6+3 0.112110 0.509150 0.248770 1.009480
Cr11  Cr    Cr6+3 0.887890 0.509150 0.751230 1.018182
Cr12  Cr    Cr6+3 0.615930 0.324050 0.248450 0.997809
H1    H     H_    0.628503 0.281396 0.481612 0.125284
H2    H     H_    0.325301 0.529842 0.562756 0.152178
H3    H     H_    0.249901 0.045191 0.426376 0.129077
H4    H     H_    0.825314 0.029840 0.562749 0.152233
H5    H     H_    0.356420 0.967893 0.527706 0.103070
H6    H     H_    0.694943 0.066497 0.478458 0.103788
H7    H     H_    0.856428 0.467864 0.527709 0.103062
H8    H     H_    0.194933 0.566491 0.478460 0.103774
H9    H     H_    0.737197 0.197811 0.582902 0.119519
H10   H     H_    0.187320 0.218036 0.425660 0.115209
H11   H     H_    0.237213 0.697806 0.582904 0.119506
H12   H     H_    0.320541 0.182681 0.508697 0.110100
H13   H     H_    0.687317 0.718036 0.425665 0.115215
H14   H     H_    0.441799 0.973788 0.056483 0.144929
H15   H     H_    0.517028 0.000346 0.942326 0.168176
H16   H     H_    0.941803 0.473787 0.056482 0.144930
H17   H     H_    0.017031 0.500352 0.942325 0.168177
H18   H     H_    0.893850 0.225330 0.571077 0.123363
H19   H     H_    0.925189 0.299971 0.496910 0.118882
H20   H     H_    0.930457 0.137917 0.506278 0.136608
H21   H     H_    0.073544 0.281029 0.459214 0.117222
H22   H     H_    0.087309 0.445316 0.455155 0.130967
H23   H     H_    0.128511 0.781363 0.481615 0.125280
H24   H     H_    0.033432 0.384293 0.514004 0.134246
H25   H     H_    0.393777 0.725214 0.571148 0.123341
H26   H     H_    0.425213 0.799964 0.497071 0.118872
H27   H     H_    0.430453 0.637895 0.506356 0.136611
H28   H     H_    0.573537 0.781044 0.459224 0.117243
H29   H     H_    0.587320 0.945323 0.455144 0.130965
H30   H     H_    0.533437 0.884348 0.514001 0.134265
H31   H     H_    0.645208 0.203326 0.097925 0.122271
H32   H     H_    0.629531 0.336897 0.041632 0.165677
H33   H     H_    0.697914 0.228072 0.032444 0.132297
H34   H     H_    0.820536 0.682673 0.508700 0.110103
H35   H     H_    0.297659 0.186487 0.910596 0.121354
H36   H     H_    0.316199 0.306450 0.976440 0.149877
H37   H     H_    0.243311 0.207218 0.977962 0.156752
H38   H     H_    0.145208 0.703319 0.097925 0.122265
H39   H     H_    0.129531 0.836900 0.041640 0.165675
H40   H     H_    0.197914 0.728077 0.032445 0.132297
H41   H     H_    0.797659 0.686490 0.910598 0.121353
H42   H     H_    0.816195 0.806445 0.976448 0.149883
H43   H     H_    0.743310 0.707206 0.977965 0.156750
H44   H     H_    0.470003 0.554375 0.970431 0.100472
H45   H     H_    0.657273 0.524374 0.530730 0.148760
H46   H     H_    0.407008 0.438360 0.941685 0.111533
H47   H     H_    0.460144 0.503732 0.882458 0.165047
H48   H     H_    0.501278 0.452450 0.082138 0.145523
H49   H     H_    0.420710 0.531401 0.076550 0.109213
H50   H     H_    0.453943 0.459731 0.155866 0.162628
H51   H     H_    0.969992 0.054373 0.970431 0.100473
H52   H     H_    0.907002 0.938352 0.941682 0.111530
H53   H     H_    0.960138 0.003732 0.882457 0.165051
H54   H     H_    0.001275 0.952449 0.082140 0.145526
H55   H     H_    0.920706 0.031398 0.076550 0.109212
H56   H     H_    0.367710 0.394853 0.447430 0.140877
H57   H     H_    0.953939 0.959732 0.155867 0.162624
H58   H     H_    0.157261 0.024347 0.530733 0.148759
H59   H     H_    0.867712 0.894834 0.447428 0.140869
H60   H     H_    0.749915 0.545190 0.426376 0.129078
O1    O     O_R   0.783230 0.287800 0.346510 -0.464510
O2    O     O_R   0.454570 0.285140 0.836900 -0.465849
O3    O     O_R   0.045430 0.785140 0.163100 -0.531939
O4    O     O_R   0.954570 0.785140 0.836900 -0.465850
O5    O     O_R   0.677850 0.374730 0.185500 -0.510852
O6    O     O_R   0.322150 0.374730 0.814500 -0.535527
O7    O     O_R   0.177850 0.874730 0.185500 -0.510853
O8    O     O_R   0.822150 0.874730 0.814500 -0.535527
O9    O     O_3   0.664630 0.164620 0.255130 -0.311276
O10   O     O_3   0.335370 0.164620 0.744870 -0.313687
O11   O     O_3   0.164630 0.664620 0.255130 -0.311277
O12   O     O_R   0.216770 0.287800 0.653490 -0.446493
O13   O     O_3   0.835370 0.664620 0.744870 -0.313689
O14   O     O_R   0.760130 0.037060 0.338610 -0.484984
O15   O     O_R   0.239870 0.037060 0.661390 -0.512107
O16   O     O_R   0.260130 0.537060 0.338610 -0.484994
O17   O     O_R   0.739870 0.537060 0.661390 -0.512112
O18   O     O_R   0.666620 0.921370 0.332440 -0.528262
O19   O     O_R   0.333380 0.921370 0.667560 -0.523063
O20   O     O_R   0.166620 0.421370 0.332440 -0.528260
O21   O     O_R   0.833380 0.421370 0.667560 -0.523050
O22   O     O_R   0.557170 0.082420 0.312350 -0.502218
O23   O     O_R   0.283230 0.787800 0.346510 -0.464487
O24   O     O_R   0.442830 0.082420 0.687650 -0.491530
O25   O     O_R   0.057170 0.582420 0.312350 -0.502221
O26   O     O_R   0.942830 0.582420 0.687650 -0.491531
O27   O     O_R   0.548310 0.285980 0.316250 -0.511626
O28   O     O_R   0.451690 0.285980 0.683750 -0.510507
O29   O     O_R   0.048310 0.785980 0.316250 -0.511626
O30   O     O_R   0.951690 0.785980 0.683750 -0.510505
O31   O     O_R   0.680520 0.375500 0.327470 -0.506771
O32   O     O_R   0.319480 0.375500 0.672530 -0.514290
O33   O     O_R   0.180520 0.875500 0.327470 -0.506771
O34   O     O_R   0.716770 0.787800 0.653490 -0.446496
O35   O     O_R   0.819480 0.875500 0.672530 -0.514284
O36   O     O_R   0.780350 0.286970 0.193350 -0.516968
O37   O     O_R   0.219650 0.286970 0.806650 -0.501631
O38   O     O_R   0.280350 0.786970 0.193350 -0.516966
O39   O     O_R   0.719650 0.786970 0.806650 -0.501630
O40   O     O_R   0.757460 0.036290 0.196640 -0.490700
O41   O     O_R   0.242540 0.036290 0.803360 -0.498450
O42   O     O_R   0.257460 0.536290 0.196640 -0.490697
O43   O     O_R   0.742540 0.536290 0.803360 -0.498451
O44   O     O_R   0.663740 0.920540 0.179290 -0.495732
O45   O     O_R   0.554500 0.081650 0.170370 -0.516032
O46   O     O_R   0.336260 0.920540 0.820710 -0.517593
O47   O     O_R   0.163740 0.420540 0.179290 -0.495731
O48   O     O_R   0.836260 0.420540 0.820710 -0.517591
O49   O     O_3   0.834796 0.203719 0.474077 -0.554057
O50   O     O_3   0.135034 0.355971 0.543761 -0.536346
O51   O     O_3   0.334821 0.703760 0.474081 -0.554022
O52   O     O_3   0.635036 0.855993 0.543761 -0.536356
O53   O     O_3   0.605475 0.169386 0.996569 -0.561768
O54   O     O_3   0.336350 0.133371 0.008176 -0.555909
O55   O     O_3   0.105475 0.669397 0.996567 -0.561765
O56   O     O_R   0.445500 0.081650 0.829630 -0.490197
O57   O     O_3   0.836351 0.633363 0.008175 -0.555911
O58   O     O_3   0.512033 0.386603 0.952877 -0.543962
O59   O     O_3   0.410458 0.344938 0.078212 -0.554507
O60   O     O_3   0.012029 0.886607 0.952878 -0.543960
O61   O     O_3   0.910457 0.844934 0.078214 -0.554511
O62   O     O_R   0.054500 0.581650 0.170370 -0.516034
O63   O     O_R   0.945500 0.581650 0.829630 -0.490198
O64   O     O_R   0.545430 0.285140 0.163100 -0.531940

loop_
_geom_bond_atom_site_label_1
_geom_bond_atom_site_label_2
_ccdc_geom_bond_type
C61   C70   T    
C76   C104  S    
C44   C48   S    
Cr8   O9    S    
C13   C79   S    
Cr3   O11   S    
C85   O2    A    
C15   H2    S    
Cr12  O27   S    
C85   O56   A    
C4    O53   S    
C14   C18   S    
C9    H49   S    
C1    O18   A    
Cr11  O21   S    
C59   C82   S    
C32   O16   A    
C2    C65   S    
Cr10  O20   S    
C44   O57   S    
C88   O63   A    
Cr3   O29   S    
C6    H39   S    
C27   C54   S    
C48   C57   S    
Cr4   O4    S    
C29   C76   S    
C66   C70   S    
C15   C19   S    
Cr5   O10   S    
Cr7   O17   S    
C75   O31   A    
C31   C43   S    
C62   C67   S    
C52   O26   A    
C28   C65   S    
Cr7   O43   S    
C36   C37   S    
C16   H3    S    
C105  H59   S    
C38   C42   S    
C24   O50   S    
C38   C39   S    
C59   C68   T    
C55   H15   S    
C22   H6    S    
C20   C25   S    
C61   C80   S    
C10   H52   S    
C66   C74   T    
C96   C100  T    
C19   H8    S    
Cr8   O18   S    
C56   C57   S    
C42   C57   S    
C52   C95   S    
Cr12  O64   S    
Cr4   O35   S    
C74   C92   S    
Cr5   O12   S    
C44   C56   S    
C103  H56   S    
C90   O37   A    
C22   C26   S    
C77   O32   A    
C6    H38   S    
C49   O22   A    
C16   C104  S    
C79   O34   A    
C104  H58   S    
C7    O57   S    
Cr1   O9    S    
C11   H54   S    
C12   C78   S    
C46   C55   S    
C43   O21   A    
C64   C73   T    
C48   C88   S    
C36   C46   S    
C11   H57   S    
C23   C27   S    
C49   C94   S    
C107  H21   S    
Cr9   O24   S    
C93   C99   T    
C38   C48   S    
Cr9   O19   S    
C16   C20   S    
C51   C96   S    
C108  H27   S    
C83   O43   A    
Cr8   O22   S    
Cr1   O36   S    
Cr12  O31   S    
C79   O35   A    
C4    H33   S    
Cr7   O13   S    
C45   C53   S    
C3    H28   S    
Cr12  O5    S    
C52   O30   A    
Cr3   O7    S    
Cr5   O15   S    
Cr7   O39   S    
C9    H50   S    
C7    H41   S    
C21   O19   A    
C84   O45   A    
C78   O33   A    
Cr5   O37   S    
C97   C99   S    
C14   C102  S    
Cr11  O48   S    
C14   C98   S    
C108  H26   S    
C83   O48   A    
C53   C55   S    
C36   O58   S    
C40   C45   S    
C4    H32   S    
C7    H42   S    
C39   O61   S    
Cr9   O46   S    
C3    H29   S    
C81   O46   A    
C27   C31   S    
C18   C23   S    
C31   C102  S    
C12   C16   S    
C36   C40   S    
Cr10  O25   S    
C78   O23   A    
C73   C91   S    
C88   O4    A    
C84   O64   A    
C8    H44   S    
C21   C34   S    
C90   O6    A    
Cr9   O56   S    
C26   O52   S    
C10   H51   S    
C5    H35   S    
C7    H43   S    
C29   C34   S    
Cr2   O10   S    
C75   C98   S    
C34   C104  S    
Cr7   O34   S    
Cr11  O13   S    
Cr4   O30   S    
Cr8   O44   S    
C92   O39   A    
C47   C86   S    
C9    O59   S    
C35   C105  S    
C8    H47   S    
C17   C105  S    
C18   H7    S    
C80   O44   A    
C72   C90   S    
C42   O55   S    
C51   O29   A    
C17   H4    S    
C106  H20   S    
C87   C105  S    
C41   C46   S    
C40   C55   S    
C41   C53   S    
C13   C87   S    
Cr3   O3    S    
C87   H34   S    
C57   H17   S    
Cr1   O14   S    
C43   O17   A    
Cr11  O26   S    
C64   C69   S    
C21   O15   A    
C107  H22   S    
C2    C15   S    
C47   C56   S    
C6    O55   S    
Cr5   O41   S    
C23   O49   S    
Cr6   O16   S    
C71   C89   S    
C89   O36   A    
C30   C35   S    
C54   H1    S    
C25   O51   S    
C28   C33   S    
C56   H16   S    
C102  H45   S    
C5    H37   S    
C5    O54   S    
C12   C76   S    
Cr10  O11   S    
C2    C24   S    
C86   O3    A    
C11   O61   S    
C30   H13   S    
C13   C26   S    
C45   C84   S    
C65   C103  S    
C39   C44   S    
C37   C45   S    
C75   O1    A    
C65   H12   S    
C1    C35   S    
C39   C47   S    
C108  H25   S    
Cr1   O1    S    
C4    H31   S    
C91   O7    A    
C63   C68   S    
Cr2   O6    S    
C3    H30   S    
Cr6   O11   S    
C33   C103  S    
C77   O12   A    
C89   O5    A    
C54   C102  S    
C9    H48   S    
Cr2   O32   S    
C53   H14   S    
C24   C28   S    
C19   C33   S    
C40   O53   S    
Cr3   O33   S    
C3    O52   S    
Cr4   O8    S    
C6    H40   S    
C51   O25   A    
C50   C93   S    
C26   C30   S    
C10   O60   S    
C82   O42   A    
C8    O58   S    
C50   O24   A    
C5    H36   S    
C81   O41   A    
C82   O47   A    
Cr8   O45   S    
C11   H55   S    
C17   C22   S    
C94   C97   T    
C106  O49   S    
C13   C17   S    
C12   C25   S    
Cr10  O47   S    
C32   C33   S    
C46   C85   S    
C91   O38   A    
C22   C35   S    
C1    O14   A    
C107  H24   S    
C20   C34   S    
C20   H5    S    
C32   O20   A    
C2    C77   S    
Cr12  O9    S    
C25   C29   S    
C106  H19   S    
C29   H11   S    
C60   C69   T    
C10   H53   S    
C27   H9    S    
C8    H46   S    
C100  C101  S    
C60   C81   S    
C62   C71   T    
C19   C24   S    
C28   H10   S    
C42   C47   S    
C37   C41   S    
C106  H18   S    
Cr4   O13   S    
C37   O59   S    
Cr9   O10   S    
Cr6   O38   S    
C80   O40   A    
C38   O60   S    
C76   H23   S    
C95   C101  T    
C58   C67   T    
C23   C98   S    
C63   C72   T    
Cr2   O2    S    
C41   O54   S    
C107  O50   S    
Cr1   O40   S    
C49   O27   A    
Cr6   O23   S    
C54   C98   S    
Cr2   O28   S    
C18   C31   S    
C15   C103  S    
C30   C87   S    
C58   C83   S    
Cr11  O63   S    
C14   H60   S    
C92   O8    A    
Cr10  O62   S    
C86   O62   A    
Cr6   O42   S    
C108  O51   S    
C50   O28   A    
