data_mof_unit_4922.cif
_audit_creation_date              2012-12-11T17:09:28-0500
_audit_creation_method            fapswitch 2.2
_symmetry_space_group_name_H-M    P1
_symmetry_Int_Tables_number       1
_space_group_crystal_system       triclinic
_cell_length_a                    14.820322
_cell_length_b                    6.960984
_cell_length_c                    13.504341
_cell_angle_alpha                 90.000014
_cell_angle_beta                  99.894807
_cell_angle_gamma                 90.000015
_cell_volume                      1372.43874363

loop_
_atom_site_label
_atom_site_type_symbol
_atom_type_description
_atom_site_fract_x
_atom_site_fract_y
_atom_site_fract_z
_atom_type_partial_charge
O1    O     O_R   0.586930 0.505770 0.416350 -0.525851
O2    O     O_R   0.413070 0.005770 0.583650 -0.525851
O3    O     O_R   0.397900 0.173100 0.389630 -0.538546
O4    O     O_R   0.602100 0.673100 0.610370 -0.538546
C1    C     C_R   0.364369 0.345386 0.362901 0.728349
C2    C     C_R   0.635631 0.845386 0.637099 0.728348
O5    O     O_R   0.585280 0.175870 0.404330 -0.549023
O6    O     O_R   0.414720 0.675870 0.595670 -0.549023
O7    O     O_R   0.601790 0.008380 0.598460 -0.533160
O8    O     O_R   0.398210 0.508380 0.401540 -0.533160
C3    C     C_R   0.614145 0.344920 0.382309 0.718783
C4    C     C_R   0.385855 0.844920 0.617691 0.718783
O9    O     O_3   0.505200 0.340120 0.563670 -0.355236
O10   O     O_3   0.494800 0.840120 0.436330 -0.355236
V1    V     V_3+5 0.499040 0.064180 0.488190 1.511800
V2    V     V_3+5 0.500960 0.564180 0.511810 1.511800
C5    C     C_R   0.261368 0.017906 0.686929 0.013984
C6    C     C_R   0.738631 0.517906 0.313070 0.013985
C7    C     C_R   0.315533 0.854315 0.683777 -0.062255
C8    C     C_R   0.684467 0.354315 0.316223 -0.062255
C9    C     C_R   0.301381 0.700862 0.746589 -0.147727
C10   C     C_R   0.698619 0.200861 0.253411 -0.147728
H1    H     H_    0.345636 0.578401 0.751009 0.192192
H2    H     H_    0.654364 0.078401 0.248992 0.192191
C11   C     C_R   0.235510 0.711285 0.810117 -0.151326
C12   C     C_R   0.764491 0.211285 0.189884 -0.151327
H3    H     H_    0.230221 0.593852 0.861125 0.141090
H4    H     H_    0.769779 0.093852 0.138876 0.141090
C13   C     C_R   0.181601 0.877048 0.813058 -0.075150
C14   C     C_R   0.818398 0.377048 0.186942 -0.075150
C15   C     C_R   0.194460 0.028116 0.748370 0.027250
C16   C     C_R   0.805539 0.528117 0.251629 0.027250
C17   C     C_3   0.217854 0.231171 0.776135 -0.428082
C18   C     C_3   0.782145 0.731171 0.223864 -0.428084
C19   C     C_3   0.292895 0.217616 0.712882 0.248121
C20   C     C_3   0.707104 0.717616 0.287118 0.248122
H5    H     H_    0.243047 0.249137 0.858072 0.209228
H6    H     H_    0.756951 0.749135 0.141927 0.209229
H7    H     H_    0.161533 0.330169 0.744005 0.132923
H8    H     H_    0.838466 0.830170 0.255993 0.132923
H9    H     H_    0.282870 0.313982 0.646270 0.060540
H10   H     H_    0.717130 0.813983 0.353729 0.060540
C21   C     C_1   0.783477 0.877158 0.782892 -0.173342
C22   C     C_1   0.216523 0.377158 0.217108 -0.173342
C23   C     C_1   0.716153 0.860096 0.716806 -0.159200
C24   C     C_1   0.283847 0.360096 0.283194 -0.159200
O11   O     O_R   0.101720 0.231700 0.098560 -0.534896
O12   O     O_R   0.898280 0.731700 0.901440 -0.534896
O13   O     O_R   0.914700 0.558980 0.095690 -0.539652
O14   O     O_R   0.085300 0.058980 0.904310 -0.539652
C25   C     C_R   0.885158 0.389867 0.116885 0.697980
C26   C     C_R   0.114842 0.889867 0.883115 0.697980
O15   O     O_R   0.102080 0.561590 0.110390 -0.536436
O16   O     O_R   0.897920 0.061590 0.889610 -0.536436
O17   O     O_R   0.086950 0.728940 0.916330 -0.544342
O18   O     O_R   0.913050 0.228940 0.083670 -0.544342
C27   C     C_R   0.135999 0.391950 0.137401 0.732213
C28   C     C_R   0.864001 0.891950 0.862599 0.732214
O19   O     O_3   0.994770 0.394510 0.936380 -0.370866
O20   O     O_3   0.005230 0.894510 0.063620 -0.370867
V3    V     V_3+5 0.000970 0.670520 0.011800 1.428898
V4    V     V_3+5 0.999030 0.170520 0.988200 1.428898
Cl1   Cl    Cl    0.405420 0.222848 0.788084 -0.618261
Cl2   Cl    Cl    0.594579 0.722847 0.211916 -0.618260

loop_
_geom_bond_atom_site_label_1
_geom_bond_atom_site_label_2
_ccdc_geom_bond_type
O4    V2    S    
O5    C3    A    
C14   C25   S    
C15   C17   S    
O9    V2    S    
O12   C28   A    
C7    C9    A    
C2    C23   S    
O11   C27   A    
O16   V4    S    
C1    C24   S    
C20   H10   S    
O1    C3    A    
C26   O17   A    
C22   C27   S    
O6    C4    A    
O2    C4    A    
C2    O7    A    
O5    V1    S    
O7    V1    S    
O3    V1    S    
C1    O8    A    
C13   C15   A    
O1    V2    S    
O8    V2    S    
C14   C16   A    
O2    V1    S    
C21   C23   T    
O12   V3    S    
C17   H7    S    
C6    C20   S    
O11   V4    S    
C19   H9    S    
O17   V3    S    
C4    C7    S    
O20   V4    S    
C12   H4    S    
C17   C19   S    
C18   C20   S    
C8    C10   A    
C12   C14   A    
O18   V4    S    
O9    V1    S    
C9    H1    S    
C11   C13   A    
C11   H3    S    
C5    C15   A    
O10   V2    S    
C3    C8    S    
O19   V3    S    
O14   V4    S    
C6    C16   A    
C20   Cl2   S    
O13   V3    S    
C6    C8    A    
O4    C2    A    
C25   O18   A    
C10   C12   A    
C10   H2    S    
O16   C28   A    
O14   C26   A    
C9    C11   A    
O10   V1    S    
C18   H8    S    
O19   V4    S    
O15   C27   A    
O6    V2    S    
C5    C19   S    
C21   C28   S    
C5    C7    A    
C18   H6    S    
O15   V3    S    
C19   Cl1   S    
C17   H5    S    
O13   C25   A    
C22   C24   T    
O20   V3    S    
O3    C1    A    
C13   C26   S    
C16   C18   S    
