data_mof_unit_4501.cif
_audit_creation_date              2012-12-10T20:47:08-0500
_audit_creation_method            fapswitch 2.2
_symmetry_space_group_name_H-M    P1
_symmetry_Int_Tables_number       1
_space_group_crystal_system       triclinic
_cell_length_a                    10.636717
_cell_length_b                    8.921016
_cell_length_c                    8.126534
_cell_angle_alpha                 89.884895
_cell_angle_beta                  90.017213
_cell_angle_gamma                 89.948623
_cell_volume                      771.127531082

loop_
_atom_site_label
_atom_site_type_symbol
_atom_type_description
_atom_site_fract_x
_atom_site_fract_y
_atom_site_fract_z
_atom_type_partial_charge
C1    C     C_R   0.500047 0.218090 0.500092 0.932886
C2    C     C_R   0.065529 0.642382 0.550144 0.052621
C3    C     C_R   0.127961 0.510852 0.499508 -0.068057
C4    C     C_R   0.872024 0.510531 0.499722 -0.061867
C5    C     C_R   0.064411 0.384207 0.445206 -0.204648
C6    C     C_R   0.935900 0.384093 0.445192 -0.199131
C7    C     C_1   0.500057 0.065222 0.500185 -0.195101
C8    C     C_1   0.500056 0.934758 0.499874 -0.197727
C9    C     C_R   0.500026 0.781906 0.499867 0.903925
C10   C     C_R   0.259910 0.502238 0.499955 0.864339
C11   C     C_R   0.740095 0.501835 0.500010 0.857117
C12   C     C_R   0.130606 0.773862 0.595962 -0.227899
C13   C     C_R   0.868691 0.773177 0.596991 -0.256943
C14   C     C_R   0.065914 0.904104 0.641466 0.169130
C15   C     C_R   0.933441 0.903624 0.641924 0.119935
C16   C     C_R   0.934108 0.642122 0.550447 0.073158
H1    H     H_    0.114622 0.284893 0.405076 0.157418
H2    H     H_    0.885962 0.284827 0.404732 0.146187
H3    H     H_    0.232238 0.777614 0.594649 0.151347
H4    H     H_    0.767050 0.776540 0.596881 0.146329
H5    H     H_    0.186095 0.011521 0.792615 0.190674
H6    H     H_    0.079452 0.126707 0.707974 0.217299
H7    H     H_    0.805844 0.064259 0.588503 0.177620
H8    H     H_    0.806600 0.007792 0.786961 0.199475
N1    N     N_1   0.500000 0.500000 0.073640 -0.029951
N2    N     N_1   0.500000 0.500000 0.926360 -0.029932
N3    N     N_3   0.137621 0.035078 0.683646 -0.466365
N4    N     N_3   0.864201 0.035069 0.687078 -0.473291
O1    O     O_R   0.500000 0.285350 0.636850 -0.613013
O2    O     O_R   0.500000 0.714650 0.636850 -0.624970
O3    O     O_R   0.500000 0.285360 0.363100 -0.615718
O4    O     O_R   0.500000 0.714640 0.363100 -0.610016
O5    O     O_R   0.316770 0.500000 0.636900 -0.617367
O6    O     O_R   0.683230 0.500000 0.636900 -0.616702
O7    O     O_R   0.316780 0.500000 0.363150 -0.613633
O8    O     O_R   0.683220 0.500000 0.363150 -0.615337
Zn1   Zn    Zn3+2 0.500000 0.500000 0.682780 0.986284
Zn2   Zn    Zn3+2 0.500000 0.500000 0.317220 0.991926

loop_
_geom_bond_atom_site_label_1
_geom_bond_atom_site_label_2
_ccdc_geom_bond_type
C4    C16   A    
N2    Zn1   S    
C10   O7    A    
O4    Zn2   S    
C14   N3    S    
O6    Zn1   S    
C2    C16   A    
C13   H4    S    
O3    Zn2   S    
C2    C12   A    
O8    Zn2   S    
C2    C3    A    
H5    N3    S    
C7    C8    T    
C3    C10   S    
H7    N4    S    
C4    C11   S    
C15   N4    S    
C9    O2    A    
C6    H2    S    
C12   H3    S    
C1    O1    A    
C11   O8    A    
C12   C14   A    
C10   O5    A    
H6    N3    S    
C13   C15   A    
C5    C6    A    
N1    Zn2   S    
C5    H1    S    
C1    O3    A    
O7    Zn2   S    
C4    C6    A    
C13   C16   A    
O1    Zn1   S    
C14   C15   A    
C9    O4    A    
N1    N2    T    
C1    C7    S    
C11   O6    A    
O5    Zn1   S    
H8    N4    S    
O2    Zn1   S    
C8    C9    S    
C3    C5    A    
