data_mof_unit_129.cif
_audit_creation_date              2012-12-11T17:24:12-0500
_audit_creation_method            fapswitch 2.2
_symmetry_space_group_name_H-M    P1
_symmetry_Int_Tables_number       1
_space_group_crystal_system       triclinic
_cell_length_a                    22.61068
_cell_length_b                    7.314595
_cell_length_c                    21.25258
_cell_angle_alpha                 89.801367
_cell_angle_beta                  93.940209
_cell_angle_gamma                 89.1535
_cell_volume                      3506.19469152

loop_
_atom_site_label
_atom_site_type_symbol
_atom_type_description
_atom_site_fract_x
_atom_site_fract_y
_atom_site_fract_z
_atom_type_partial_charge
O1    O     O_R   0.307200 0.614510 0.194080 -0.524562
O2    O     O_R   0.692800 0.385490 0.805920 -0.537774
O3    O     O_R   0.192800 0.114510 0.305920 -0.539937
O4    O     O_R   0.807200 0.885490 0.694080 -0.531711
O5    O     O_R   0.188140 0.283260 0.181690 -0.561474
O6    O     O_R   0.811860 0.716740 0.818310 -0.531056
O7    O     O_R   0.311860 0.783260 0.318310 -0.548016
O8    O     O_R   0.688140 0.216740 0.681690 -0.540592
C1    C     C_R   0.167942 0.454276 0.167423 0.778270
C2    C     C_R   0.830144 0.544962 0.835365 0.778018
C3    C     C_R   0.331300 0.952333 0.334062 0.785177
C4    C     C_R   0.669537 0.047111 0.664891 0.778593
O9    O     O_R   0.306460 0.284700 0.186400 -0.543415
O10   O     O_R   0.693540 0.715300 0.813600 -0.540575
O11   O     O_R   0.193540 0.784700 0.313600 -0.541028
O12   O     O_R   0.806460 0.215300 0.686400 -0.541131
O13   O     O_R   0.311970 0.115840 0.310660 -0.526150
O14   O     O_R   0.688030 0.884160 0.689340 -0.541510
O15   O     O_R   0.188030 0.615840 0.189340 -0.517336
O16   O     O_R   0.811970 0.384160 0.810660 -0.553787
C5    C     C_R   0.324851 0.453093 0.171660 0.724704
C6    C     C_R   0.675767 0.547116 0.829580 0.716016
C7    C     C_R   0.174164 0.954687 0.327191 0.718178
C8    C     C_R   0.824126 0.046195 0.670662 0.719835
O17   O     O_3   0.251670 0.448440 0.290760 -0.388066
O18   O     O_3   0.748330 0.551560 0.709240 -0.385638
O19   O     O_3   0.248330 0.948440 0.209240 -0.378111
O20   O     O_3   0.751670 0.051560 0.790760 -0.386316
V1    V     V_3+5 0.249690 0.173030 0.242440 1.375741
V2    V     V_3+5 0.750310 0.826970 0.757560 1.361005
V3    V     V_3+5 0.250310 0.673030 0.257560 1.402910
V4    V     V_3+5 0.749690 0.326970 0.742440 1.336722
C9    C     C_R   0.967056 0.151293 0.501736 0.313445
C10   C     C_R   0.029747 0.820798 0.492741 0.308424
C11   C     C_R   0.526784 0.663900 0.993979 0.285622
C12   C     C_R   0.490398 0.328273 0.031359 0.318651
C13   C     C_R   0.952775 0.005510 0.540518 -0.179448
C14   C     C_R   0.043484 0.974094 0.454721 -0.236765
C15   C     C_R   0.551659 0.507969 0.966078 -0.157156
C16   C     C_R   0.454687 0.481085 0.043707 -0.142079
C17   C     C_R   0.989584 0.847360 0.540312 0.313895
C18   C     C_R   0.022218 0.143014 0.475076 0.332566
C19   C     C_R   0.525016 0.338568 0.978412 0.313789
C20   C     C_R   0.469633 0.648077 0.016624 0.315587
C21   C     C_1   0.906044 0.025128 0.585033 0.068321
C22   C     C_1   0.088507 0.975849 0.408065 0.011681
C23   C     C_1   0.596471 0.526310 0.918869 0.014470
C24   C     C_1   0.408107 0.472292 0.088243 0.029542
C25   C     C_1   0.127417 0.969317 0.370954 -0.223492
C26   C     C_1   0.867991 0.036495 0.623128 -0.233399
C27   C     C_1   0.369802 0.463129 0.125816 -0.211727
C28   C     C_1   0.632936 0.538475 0.878757 -0.219639
C29   C     C_R   0.438751 0.901833 0.370375 0.264357
C30   C     C_R   0.561786 0.076486 0.628107 0.293417
C31   C     C_R   0.058431 0.468025 0.137566 0.292414
C32   C     C_R   0.938142 0.509202 0.869671 0.276727
C33   C     C_R   0.381234 0.962094 0.383426 -0.252464
C34   C     C_R   0.620833 0.039288 0.613916 -0.251055
C35   C     C_R   0.117578 0.467185 0.119335 -0.244200
C36   C     C_R   0.879043 0.530530 0.886049 -0.234374
C37   C     C_R   0.371733 0.037859 0.443058 0.329124
C38   C     C_R   0.631944 0.980612 0.552354 0.283032
C39   C     C_R   0.128782 0.487895 0.055334 0.293285
C40   C     C_R   0.866968 0.527221 0.950596 0.313908
C41   C     C_R   0.420797 0.070948 0.486834 0.004143
C42   C     C_R   0.584868 0.978036 0.504327 0.007652
C43   C     C_R   0.081077 0.503615 0.009094 0.023846
C44   C     C_R   0.914804 0.527847 0.998041 0.006624
C45   C     C_R   0.478617 0.016792 0.472346 -0.013549
C46   C     C_R   0.527026 0.033366 0.518251 -0.013831
C47   C     C_R   0.022012 0.506793 0.027151 -0.015649
C48   C     C_R   0.973985 0.519210 0.980449 -0.013882
C49   C     C_R   0.487841 0.938175 0.413320 0.019030
C50   C     C_R   0.516530 0.093014 0.579397 0.028935
C51   C     C_R   0.010848 0.498074 0.091626 0.031540
C52   C     C_R   0.985447 0.517926 0.916166 0.024016
C53   C     C_R   0.413333 0.155150 0.545265 -0.192324
C54   C     C_R   0.594003 0.918280 0.442896 -0.180705
C55   C     C_R   0.091395 0.518555 0.944894 -0.168366
C56   C     C_R   0.905082 0.538624 0.062677 -0.187211
C57   C     C_R   0.460018 0.159990 0.591658 -0.174547
C58   C     C_R   0.546159 0.895835 0.398480 -0.162313
C59   C     C_R   0.044299 0.523270 0.899128 -0.169474
C60   C     C_R   0.952180 0.520804 0.108677 -0.164839
H1    H     H_    0.370666 0.210470 0.556517 0.147446
H2    H     H_    0.638044 0.883603 0.429294 0.152410
H3    H     H_    0.135995 0.522799 0.929459 0.150382
H4    H     H_    0.860789 0.557616 0.078162 0.145652
H5    H     H_    0.451694 0.215073 0.637537 0.152636
H6    H     H_    0.555122 0.844644 0.352358 0.153464
H7    H     H_    0.054209 0.533450 0.850141 0.151734
H8    H     H_    0.942321 0.524812 0.157791 0.155358
O21   O     O_3   0.062637 0.275294 0.493138 -0.543025
C61   C     C_3   0.102216 0.212773 0.544371 0.103729
H9    H     H_    0.148283 0.241560 0.532682 0.113785
H10   H     H_    0.101959 0.063125 0.554055 0.101939
C62   C     C_3   0.088854 0.311507 0.605189 -0.288214
H11   H     H_    0.086232 0.461381 0.596940 0.243247
H12   H     H_    0.045568 0.264540 0.620367 0.190474
C63   C     C_3   0.136604 0.271081 0.657855 -0.869899
H13   H     H_    0.125366 0.343196 0.701441 0.235068
H14   H     H_    0.180312 0.319488 0.644269 0.232449
H15   H     H_    0.139591 0.121933 0.667816 0.238036
O22   O     O_3   0.999547 0.745788 0.594676 -0.564173
C64   C     C_3   0.954165 0.620213 0.600382 0.133568
H16   H     H_    0.972739 0.482773 0.592173 0.196754
H17   H     H_    0.914186 0.642811 0.567022 0.122174
C65   C     C_3   0.936422 0.626102 0.667738 -0.389890
H18   H     H_    0.975455 0.593166 0.700491 0.230738
H19   H     H_    0.920302 0.763206 0.679922 0.207728
C66   C     C_3   0.887803 0.491970 0.675754 -0.642812
H20   H     H_    0.850929 0.513740 0.639317 0.221684
H21   H     H_    0.869974 0.511725 0.722121 0.255647
H22   H     H_    0.906507 0.352117 0.672167 0.210226
O23   O     O_3   0.430506 0.794647 0.014289 -0.581132
C67   C     C_3   0.384891 0.765647 0.966428 0.061797
H23   H     H_    0.343823 0.831665 0.981715 0.148063
H24   H     H_    0.374140 0.618690 0.958536 0.116128
C68   C     C_3   0.400836 0.852886 0.904357 -0.292650
H25   H     H_    0.410119 0.000103 0.911987 0.229180
H26   H     H_    0.441267 0.784900 0.888071 0.188159
C69   C     C_3   0.350620 0.834135 0.853175 -0.846908
H27   H     H_    0.363085 0.901398 0.809205 0.235583
H28   H     H_    0.309423 0.900547 0.868089 0.230871
H29   H     H_    0.342128 0.687483 0.843247 0.234091
O24   O     O_3   0.503901 0.239648 0.926754 -0.582044
C70   C     C_3   0.547075 0.114320 0.908961 0.124703
H30   H     H_    0.527657 0.976755 0.910082 0.177588
H31   H     H_    0.588965 0.113003 0.940279 0.135703
C71   C     C_3   0.560045 0.147524 0.840762 -0.377207
H32   H     H_    0.523369 0.092189 0.809628 0.210406
H33   H     H_    0.562416 0.294470 0.829377 0.222970
C72   C     C_3   0.617820 0.051775 0.828291 -0.666363
H34   H     H_    0.654685 0.102046 0.860491 0.225184
H35   H     H_    0.628583 0.075801 0.779180 0.252331
H36   H     H_    0.612434 0.904315 0.837023 0.205928
O25   O     O_3   0.936249 0.315214 0.503252 -0.569832
C73   C     C_3   0.899814 0.337284 0.446774 0.066377
H37   H     H_    0.862089 0.427918 0.457556 0.143463
H38   H     H_    0.880072 0.206329 0.429230 0.102181
C74   C     C_3   0.933244 0.430089 0.395249 -0.284565
H39   H     H_    0.955997 0.552834 0.414948 0.231432
H40   H     H_    0.966874 0.333928 0.378008 0.181300
C75   C     C_3   0.891298 0.488555 0.339267 -0.874359
H41   H     H_    0.868483 0.367716 0.318102 0.233563
H42   H     H_    0.916977 0.554368 0.302891 0.238999
H43   H     H_    0.857716 0.588495 0.354454 0.232751
O26   O     O_3   0.052329 0.643644 0.489267 -0.541457
C76   C     C_3   0.109047 0.623581 0.466581 0.205343
H44   H     H_    0.134357 0.527543 0.498370 0.148279
H45   H     H_    0.137692 0.744208 0.472010 0.071243
C77   C     C_3   0.102821 0.540407 0.400203 -0.327634
H46   H     H_    0.066280 0.441292 0.396252 0.230304
H47   H     H_    0.090420 0.643978 0.363640 0.185043
C78   C     C_3   0.158930 0.441251 0.384323 -0.689777
H48   H     H_    0.198027 0.528789 0.392925 0.232597
H49   H     H_    0.153732 0.406216 0.333749 0.243687
H50   H     H_    0.165769 0.315290 0.413298 0.224009
O27   O     O_3   0.557450 0.825067 0.003429 -0.577955
C79   C     C_3   0.612966 0.790087 0.037032 0.044064
H51   H     H_    0.647469 0.769129 0.002835 0.149673
H52   H     H_    0.612477 0.667371 0.068515 0.120739
C80   C     C_3   0.630039 0.953854 0.078582 -0.273711
H53   H     H_    0.632465 0.078563 0.048954 0.195412
H54   H     H_    0.595881 0.976788 0.112859 0.220216
C81   C     C_3   0.689526 0.921158 0.115684 -0.868553
H55   H     H_    0.686303 0.805457 0.149211 0.233561
H56   H     H_    0.701977 0.045711 0.142907 0.234988
H57   H     H_    0.724819 0.889231 0.083481 0.240743
O28   O     O_3   0.511705 0.221023 0.081914 -0.586912
C82   C     C_3   0.470640 0.085678 0.095324 0.134222
H58   H     H_    0.492027 0.952680 0.086826 0.206492
H59   H     H_    0.427638 0.096737 0.066238 0.156085
C83   C     C_3   0.458994 0.086341 0.165146 -0.403984
H60   H     H_    0.499631 0.039802 0.193430 0.202011
H61   H     H_    0.447851 0.226356 0.180291 0.214905
C84   C     C_3   0.408134 0.959612 0.177967 -0.645745
H62   H     H_    0.368768 0.988466 0.145066 0.217919
H63   H     H_    0.394896 0.981993 0.226486 0.238379
H64   H     H_    0.422274 0.814789 0.172791 0.225669
O29   O     O_3   0.447021 0.804605 0.315861 -0.579760
C85   C     C_3   0.448736 0.615158 0.330352 0.084781
H65   H     H_    0.403286 0.559512 0.323537 0.143559
H66   H     H_    0.465939 0.584211 0.379910 0.117225
C86   C     C_3   0.488758 0.516173 0.286027 -0.317845
H67   H     H_    0.468354 0.523387 0.236983 0.189599
H68   H     H_    0.532438 0.583986 0.287074 0.198803
C87   C     C_3   0.498665 0.316607 0.305673 -0.823581
H69   H     H_    0.518025 0.307017 0.355074 0.238716
H70   H     H_    0.530191 0.250524 0.274757 0.234783
H71   H     H_    0.456016 0.242789 0.301605 0.237995
O30   O     O_3   0.546120 0.057674 0.689496 -0.584276
C88   C     C_3   0.534941 0.869399 0.701129 0.077880
H72   H     H_    0.561088 0.826751 0.744691 0.139681
H73   H     H_    0.549087 0.773123 0.663985 0.100558
C89   C     C_3   0.469110 0.840195 0.710174 -0.326579
H74   H     H_    0.452663 0.944316 0.742874 0.197367
H75   H     H_    0.443204 0.855026 0.664105 0.195543
C90   C     C_3   0.458739 0.649808 0.736652 -0.828217
H76   H     H_    0.474860 0.543071 0.704639 0.235118
H77   H     H_    0.410590 0.630687 0.741107 0.234621
H78   H     H_    0.482225 0.633297 0.784051 0.235121
O31   O     O_3   0.047242 0.455163 0.200806 -0.581330
C91   C     C_3   0.050847 0.269961 0.220986 0.075043
H79   H     H_    0.068885 0.268308 0.270928 0.141825
H80   H     H_    0.081363 0.183228 0.194296 0.116449
C92   C     C_3   0.989315 0.184239 0.217569 -0.346089
H81   H     H_    0.958341 0.272446 0.242745 0.207527
H82   H     H_    0.972304 0.173180 0.167464 0.196878
C93   C     C_3   0.991287 0.993600 0.247211 -0.808294
H83   H     H_    0.022831 0.903194 0.223619 0.246519
H84   H     H_    0.946526 0.932771 0.241892 0.230505
H85   H     H_    0.005009 0.001752 0.298266 0.231184
O32   O     O_3   0.949833 0.464232 0.808662 -0.586340
C94   C     C_3   0.955022 0.270805 0.803511 0.083836
H86   H     H_    0.915743 0.221106 0.774713 0.141816
H87   H     H_    0.956171 0.194780 0.849380 0.104313
C95   C     C_3   0.011541 0.220582 0.771224 -0.338245
H88   H     H_    0.016027 0.311108 0.729950 0.205705
H89   H     H_    0.050791 0.239241 0.804773 0.189545
C96   C     C_3   0.011016 0.023034 0.748762 -0.802377
H90   H     H_    0.002959 0.928174 0.788115 0.235629
H91   H     H_    0.054302 0.987067 0.730036 0.244176
H92   H     H_    0.975922 0.007757 0.710292 0.234523
O33   O     O_3   0.313955 0.076273 0.457845 -0.572308
C97   C     C_3   0.295676 0.947622 0.502656 0.041738
H93   H     H_    0.256333 0.006833 0.524223 0.133604
H94   H     H_    0.329523 0.921356 0.542207 0.124155
C98   C     C_3   0.277990 0.765247 0.472127 -0.307814
H95   H     H_    0.239349 0.789206 0.438033 0.185830
H96   H     H_    0.315107 0.707520 0.446556 0.196752
C99   C     C_3   0.262455 0.625925 0.521890 -0.864705
H97   H     H_    0.225729 0.678806 0.549157 0.219666
H98   H     H_    0.301726 0.596452 0.554880 0.238017
H99   H     H_    0.248670 0.496034 0.498796 0.239524
O34   O     O_3   0.688147 0.917534 0.540362 -0.573220
C100  C     C_3   0.689509 0.724479 0.546365 0.089805
H100  H     H_    0.659362 0.660485 0.509444 0.113193
H101  H     H_    0.675710 0.680574 0.593334 0.139795
C101  C     C_3   0.752393 0.652558 0.538999 -0.313348
H102  H     H_    0.767291 0.696186 0.492571 0.189545
H103  H     H_    0.782831 0.711164 0.576645 0.206405
C102  C     C_3   0.755065 0.443969 0.543327 -0.813494
H104  H     H_    0.737961 0.396842 0.588187 0.262566
H105  H     H_    0.801563 0.394762 0.541988 0.227207
H106  H     H_    0.728210 0.383039 0.503207 0.231961
O35   O     O_3   0.186146 0.514883 0.038792 -0.572847
C103  C     C_3   0.212618 0.345358 0.024643 0.057348
H107  H     H_    0.182375 0.257935 0.994366 0.112904
H108  H     H_    0.225936 0.270454 0.069063 0.146072
C104  C     C_3   0.267736 0.382774 0.989254 -0.298302
H109  H     H_    0.254208 0.440755 0.941934 0.185112
H110  H     H_    0.295179 0.485362 0.015563 0.203526
C105  C     C_3   0.304719 0.209553 0.981595 -0.839922
H111  H     H_    0.278238 0.106686 0.954195 0.229429
H112  H     H_    0.319565 0.151489 0.028505 0.231405
H113  H     H_    0.344469 0.242491 0.956069 0.237227
O36   O     O_3   0.808321 0.523569 0.966187 -0.577706
C106  C     C_3   0.794356 0.348179 0.989750 0.017027
H114  H     H_    0.753068 0.364011 0.014838 0.149236
H115  H     H_    0.828656 0.292135 0.024877 0.123474
C107  C     C_3   0.783360 0.208912 0.936672 -0.297692
H116  H     H_    0.749440 0.265202 0.901710 0.223375
H117  H     H_    0.825130 0.182087 0.913434 0.193378
C108  C     C_3   0.761330 0.027877 0.961205 -0.813628
H118  H     H_    0.793659 0.969567 0.997876 0.238257
H119  H     H_    0.755866 0.928868 0.921820 0.262316
H120  H     H_    0.717672 0.048916 0.981081 0.216841

loop_
_geom_bond_atom_site_label_1
_geom_bond_atom_site_label_2
_ccdc_geom_bond_type
C34   C38   A    
C55   C59   A    
O31   C91   S    
O1    C5    A    
O21   C61   S    
C32   C52   A    
C31   C35   A    
C12   O28   S    
C78   H49   S    
C18   O21   S    
O13   V1    S    
O3    C7    A    
C66   H20   S    
C48   C52   A    
C106  C107  S    
O15   V3    S    
C107  C108  S    
C55   H3    S    
C62   H11   S    
C86   H67   S    
C104  H109  S    
C42   C46   A    
O29   C85   S    
C65   H18   S    
O7    C3    A    
C64   H17   S    
C22   C25   T    
C98   H95   S    
C30   O30   S    
C87   H71   S    
C9    C18   A    
C40   C44   A    
O2    V4    S    
C80   H54   S    
C14   C18   A    
C96   H92   S    
C74   H40   S    
C93   H83   S    
C30   C34   A    
C11   C15   A    
O4    C8    A    
C84   H64   S    
C51   C60   A    
C86   H68   S    
O19   V1    S    
O28   C82   S    
O23   C67   S    
O1    V3    S    
C67   H23   S    
C52   C59   A    
C87   H70   S    
C33   C37   A    
O3    V1    S    
C83   H60   S    
C99   H97   S    
C105  H112  S    
C30   C50   A    
C10   O26   S    
C1    O15   A    
C24   C27   T    
C80   H53   S    
C20   O23   S    
C9    O25   S    
C102  H105  S    
C102  H104  S    
C46   C50   A    
C92   C93   S    
C77   C78   S    
C70   H30   S    
C45   C49   A    
O14   V2    S    
C82   H58   S    
C66   H22   S    
C108  H118  S    
C32   O32   S    
C88   H72   S    
C103  C104  S    
C56   C60   A    
C31   C51   A    
C54   H2    S    
O11   C7    A    
C37   O33   S    
O25   C73   S    
C53   H1    S    
C90   H76   S    
O12   C8    A    
C100  H100  S    
C56   H4    S    
C78   H50   S    
C81   H56   S    
C61   H9    S    
C10   C17   A    
O10   V2    S    
C75   H43   S    
C19   O24   S    
C101  H103  S    
O22   C64   S    
C62   H12   S    
C103  H108  S    
O5    V1    S    
C68   H26   S    
C8    C26   S    
C42   C54   A    
C82   C83   S    
C39   C43   A    
O7    V3    S    
C38   C42   A    
C92   H81   S    
O8    V4    S    
C79   C80   S    
C12   C16   A    
C80   C81   S    
C38   O34   S    
O26   C76   S    
C44   C48   A    
C75   H42   S    
O34   C100  S    
C74   C75   S    
C2    O16   A    
C29   C33   A    
O32   C94   S    
C89   H74   S    
C86   C87   S    
C15   C19   A    
C61   C62   S    
C88   H73   S    
C101  C102  S    
C9    C13   A    
C32   C36   A    
C87   H69   S    
C1    C35   S    
C85   C86   S    
C79   H52   S    
C71   H33   S    
C94   H86   S    
C70   H31   S    
O5    C1    A    
C96   H90   S    
C29   O29   S    
C90   H78   S    
C41   C53   A    
C82   H59   S    
C54   C58   A    
C95   H89   S    
O27   C79   S    
C37   C41   A    
C91   C92   S    
C53   C57   A    
O8    C4    A    
C102  H106  S    
C31   O31   S    
C99   H98   S    
O33   C97   S    
O9    C5    A    
C66   H21   S    
C65   C66   S    
C64   C65   S    
C91   H79   S    
C61   H10   S    
C11   C20   A    
C108  H119  S    
C83   C84   S    
C107  H116  S    
C73   H38   S    
C67   H24   S    
C72   H36   S    
C89   H75   S    
O6    V2    S    
C77   H47   S    
C84   H62   S    
C93   H84   S    
C100  H101  S    
C72   H34   S    
C76   C77   S    
C71   C72   S    
C50   C57   A    
C69   H28   S    
C106  H114  S    
C93   H85   S    
C49   C58   A    
C5    C27   S    
C62   C63   S    
C59   H7    S    
C103  H107  S    
C40   O36   S    
C95   C96   S    
C15   C23   S    
C63   H14   S    
O16   V4    S    
C68   C69   S    
O9    V1    S    
C16   C24   S    
C2    C36   S    
C3    O13   A    
C94   C95   S    
C85   H66   S    
C89   C90   S    
C10   C14   A    
C35   C39   A    
O17   V3    S    
C29   C49   A    
C91   H80   S    
C75   H41   S    
C104  C105  S    
C73   C74   S    
O6    C2    A    
C107  H117  S    
C68   H25   S    
C67   C68   S    
O11   V3    S    
C23   C28   T    
O18   V4    S    
O12   V4    S    
C97   C98   S    
C39   O35   S    
C64   H16   S    
C97   H94   S    
C58   H6    S    
C17   O22   S    
C36   C40   A    
C79   H51   S    
O2    C6    A    
C105  H111  S    
C76   H45   S    
C71   H32   S    
C70   C71   S    
C4    C34   S    
C47   C48   A    
C98   H96   S    
C106  H115  S    
C3    C33   S    
C76   H44   S    
O30   C88   S    
C44   C56   A    
C47   C51   A    
O10   C6    A    
C95   H88   S    
C81   H55   S    
C65   H19   S    
C21   C26   T    
C69   H29   S    
O24   C70   S    
C41   C45   A    
O20   V2    S    
C101  H102  S    
C83   H61   S    
C84   H63   S    
O36   C106  S    
C6    C28   S    
C43   C47   A    
C63   H15   S    
C57   H5    S    
C13   C17   A    
C45   C46   A    
C108  H120  S    
C11   O27   S    
C14   C22   S    
C94   H87   S    
C104  H110  S    
C73   H37   S    
C99   H99   S    
C98   C99   S    
C88   C89   S    
C105  H113  S    
C16   C20   A    
C7    C25   S    
C77   H46   S    
C81   H57   S    
C96   H91   S    
C97   H93   S    
C100  C101  S    
C4    O14   A    
C78   H48   S    
C90   H77   S    
C72   H35   S    
C12   C19   A    
C63   H13   S    
C92   H82   S    
C60   H8    S    
C69   H27   S    
C74   H39   S    
C13   C21   S    
C43   C55   A    
O4    V2    S    
C85   H65   S    
O35   C103  S    
