data_mof_unit_4337.cif
_audit_creation_date              2013-03-05T15:46:34-0500
_audit_creation_method            fapswitch 2.2
_symmetry_space_group_name_H-M    P1
_symmetry_Int_Tables_number       1
_space_group_crystal_system       triclinic
_cell_length_a                    10.678785
_cell_length_b                    11.03217
_cell_length_c                    9.836098
_cell_angle_alpha                 110.991568
_cell_angle_beta                  98.169137
_cell_angle_gamma                 91.10651
_cell_volume                      1067.81368218

loop_
_atom_site_label
_atom_site_type_symbol
_atom_site_description
_atom_site_fract_x
_atom_site_fract_y
_atom_site_fract_z
_atom_type_partial_charge
O1    O     O_R   0.511880 0.332340 0.577400 -0.582932
O2    O     O_R   0.488120 0.667660 0.422600 -0.582941
O3    O     O_R   0.474280 0.295500 0.332650 -0.560401
O4    O     O_R   0.525720 0.704500 0.667350 -0.560379
C1    C     C_R   0.490694 0.254207 0.440767 0.909799
C2    C     C_R   0.509306 0.745793 0.559233 0.909743
O5    O     O_R   0.335640 0.518390 0.622350 -0.596280
O6    O     O_R   0.664360 0.481610 0.377650 -0.596276
O7    O     O_R   0.298050 0.481550 0.377590 -0.531837
O8    O     O_R   0.701950 0.518450 0.622410 -0.531767
C3    C     C_R   0.260010 0.500072 0.501178 0.942991
C4    C     C_R   0.739997 0.499940 0.498826 0.942942
Cu1   Cu    Cu3+1 0.522260 0.521810 0.644920 1.042122
Cu2   Cu    Cu3+1 0.477740 0.478190 0.355080 1.042086
C5    C     C_3   0.059653 0.519940 0.639751 -0.332160
C6    C     C_3   0.940361 0.480080 0.360253 -0.332212
C7    C     C_3   0.962007 0.405889 0.541590 0.267793
C8    C     C_3   0.038010 0.594130 0.458417 0.267736
H1    H     H_    0.107250 0.536135 0.753445 0.214347
H2    H     H_    0.892760 0.463889 0.246571 0.214369
C9    C     C_3   0.875495 0.499651 0.497302 -0.261217
C10   C     C_3   0.124514 0.500360 0.502705 -0.261182
C11   C     C_3   0.972819 0.613251 0.592262 0.268484
C12   C     C_3   0.027181 0.386773 0.407748 0.268543
H3    H     H_    0.479409 0.864791 0.368542 0.186073
H4    H     H_    0.520591 0.135209 0.631458 0.186070
C13   C     C_2   0.485453 0.114932 0.407432 -0.233866
C14   C     C_2   0.514547 0.885068 0.592568 -0.233893
C15   C     C_2   0.502574 0.069558 0.516618 -0.092679
C16   C     C_2   0.497425 0.930442 0.483382 -0.092691
H5    H     H_    0.532490 0.951013 0.707207 0.163559
H6    H     H_    0.467510 0.048987 0.292793 0.163547
H7    H     H_    0.415994 0.416630 0.845723 0.168167
H8    H     H_    0.584006 0.583370 0.154277 0.168158
N1    N     N_2   0.444270 0.445410 0.137360 -0.277429
N2    N     N_2   0.555730 0.554590 0.862640 -0.277421
C17   C     C_2   0.510561 0.510613 0.081292 -0.045788
C18   C     C_2   0.489439 0.489387 0.918708 -0.045804
H9    H     H_    0.624401 0.623537 0.934557 0.223461
H10   H     H_    0.375599 0.376463 0.065442 0.223445
N3    N     N_R   0.924040 0.298640 0.584264 0.167408
O9    O     O_R   0.009849 0.229101 0.621035 -0.269869
O10   O     O_R   0.805027 0.268678 0.580918 -0.342297
N4    N     N_R   0.075972 0.701383 0.415743 0.167432
O11   O     O_R   0.990163 0.770921 0.378973 -0.269895
O12   O     O_R   0.194982 0.731345 0.419083 -0.342281
N5    N     N_R   0.946945 0.740855 0.692286 0.172183
O13   O     O_R   0.040853 0.825571 0.768959 -0.263170
O14   O     O_R   0.831079 0.773064 0.701088 -0.336385
N6    N     N_R   0.053048 0.259173 0.307716 0.172240
O15   O     O_R   0.959164 0.174539 0.230863 -0.263231
O16   O     O_R   0.168905 0.226874 0.299210 -0.336411

loop_
_geom_bond_atom_site_label_1
_geom_bond_atom_site_label_2
_geom_bond_distance
_ccdc_geom_bond_type
N6    O16   1.299911 A    
O7    Cu2   1.962159 S    
C6    C9    1.551210 S    
C8    C10   1.535801 S    
C8    N4    1.458155 S    
C13   C15   1.330534 D    
H8    C17   1.085178 S    
N3    O10   1.299871 A    
N3    O9    1.300301 A    
C3    C10   1.449205 S    
H7    C18   1.085179 S    
O6    C4    1.288925 A    
C6    H2    1.110176 S    
C14   C16   1.330535 D    
N1    H10   1.030657 S    
N5    O14   1.300040 A    
C6    C12   1.547832 S    
O2    C2    1.294771 A    
Cu1   Cu2   2.684818 S    
O5    C3    1.288877 A    
O7    C3    1.284555 A    
C15   C16   1.448279 S    
O3    Cu2   1.946374 S    
O8    C4    1.284572 A    
Cu1   N2    2.016740 S    
C8    C11   1.526270 S    
O1    C1    1.294770 A    
C5    C11   1.547923 S    
N1    C17   1.303156 D    
C17   C18   1.513359 S    
N4    O12   1.299844 A    
C5    H1    1.110259 S    
C7    N3    1.458140 S    
C9    C11   1.535689 S    
C12   N6    1.458061 S    
O2    Cu2   1.948872 S    
C10   C12   1.535658 S    
O4    C2    1.290881 A    
O1    Cu1   1.948872 S    
N2    C18   1.303157 D    
C7    C12   1.526145 S    
O5    Cu1   1.971706 S    
C11   N5    1.458086 S    
N4    O11   1.300300 A    
H4    C15   1.088223 S    
C6    C8    1.547757 S    
C5    C10   1.551128 S    
O4    Cu1   1.946373 S    
C5    C7    1.547738 S    
N2    H9    1.030657 S    
H3    C16   1.088223 S    
O6    Cu2   1.971706 S    
N6    O15   1.300438 A    
C13   H6    1.087634 S    
C1    C13   1.449827 S    
C4    C9    1.449215 S    
Cu2   N1    2.016740 S    
C14   H5    1.087634 S    
C2    C14   1.449826 S    
N5    O13   1.300678 A    
O3    C1    1.290881 A    
O8    Cu1   1.962159 S    
C7    C9    1.535779 S    
