data_mof_unit_1033.cif
_audit_creation_date              2012-12-11T16:35:18-0500
_audit_creation_method            fapswitch 2.2
_symmetry_space_group_name_H-M    P1
_symmetry_Int_Tables_number       1
_space_group_crystal_system       triclinic
_cell_length_a                    6.927718
_cell_length_b                    17.623543
_cell_length_c                    19.574865
_cell_angle_alpha                 109.108949
_cell_angle_beta                  90.589678
_cell_angle_gamma                 90.619708
_cell_volume                      2257.84999388

loop_
_atom_site_label
_atom_site_type_symbol
_atom_type_description
_atom_site_fract_x
_atom_site_fract_y
_atom_site_fract_z
_atom_type_partial_charge
O1    O     O_R   0.505700 0.440210 0.561730 -0.540541
O2    O     O_R   0.169350 0.406300 0.412660 -0.538514
O3    O     O_R   0.005650 0.559790 0.438270 -0.550901
C1    C     C_R   0.337713 0.381914 0.385707 0.817066
O4    O     O_R   0.175560 0.430650 0.559600 -0.540376
O5    O     O_R   0.011900 0.584320 0.586250 -0.542993
C2    C     C_R   0.344622 0.416791 0.582051 0.740890
O6    O     O_R   0.499450 0.415680 0.413750 -0.525598
O7    O     O_3   0.341370 0.550390 0.508570 -0.373588
V1    V     V_3+5 0.063940 0.490650 0.498410 1.455668
O8    O     O_R   0.682570 0.593700 0.587340 -0.545051
C3    C     C_R   0.852990 0.616477 0.614988 0.672205
O9    O     O_R   0.676370 0.569350 0.440400 -0.516053
C4    C     C_R   0.844805 0.583944 0.418386 0.745404
V2    V     V_3+5 0.564750 0.509350 0.501590 1.486463
O10   O     O_3   0.837190 0.449610 0.491430 -0.369661
C5    C     C_R   0.039479 0.726179 0.323833 0.446511
C6    C     C_R   0.022534 0.679246 0.369754 -0.333812
C7    C     C_R   0.855502 0.632910 0.369088 -0.102348
C8    C     C_R   0.702523 0.633290 0.320918 0.370620
C9    C     C_R   0.721291 0.678943 0.273936 -0.305923
H1    H     H_    0.605169 0.677872 0.236106 0.161177
C10   C     C_R   0.888794 0.724910 0.274340 0.054880
C11   C     C_R   0.747381 0.821653 0.218381 -0.246053
H2    H     H_    0.620595 0.825543 0.251232 0.161638
C12   C     C_R   0.754776 0.866922 0.171557 -0.174868
C13   C     C_R   0.918254 0.865449 0.129296 -0.073491
C14   C     C_R   0.072583 0.816005 0.133766 -0.279117
C15   C     C_R   0.064573 0.768428 0.179544 0.440340
C16   C     C_R   0.901832 0.772554 0.223619 0.109712
C17   C     C_R   0.014801 0.903053 0.744214 0.322021
C18   C     C_R   0.089870 0.908655 0.680143 -0.110118
C19   C     C_R   0.091015 0.842143 0.618018 -0.201345
C20   C     C_R   0.015641 0.769147 0.618926 -0.147253
C21   C     C_R   0.946808 0.759781 0.683604 0.040378
C22   C     C_R   0.953999 0.826995 0.748711 -0.016592
C23   C     C_R   0.868152 0.685121 0.683516 -0.137174
C24   C     C_R   0.806917 0.675656 0.749101 -0.001619
C25   C     C_R   0.825994 0.740664 0.815045 0.065917
C26   C     C_R   0.900778 0.816149 0.815240 -0.173462
C27   C     C_R   0.731360 0.601191 0.750548 -0.153689
C28   C     C_R   0.674887 0.590511 0.815022 0.402533
C29   C     C_R   0.695252 0.654559 0.879900 -0.210083
C30   C     C_R   0.770294 0.728272 0.880031 -0.184562
C31   C     C_R   0.446712 0.217794 0.382756 0.319575
C32   C     C_R   0.528609 0.143908 0.381033 0.336853
C33   C     C_R   0.574882 0.087312 0.314728 -0.238990
C34   C     C_R   0.539257 0.102281 0.250651 -0.209725
C35   C     C_R   0.461671 0.175813 0.249983 -0.007017
C36   C     C_R   0.420178 0.236201 0.317235 -0.007650
C37   C     C_R   0.423227 0.188363 0.183031 -0.127879
C38   C     C_R   0.350717 0.264111 0.183020 0.045386
C39   C     C_R   0.311940 0.325022 0.250298 -0.087987
C40   C     C_R   0.349089 0.312081 0.317115 -0.124575
C41   C     C_R   0.319700 0.282185 0.117731 0.317400
C42   C     C_R   0.243618 0.356771 0.120239 -0.279658
C43   C     C_R   0.202008 0.415175 0.185979 0.381642
C44   C     C_R   0.237853 0.399458 0.249874 -0.141101
H3    H     H_    0.218996 0.369829 0.070512 0.115718
C45   C     C_R   0.540218 0.287673 0.688126 -0.104170
C46   C     C_R   0.529238 0.332765 0.641252 -0.122077
C47   C     C_R   0.355246 0.368574 0.631584 -0.059750
C48   C     C_R   0.192791 0.358719 0.670434 -0.141979
H4    H     H_    0.057071 0.386227 0.664840 0.120525
C49   C     C_R   0.204550 0.314727 0.718303 -0.120046
C50   C     C_R   0.378408 0.278274 0.727765 0.108359
C51   C     C_R   0.231264 0.187750 0.790702 -0.140118
C52   C     C_R   0.243863 0.143816 0.838394 -0.156644
C53   C     C_R   0.417673 0.139979 0.874858 -0.182801
C54   C     C_R   0.577798 0.187005 0.865794 0.339514
C55   C     C_R   0.563964 0.230077 0.817087 -0.136436
C56   C     C_R   0.391539 0.231054 0.778781 0.007327
O11   O     O_R   0.273230 0.084330 0.086440 -0.531273
O12   O     O_R   0.596660 0.069390 0.940470 -0.537469
O13   O     O_R   0.760270 0.915710 0.913690 -0.547954
C57   C     C_R   0.427735 0.086461 0.920495 0.774016
O14   O     O_R   0.603330 0.093680 0.087390 -0.542640
O15   O     O_R   0.766990 0.940160 0.061660 -0.551661
C58   C     C_R   0.434948 0.118340 0.114357 0.791390
O16   O     O_R   0.266510 0.059870 0.938470 -0.513523
O17   O     O_3   0.431050 0.949630 0.991510 -0.381353
V3    V     V_3+5 0.708490 0.009340 0.001580 1.453430
O18   O     O_R   0.096270 0.930570 0.059390 -0.547159
C59   C     C_R   0.927739 0.915236 0.080819 0.686582
O19   O     O_R   0.089600 0.906290 0.912460 -0.525546
C60   C     C_R   0.918780 0.883205 0.884967 0.740875
V4    V     V_3+5 0.207670 0.990600 0.998190 1.483735
O20   O     O_3   0.935250 0.050360 0.008480 -0.356405
O21   O     O_3   0.199043 0.775316 0.328057 -0.634522
H5    H     H_    0.291494 0.768521 0.364566 0.284540
O22   O     O_3   0.992658 0.973931 0.799580 -0.659150
H6    H     H_    0.853938 0.976820 0.812012 0.278529
H7    H     H_    0.140032 0.966179 0.677812 0.138607
H8    H     H_    0.145004 0.847760 0.568154 0.137404
H9    H     H_    0.012732 0.720280 0.568143 0.114409
H10   H     H_    0.716250 0.549921 0.701739 0.121146
O23   O     O_3   0.601706 0.516588 0.812759 -0.647711
H11   H     H_    0.568626 0.518708 0.862521 0.285953
H12   H     H_    0.784301 0.775219 0.931866 0.115024
O24   O     O_3   0.128392 0.488897 0.189782 -0.634557
H13   H     H_    0.111503 0.491035 0.140077 0.298447
O25   O     O_3   0.384600 0.271122 0.447377 -0.664934
H14   H     H_    0.397498 0.247828 0.486780 0.319543
O26   O     O_3   0.561276 0.128270 0.444918 -0.654241
H15   H     H_    0.618744 0.074371 0.434119 0.293872
H16   H     H_    0.139192 0.680238 0.407357 0.142646
H17   H     H_    0.636625 0.030314 0.312411 0.136254
H18   H     H_    0.575439 0.055042 0.201466 0.126264
O27   O     O_3   0.370643 0.228233 0.051947 -0.666744
H19   H     H_    0.341382 0.250848 0.012877 0.277376
H20   H     H_    0.205510 0.447070 0.299376 0.142992
H21   H     H_    0.675590 0.259405 0.692502 0.099776
H22   H     H_    0.656918 0.338672 0.611807 0.127651
H23   H     H_    0.077653 0.310588 0.748747 0.106739
H24   H     H_    0.095774 0.186467 0.762296 0.127684
O28   O     O_3   0.538527 0.587282 0.319113 -0.640939
H25   H     H_    0.445544 0.594762 0.283064 0.317879
H26   H     H_    0.116076 0.112391 0.846349 0.215300
O29   O     O_3   0.747916 0.194706 0.904674 -0.646422
H27   H     H_    0.714758 0.199505 0.954989 0.307831
H28   H     H_    0.687699 0.265656 0.811704 0.126988
H29   H     H_    0.633111 0.904136 0.169321 0.131178
H30   H     H_    0.198137 0.813111 0.100514 0.119410
O30   O     O_3   0.210900 0.716057 0.180330 -0.633756
H31   H     H_    0.313851 0.720927 0.147117 0.277556
H32   H     H_    0.653577 0.647455 0.930662 0.114600

loop_
_geom_bond_atom_site_label_1
_geom_bond_atom_site_label_2
_ccdc_geom_bond_type
O18   V4    S    
V4    O20   S    
C48   C49   A    
O25   H14   S    
C49   H23   S    
C7    C8    A    
C1    O6    A    
C19   H8    S    
O23   H11   S    
C14   H30   S    
C31   C32   A    
O28   H25   S    
C12   C13   A    
C15   C16   A    
O12   C57   A    
O18   C59   A    
C31   C36   A    
C14   C15   A    
C21   C23   A    
C11   C12   A    
C51   C56   A    
O16   V4    S    
O5    C3    A    
C24   C25   A    
C30   H12   S    
C27   H10   S    
V2    O10   S    
C15   O30   S    
C42   C43   A    
C53   C57   S    
C20   C21   A    
C27   C28   A    
C26   C60   S    
C3    C23   S    
C51   H24   S    
O11   V4    S    
C52   H26   S    
O8    V2    S    
C50   C56   S    
C47   C48   A    
C21   C22   A    
C52   C53   A    
C35   C37   A    
C54   C55   A    
O1    V2    S    
O7    V1    S    
C38   C41   A    
O14   C58   A    
C18   H7    S    
C45   C50   A    
O9    C4    A    
C41   O27   S    
C53   C54   A    
O12   V3    S    
C29   H32   S    
O26   H15   S    
O17   V3    S    
C37   C58   S    
O19   V4    S    
C44   H20   S    
C10   C16   S    
C22   C26   A    
C5    O21   S    
C11   H2    S    
C24   C27   A    
C28   O23   S    
O22   H6    S    
O4    C2    A    
C6    C7    A    
O19   C60   A    
C43   O24   S    
C32   O26   S    
C37   C38   A    
C45   C46   A    
O2    C1    A    
C51   C52   A    
C6    H16   S    
C2    C47   S    
C23   C24   A    
C45   H21   S    
O15   V3    S    
O13   C60   A    
C33   C34   A    
C54   O29   S    
O8    C3    A    
C41   C42   A    
C5    C6    A    
O11   C58   A    
C5    C10   A    
C20   H9    S    
O29   H27   S    
O17   V4    S    
O3    C4    A    
C34   C35   A    
C49   C50   A    
O6    V2    S    
C17   O22   S    
O9    V2    S    
C29   C30   A    
C46   H22   S    
C28   C29   A    
O2    V1    S    
C25   C26   A    
C38   C39   A    
C8    O28   S    
C32   C33   A    
C13   C59   S    
C1    C40   S    
O1    C2    A    
C4    C7    S    
C55   H28   S    
C17   C18   A    
C57   O16   A    
O5    V1    S    
C39   C44   A    
O13   V3    S    
C39   C40   A    
C25   C30   A    
C33   H17   S    
C42   H3    S    
C18   C19   A    
C9    C10   A    
O7    V2    S    
C55   C56   A    
C36   C40   A    
O3    V1    S    
V1    O10   S    
O27   H19   S    
C43   C44   A    
C34   H18   S    
O14   V3    S    
V3    O20   S    
O24   H13   S    
C19   C20   A    
C46   C47   A    
C11   C16   A    
C31   O25   S    
C48   H4    S    
O15   C59   A    
O4    V1    S    
C8    C9    A    
C35   C36   A    
C13   C14   A    
C17   C22   A    
C12   H29   S    
O21   H5    S    
C9    H1    S    
O30   H31   S    
