data_mof_unit_104.cif
_audit_creation_date              2012-12-10T18:59:17-0500
_audit_creation_method            fapswitch 2.2
_symmetry_space_group_name_H-M    P1
_symmetry_Int_Tables_number       1
_space_group_crystal_system       triclinic
_cell_length_a                    10.838553
_cell_length_b                    10.854616
_cell_length_c                    9.582791
_cell_angle_alpha                 91.123581
_cell_angle_beta                  87.380687
_cell_angle_gamma                 91.957312
_cell_volume                      1125.38046185

loop_
_atom_site_label
_atom_site_type_symbol
_atom_type_description
_atom_site_fract_x
_atom_site_fract_y
_atom_site_fract_z
_atom_type_partial_charge
C1    C     C_R   0.499639 0.262869 0.498468 0.802532
C2    C     C_R   0.055070 0.495649 0.632220 -0.086785
C3    C     C_R   0.129570 0.536598 0.515342 -0.226574
C4    C     C_R   0.071968 0.581398 0.398873 0.270350
C5    C     C_R   0.943958 0.565793 0.389641 0.360868
C6    C     C_R   0.874264 0.497936 0.492384 -0.200257
C7    C     C_R   0.581414 0.070401 0.579654 0.101167
C8    C     C_R   0.504609 0.130433 0.492938 -0.076056
C9    C     C_R   0.433565 0.060838 0.399312 -0.164869
C10   C     C_R   0.429435 0.932288 0.405711 -0.100797
C11   C     C_R   0.498899 0.872086 0.502544 -0.094717
C12   C     C_R   0.263245 0.514050 0.504329 0.869214
C13   C     C_R   0.578744 0.943095 0.585141 0.122507
C14   C     C_3   0.588727 0.950184 0.740470 -0.431761
C15   C     C_3   0.595933 0.088648 0.732002 -0.435886
C16   C     C_R   0.588680 0.564901 0.069637 0.201816
C17   C     C_R   0.421460 0.424624 0.077900 0.007374
C18   C     C_R   0.421411 0.423625 0.929610 0.374436
C19   C     C_R   0.594337 0.557133 0.922535 0.135337
C20   C     C_3   0.634687 0.687223 0.908521 -0.032203
C21   C     C_3   0.611234 0.701971 0.064666 0.140177
C22   C     C_R   0.499352 0.737902 0.501392 0.818392
C23   C     C_R   0.738309 0.497253 0.496873 0.846444
C24   C     C_R   0.091507 0.500538 0.773025 0.418871
C25   C     C_R   0.025284 0.428646 0.873854 0.460578
C26   C     C_R   0.921981 0.358037 0.836312 -0.220514
C27   C     C_R   0.874537 0.372050 0.705441 -0.172089
C28   C     C_R   0.934205 0.452599 0.607996 0.016691
Cu1   Cu    Cu3+1 0.499990 0.499980 0.640670 1.032236
Cu2   Cu    Cu3+1 0.500010 0.500020 0.359330 1.047627
H1    H     H_    0.676648 0.913716 0.774081 0.240713
H2    H     H_    0.516276 0.133027 0.786903 0.251747
H3    H     H_    0.688234 0.129105 0.756045 0.195588
H4    H     H_    0.357299 0.364703 0.136576 0.179740
H5    H     H_    0.571135 0.735780 0.845204 0.194423
H6    H     H_    0.691781 0.738065 0.121207 0.213043
H7    H     H_    0.872801 0.299516 0.911947 0.186287
H8    H     H_    0.789553 0.322265 0.682321 0.158711
H9    H     H_    0.375684 0.105656 0.327735 0.176307
H10   H     H_    0.367482 0.880317 0.339785 0.230024
H11   H     H_    0.502612 0.917264 0.797609 0.245787
N1    N     N_R   0.500790 0.500930 0.147930 -0.199069
N2    N     N_R   0.500790 0.500890 0.852020 -0.211721
O1    O     O_R   0.500000 0.319640 0.618810 -0.567221
O2    O     O_R   0.500010 0.319680 0.381230 -0.599660
O3    O     O_R   0.319640 0.499980 0.618820 -0.525660
O4    O     O_R   0.319650 0.500020 0.381230 -0.546922
O5    O     O_R   0.499990 0.680320 0.618770 -0.580658
O6    O     O_R   0.500000 0.680360 0.381190 -0.529942
O7    O     O_R   0.680350 0.499980 0.618770 -0.571321
O8    O     O_R   0.680360 0.500020 0.381180 -0.544731
Br1   Br    Br    0.164932 0.680892 0.262340 -0.261376
Br2   Br    Br    0.312472 0.304527 0.845431 -0.477147
Br3   Br    Br    0.808768 0.701309 0.850543 -0.431373
Cl1   Cl    Cl    0.474109 0.786162 0.098955 -0.559817
Cl2   Cl    Cl    0.191536 0.620791 0.832637 -0.436154
Cl3   Cl    Cl    0.067190 0.427019 0.048861 -0.494264
Cl4   Cl    Cl    0.874287 0.635402 0.249882 -0.519443

loop_
_geom_bond_atom_site_label_1
_geom_bond_atom_site_label_2
_ccdc_geom_bond_type
C8    C9    A    
C22   O5    A    
Cu2   O8    S    
C26   H7    S    
Cu1   Cu2   S    
C24   Cl2   S    
C1    C8    S    
C9    C10   A    
C14   H1    S    
C11   C22   S    
C23   O8    A    
C19   C20   S    
C7    C13   A    
Cu1   O3    S    
C20   C21   S    
C7    C15   S    
C17   C18   A    
Cu2   O2    S    
C15   H2    S    
C21   H6    S    
C18   N2    A    
Cu1   N2    S    
C2    C24   A    
C11   C13   A    
C20   Br3   S    
C1    O2    A    
C26   C27   A    
C16   C21   S    
C25   Cl3   S    
C5    Cl4   S    
C4    Br1   S    
C14   H11   S    
C6    C23   S    
C10   H10   S    
Cu2   O6    S    
C19   N2    A    
C2    C3    A    
C27   H8    S    
Cu1   O7    S    
C12   O4    A    
Cu1   O1    S    
C16   C19   A    
C5    C6    A    
C7    C8    A    
C10   C11   A    
Cu1   O5    S    
C3    C4    A    
C16   N1    A    
Cu2   O4    S    
C9    H9    S    
C24   C25   A    
C12   O3    A    
C17   N1    A    
C17   H4    S    
C22   O6    A    
C27   C28   A    
C21   Cl1   S    
C14   C15   S    
Cu2   N1    S    
C23   O7    A    
C2    C28   A    
C3    C12   S    
C1    O1    A    
C18   Br2   S    
C25   C26   A    
C13   C14   S    
C20   H5    S    
C15   H3    S    
C6    C28   A    
C4    C5    A    
