data_mof_unit_1519.cif
_audit_creation_date              2012-12-11T14:21:10-0500
_audit_creation_method            fapswitch 2.2
_symmetry_space_group_name_H-M    P1
_symmetry_Int_Tables_number       1
_space_group_crystal_system       triclinic
_cell_length_a                    21.945774
_cell_length_b                    7.217594
_cell_length_c                    15.056376
_cell_angle_alpha                 90.000119
_cell_angle_beta                  107.594693
_cell_angle_gamma                 89.999863
_cell_volume                      2273.29786054

loop_
_atom_site_label
_atom_site_type_symbol
_atom_type_description
_atom_site_fract_x
_atom_site_fract_y
_atom_site_fract_z
_atom_type_partial_charge
O1    O     O_R   0.584770 0.505770 0.002090 -0.553727
O2    O     O_R   0.415230 0.005770 0.997910 -0.553727
O3    O     O_R   0.467060 0.173340 0.861950 -0.539407
O4    O     O_R   0.532940 0.673340 0.138050 -0.539407
C1    C     C_R   0.454841 0.344599 0.826361 0.673797
C2    C     C_R   0.545159 0.844599 0.173639 0.673796
O5    O     O_R   0.587510 0.175890 0.993210 -0.507230
O6    O     O_R   0.412490 0.675890 0.006790 -0.507229
O7    O     O_R   0.536540 0.008150 0.130100 -0.539994
O8    O     O_R   0.463460 0.508150 0.869900 -0.539994
C3    C     C_R   0.612976 0.344443 0.997015 0.762739
C4    C     C_R   0.387024 0.844443 0.002986 0.762740
O9    O     O_3   0.483140 0.340040 0.044760 -0.377906
O10   O     O_3   0.516860 0.840040 0.955240 -0.377907
V1    V     V_3+5 0.503130 0.064190 0.991700 1.456351
V2    V     V_3+5 0.496870 0.564190 0.008300 1.456352
C5    C     C_2   0.217975 0.736022 0.026273 -0.243930
C6    C     C_2   0.782028 0.236009 0.973741 -0.243933
C7    C     C_2   0.180223 0.885263 0.995661 -0.362927
C8    C     C_2   0.819775 0.385267 0.004331 -0.362937
C9    C     C_2   0.287772 0.717559 0.030698 0.449711
C10   C     C_2   0.712229 0.217556 0.969305 0.449720
C11   C     C_2   0.318817 0.855551 0.000702 -0.365333
C12   C     C_2   0.681184 0.355547 0.999303 -0.365335
C13   C     C_R   0.927974 0.885412 0.724621 -0.067033
C14   C     C_R   0.072026 0.385412 0.275379 -0.067035
C15   C     C_R   0.574264 0.857059 0.274225 -0.020671
C16   C     C_R   0.425736 0.357057 0.725775 -0.020671
C17   C     C_R   0.941789 0.849365 0.570922 0.382062
C18   C     C_R   0.058211 0.349370 0.429078 0.382063
C19   C     C_R   0.967677 0.861848 0.668843 -0.265992
C20   C     C_R   0.032323 0.361854 0.331157 -0.265985
C21   C     C_R   0.862201 0.901703 0.684797 -0.230590
C22   C     C_R   0.137799 0.401697 0.315202 -0.230591
C23   C     C_R   0.834057 0.895901 0.587278 0.035910
C24   C     C_R   0.165943 0.395898 0.412722 0.035913
C25   C     C_R   0.874583 0.865654 0.530776 0.047963
C26   C     C_R   0.125417 0.365657 0.469224 0.047961
C27   C     C_R   0.766662 0.914874 0.544632 0.080536
C28   C     C_R   0.233338 0.414868 0.455368 0.080538
C29   C     C_R   0.739573 0.883059 0.447088 0.067519
C30   C     C_R   0.260427 0.383058 0.552911 0.067519
C31   C     C_R   0.781488 0.854838 0.393392 -0.218074
C32   C     C_R   0.218512 0.354844 0.606608 -0.218073
C33   C     C_R   0.847308 0.850872 0.434122 -0.195321
C34   C     C_R   0.152691 0.350879 0.565878 -0.195324
C35   C     C_R   0.725687 0.969031 0.596290 -0.194171
C36   C     C_R   0.274313 0.469019 0.403709 -0.194168
C37   C     C_R   0.659934 0.973947 0.556769 -0.204120
C38   C     C_R   0.340066 0.473931 0.443230 -0.204120
C39   C     C_R   0.632298 0.929926 0.463283 0.139306
C40   C     C_R   0.367702 0.429914 0.536716 0.139305
C41   C     C_R   0.671541 0.885417 0.406538 0.081789
C42   C     C_R   0.328459 0.385414 0.593462 0.081789
C43   C     C_R   0.565499 0.935638 0.425470 -0.166141
C44   C     C_R   0.434501 0.435623 0.574529 -0.166141
C45   C     C_R   0.536708 0.901074 0.331215 -0.169113
C46   C     C_R   0.463292 0.401064 0.668785 -0.169113
C47   C     C_R   0.640810 0.846634 0.311355 -0.214065
C48   C     C_R   0.359190 0.346636 0.688645 -0.214064
H1    H     H_    0.876823 0.831568 0.388771 0.164594
H2    H     H_    0.123176 0.331579 0.611229 0.164594
H3    H     H_    0.666953 0.811237 0.263592 0.093290
H4    H     H_    0.333047 0.311246 0.736409 0.093290
H5    H     H_    0.018524 0.855036 0.703308 0.106399
H6    H     H_    0.981476 0.355047 0.296693 0.106396
H7    H     H_    0.834266 0.913928 0.732339 0.113925
H8    H     H_    0.165734 0.413915 0.267661 0.113923
H9    H     H_    0.765126 0.839299 0.318812 0.123573
H10   H     H_    0.234874 0.339307 0.681188 0.123573
H11   H     H_    0.743410 0.015745 0.667029 0.125914
H12   H     H_    0.256590 0.515730 0.332970 0.125909
H13   H     H_    0.535559 0.970839 0.468573 0.118724
H14   H     H_    0.464441 0.470817 0.531425 0.118724
O11   O     O_R   0.036450 0.233070 0.130130 -0.538288
O12   O     O_R   0.963550 0.733070 0.869870 -0.538288
O13   O     O_R   0.912470 0.560570 0.006790 -0.548309
O14   O     O_R   0.087530 0.060570 0.993210 -0.548308
C49   C     C_R   0.887007 0.391893 0.002577 0.756834
C50   C     C_R   0.112993 0.891892 0.997422 0.756834
O15   O     O_R   0.032920 0.562940 0.138050 -0.540426
O16   O     O_R   0.967080 0.062940 0.861950 -0.540426
O17   O     O_R   0.084790 0.730500 0.002090 -0.536509
O18   O     O_R   0.915210 0.230500 0.997910 -0.536510
C51   C     C_R   0.044839 0.394295 0.174195 0.706864
C52   C     C_R   0.955160 0.894294 0.825805 0.706863
O19   O     O_3   0.016820 0.396170 0.955260 -0.379844
O20   O     O_3   0.983180 0.896170 0.044740 -0.379844
V3    V     V_3+5 0.996880 0.672090 0.008300 1.408040
V4    V     V_3+5 0.003120 0.172090 0.991700 1.408040
H15   H     H_    0.196237 0.622504 0.052509 0.151050
H16   H     H_    0.803771 0.122471 0.947529 0.151057
H17   H     H_    0.198426 0.009300 0.972307 0.133336
H18   H     H_    0.801565 0.509319 0.027658 0.133344
O21   O     O_3   0.325466 0.568108 0.075174 -0.562048
C53   C     C_3   0.292495 0.399359 0.073333 0.095541
H19   H     H_    0.323718 0.286973 0.061452 0.145270
H20   H     H_    0.247322 0.387621 0.014759 0.088267
C54   C     C_3   0.282879 0.366799 0.168618 -0.332427
H21   H     H_    0.330253 0.363264 0.222916 0.206548
H22   H     H_    0.255109 0.483055 0.184801 0.178745
C55   C     C_3   0.247856 0.186078 0.171971 -0.837706
H23   H     H_    0.198727 0.192540 0.122754 0.238420
H24   H     H_    0.244478 0.164304 0.243332 0.237728
H25   H     H_    0.274191 0.067495 0.154137 0.242769
O22   O     O_3   0.674534 0.068113 0.924823 -0.562051
C56   C     C_3   0.707502 0.899361 0.926658 0.095540
H26   H     H_    0.676274 0.786975 0.938522 0.145278
H27   H     H_    0.752669 0.887603 0.985239 0.088258
C57   C     C_3   0.717129 0.866824 0.831378 -0.332442
H28   H     H_    0.669758 0.863317 0.777072 0.206552
H29   H     H_    0.744907 0.983076 0.815211 0.178747
C58   C     C_3   0.752145 0.686092 0.828019 -0.837705
H30   H     H_    0.801273 0.692534 0.877238 0.238417
H31   H     H_    0.755524 0.664327 0.756658 0.237731
H32   H     H_    0.725804 0.567514 0.845845 0.242764
H33   H     H_    0.294599 0.982774 0.972689 0.078760
H34   H     H_    0.705404 0.482760 0.027326 0.078762
H35   H     H_    0.485244 0.912075 0.302288 0.111417
H36   H     H_    0.514757 0.412061 0.697711 0.111418
H37   H     H_    0.630470 0.014758 0.599725 0.125196
H38   H     H_    0.369531 0.514736 0.400273 0.125198
O23   O     O_3   0.979060 0.838440 0.510304 -0.597362
C59   C     C_3   0.040920 0.763591 0.549265 0.091113
H39   H     H_    0.052637 0.688370 0.492595 0.172687
H40   H     H_    0.043809 0.659176 0.604845 0.136741
C60   C     C_3   0.090645 0.918025 0.579997 -0.328930
H41   H     H_    0.091449 0.998321 0.517549 0.219111
H42   H     H_    0.077869 0.014110 0.629047 0.200582
C61   C     C_3   0.157304 0.839647 0.626002 -0.826482
H43   H     H_    0.157635 0.753499 0.687288 0.228668
H44   H     H_    0.191843 0.955020 0.649793 0.237970
H45   H     H_    0.172808 0.754360 0.575361 0.248315
O24   O     O_3   0.020940 0.338450 0.489696 -0.597363
C62   C     C_3   0.959081 0.263589 0.450737 0.091104
H46   H     H_    0.947367 0.188364 0.507408 0.172688
H47   H     H_    0.956194 0.159176 0.395156 0.136738
C63   C     C_3   0.909352 0.418014 0.420007 -0.328917
H48   H     H_    0.908552 0.498318 0.482455 0.219115
H49   H     H_    0.922123 0.514096 0.370949 0.200576
C64   C     C_3   0.842694 0.339625 0.374014 -0.826471
H50   H     H_    0.842359 0.253467 0.312729 0.228669
H51   H     H_    0.808152 0.454993 0.350222 0.237969
H52   H     H_    0.827195 0.254347 0.424663 0.248312

loop_
_geom_bond_atom_site_label_1
_geom_bond_atom_site_label_2
_ccdc_geom_bond_type
C13   C19   A    
C62   C63   S    
C14   C20   A    
C56   H27   S    
C61   H44   S    
O21   C53   S    
O1    C3    A    
O2    C4    A    
C2    O7    A    
C41   C47   A    
C62   H46   S    
C35   C37   A    
C42   C48   A    
O14   V4    S    
O5    C3    A    
C4    C11   S    
O13   V3    S    
O18   V4    S    
C34   H2    S    
C27   C35   A    
C23   C25   A    
C64   H51   S    
C49   O18   A    
O14   C50   A    
O22   C56   S    
C53   C54   S    
C3    C12   S    
C18   C26   A    
C55   H25   S    
C28   C36   A    
C57   H28   S    
C15   C47   A    
O11   V4    S    
C5    C7    D    
C14   C22   A    
C2    C15   S    
C32   C34   A    
C18   O24   S    
C53   H20   S    
C38   C40   A    
C56   H26   S    
C32   H10   S    
C6    C8    D    
C7    H17   S    
O15   C51   A    
O12   V3    S    
C45   H35   S    
C58   H32   S    
O15   V3    S    
C36   C38   A    
O6    V2    S    
C62   H47   S    
C29   C31   A    
C7    C50   S    
C30   C32   A    
C36   H12   S    
C50   O17   A    
C40   C42   A    
O13   C49   A    
O17   V3    S    
C44   H14   S    
C24   C28   A    
C27   C29   A    
C15   C45   A    
C64   H52   S    
C22   H8    S    
O5    V1    S    
C9    O21   S    
C37   C39   A    
O16   C52   A    
C5    C9    S    
C39   C41   A    
O4    V2    S    
C23   C27   A    
C60   H42   S    
C1    C16   S    
C20   H6    S    
C54   H21   S    
O6    C4    A    
C37   H37   S    
C53   H19   S    
C46   H36   S    
O1    V2    S    
O20   V3    S    
C55   H24   S    
O2    V1    S    
C31   C33   A    
C57   C58   S    
C29   C41   A    
C16   C48   A    
C63   H49   S    
C59   C60   S    
O4    C2    A    
C54   H22   S    
O23   C59   S    
C9    C11   D    
C56   C57   S    
C10   C12   D    
C5    H15   S    
O19   V4    S    
C61   H45   S    
C35   H11   S    
C25   C33   A    
C60   H41   S    
O12   C52   A    
O3    V1    S    
C21   H7    S    
C59   H40   S    
C58   H30   S    
C19   H5    S    
C8    H18   S    
C8    C49   S    
C6    C10   S    
C47   H3    S    
C28   C30   A    
O3    C1    A    
C63   C64   S    
C11   H33   S    
O24   C62   S    
C16   C46   A    
C12   H34   S    
O16   V4    S    
C48   H4    S    
C6    H16   S    
C43   C45   A    
C61   H43   S    
O7    V1    S    
C60   C61   S    
C1    O8    A    
C17   C19   A    
C10   O22   S    
C64   H50   S    
O11   C51   A    
C24   C26   A    
C18   C20   A    
C14   C51   S    
C17   O23   S    
C33   H1    S    
C13   C52   S    
C21   C23   A    
C22   C24   A    
C44   C46   A    
C39   C43   A    
C55   H23   S    
C57   H29   S    
C26   C34   A    
C63   H48   S    
C43   H13   S    
C54   C55   S    
C38   H38   S    
C31   H9    S    
O9    V2    S    
C17   C25   A    
O10   V1    S    
O8    V2    S    
C30   C42   A    
C40   C44   A    
C13   C21   A    
C59   H39   S    
C58   H31   S    
