data_mof_unit_4295.cif
_audit_creation_date              2013-03-05T16:37:41-0500
_audit_creation_method            fapswitch 2.2
_symmetry_space_group_name_H-M    P1
_symmetry_Int_Tables_number       1
_space_group_crystal_system       triclinic
_cell_length_a                    18.866438
_cell_length_b                    18.954682
_cell_length_c                    19.243364
_cell_angle_alpha                 110.51542
_cell_angle_beta                  109.770031
_cell_angle_gamma                 109.718003
_cell_volume                      5190.66252736

loop_
_atom_site_label
_atom_site_type_symbol
_atom_site_description
_atom_site_fract_x
_atom_site_fract_y
_atom_site_fract_z
_atom_type_partial_charge
O1    O     O_R   0.408360 0.551710 0.460090 -0.634114
O2    O     O_R   0.408390 0.448280 0.356670 -0.577056
C1    C     C_R   0.382530 0.502964 0.380239 0.889776
O3    O     O_R   0.591600 0.643340 0.551710 -0.627933
O4    O     O_R   0.591630 0.539900 0.448290 -0.548692
C2    C     C_R   0.616465 0.621678 0.498007 0.953298
Zn1   Zn    Zn3+2 0.499980 0.569070 0.569050 1.134799
Zn2   Zn    Zn3+2 0.500020 0.430930 0.430950 1.230544
O5    O     O_R   0.591610 0.551720 0.643330 -0.557763
O6    O     O_R   0.591640 0.448290 0.539910 -0.586569
O7    O     O_R   0.408370 0.460100 0.551710 -0.611649
O8    O     O_R   0.408400 0.356660 0.448290 -0.557408
C3    C     C_R   0.623697 0.503010 0.620169 0.961611
C4    C     C_R   0.377948 0.379748 0.497963 0.967779
C5    C     C_R   0.677771 0.854042 0.742127 0.320992
C6    C     C_R   0.677626 0.822335 0.664554 0.399481
C7    C     C_R   0.744400 0.805999 0.660355 -0.134648
C8    C     C_R   0.816934 0.832126 0.738043 0.448165
C9    C     C_R   0.819815 0.868796 0.817608 0.404259
C10   C     C_R   0.746995 0.873334 0.818465 0.214491
C11   C     C_R   0.812618 0.836163 0.575981 0.333390
C12   C     C_R   0.808887 0.815974 0.496758 -0.245452
C13   C     C_R   0.734208 0.741274 0.417282 0.041173
C14   C     C_R   0.670025 0.679271 0.418688 0.431733
C15   C     C_R   0.679042 0.693109 0.498752 -0.237476
C16   C     C_R   0.745974 0.776004 0.577491 0.027880
C17   C     C_R   0.690112 0.776281 0.301178 0.344817
C18   C     C_R   0.671236 0.761150 0.217633 0.168802
C19   C     C_R   0.665806 0.686685 0.158635 0.411419
C20   C     C_R   0.683540 0.630992 0.184160 0.419120
C21   C     C_R   0.714117 0.652813 0.271068 0.245926
C22   C     C_R   0.718263 0.726624 0.330349 -0.121575
H1    H     H_    0.512514 0.911121 0.604151 0.236539
C23   C     C_R   0.419091 0.776014 0.551541 0.552497
C24   C     C_R   0.370170 0.689920 0.480426 0.470853
C25   C     C_R   0.382972 0.670426 0.408592 -0.195114
C26   C     C_R   0.442839 0.740315 0.408441 0.219380
C27   C     C_R   0.488451 0.827840 0.479085 0.245534
C28   C     C_R   0.475996 0.844456 0.549539 -0.254876
C29   C     C_R   0.254277 0.580203 0.260621 0.475791
C30   C     C_R   0.185970 0.498791 0.184883 -0.205782
C31   C     C_R   0.177154 0.418798 0.177410 -0.106410
C32   C     C_R   0.243928 0.421428 0.240828 0.288658
C33   C     C_R   0.315517 0.503185 0.314422 -0.263090
C34   C     C_R   0.319016 0.582907 0.325946 0.006715
C35   C     C_R   0.027900 0.315075 0.135830 -0.190029
H2    H     H_    0.039604 0.365197 0.194468 0.269218
C36   C     C_R   0.947919 0.235014 0.083252 0.126484
C37   C     C_R   0.932409 0.169266 0.006172 0.348177
C38   C     C_R   0.996035 0.185974 0.982237 0.469450
C39   C     C_R   0.076983 0.267737 0.035935 0.308979
C40   C     C_R   0.092365 0.332958 0.113475 -0.074404
C41   C     C_R   0.282966 0.554150 0.635080 0.113089
C42   C     C_R   0.294407 0.481171 0.614400 0.202314
C43   C     C_R   0.242862 0.408356 0.527622 -0.219520
C44   C     C_R   0.181028 0.410372 0.461991 0.302448
C45   C     C_R   0.168458 0.482321 0.484356 0.202734
C46   C     C_R   0.218562 0.553636 0.570642 0.121825
C47   C     C_R   0.180383 0.259004 0.507495 0.455399
C48   C     C_R   0.189233 0.187681 0.504134 -0.088414
C49   C     C_R   0.262208 0.182347 0.505070 0.005757
C50   C     C_R   0.322038 0.243974 0.499356 0.299785
C51   C     C_R   0.312693 0.314619 0.500147 -0.201898
C52   C     C_R   0.244723 0.325661 0.509294 -0.057370
C53   C     C_R   0.324569 0.119585 0.587517 0.282080
C54   C     C_R   0.345455 0.055057 0.588570 0.319523
C55   C     C_R   0.317123 0.981211 0.509663 0.171344
C56   C     C_R   0.264275 0.970315 0.430390 0.291781
C57   C     C_R   0.244996 0.035453 0.428465 0.121249
C58   C     C_R   0.274601 0.109745 0.507102 -0.222576
C59   C     C_R   0.804300 0.556883 0.641090 0.261419
C60   C     C_R   0.889468 0.585886 0.654976 0.163541
C61   C     C_R   0.938144 0.555862 0.693617 0.344430
C62   C     C_R   0.913514 0.518235 0.738422 0.291751
C63   C     C_R   0.835151 0.507166 0.742873 -0.153556
C64   C     C_R   0.776059 0.520555 0.687098 -0.096536
C65   C     C_R   0.694906 0.505231 0.685360 -0.147442
C66   C     C_R   0.677370 0.485301 0.743355 0.234295
C67   C     C_R   0.735603 0.475180 0.800064 0.219773
C68   C     C_R   0.814303 0.486909 0.801488 -0.222396
O9    O     O_R   0.051730 0.908360 0.460070 -0.620248
O10   O     O_R   0.948280 0.908380 0.356650 -0.583561
C69   C     C_R   0.996423 0.876125 0.379437 0.848269
O11   O     O_R   0.960110 0.908350 0.551690 -0.571734
O12   O     O_R   0.856660 0.908370 0.448270 -0.581201
C70   C     C_R   0.878795 0.878614 0.497271 0.906138
Zn3   Zn    Zn3+2 0.069080 0.999960 0.569030 1.140487
Zn4   Zn    Zn3+2 0.930920 0.999990 0.430930 1.172225
O13   O     O_R   0.051720 0.091580 0.643310 -0.615713
O14   O     O_R   0.948270 0.091600 0.539890 -0.560746
O15   O     O_R   0.143340 0.091590 0.551680 -0.628842
O16   O     O_R   0.039890 0.091610 0.448270 -0.547883
C71   C     C_R   0.000806 0.120326 0.620311 0.978085
C72   C     C_R   0.120915 0.119238 0.500264 0.964803
O17   O     O_R   0.051710 0.460040 0.908380 -0.519180
O18   O     O_R   0.948270 0.356620 0.908410 -0.644228
C73   C     C_R   0.997543 0.379056 0.878248 0.899463
O19   O     O_R   0.143330 0.551680 0.091590 -0.569429
O20   O     O_R   0.039890 0.448260 0.091620 -0.616012
C74   C     C_R   0.120216 0.497783 0.117460 0.887973
Zn5   Zn    Zn3+2 0.069060 0.569020 0.999970 1.189066
Zn6   Zn    Zn3+2 0.930920 0.430910 0.000010 1.149687
O21   O     O_R   0.051700 0.643310 0.091570 -0.629867
O22   O     O_R   0.948260 0.539890 0.091600 -0.542236
O23   O     O_R   0.960080 0.551670 0.908360 -0.616286
O24   O     O_R   0.856640 0.448250 0.908390 -0.592806
C75   C     C_R   0.001661 0.620836 0.120289 0.941153
C76   C     C_R   0.879829 0.493464 0.874391 0.844578
H3    H     H_    0.029316 0.664793 0.569867 0.256501
C77   C     C_R   0.090057 0.764737 0.546656 0.290127
C78   C     C_R   0.088271 0.785207 0.482871 0.406664
C79   C     C_R   0.014718 0.728555 0.396352 -0.234776
C80   C     C_R   0.948508 0.645532 0.372843 0.175531
C81   C     C_R   0.953409 0.623611 0.436812 0.216936
C82   C     C_R   0.024605 0.682945 0.522034 -0.267534
C83   C     C_R   0.026099 0.690188 0.264950 0.467065
C84   C     C_R   0.007119 0.689731 0.188342 -0.103329
C85   C     C_R   0.990927 0.752258 0.175367 -0.117340
C86   C     C_R   0.979460 0.807931 0.234661 0.250227
C87   C     C_R   0.995017 0.807641 0.312110 -0.257931
C88   C     C_R   0.015480 0.745887 0.326080 -0.049020
C89   C     C_R   0.068761 0.799830 0.103834 0.401492
C90   C     C_R   0.069823 0.812800 0.036483 0.088061
C91   C     C_R   0.991276 0.789185 0.967221 0.088374
C92   C     C_R   0.910550 0.751261 0.963961 0.170512
C93   C     C_R   0.908992 0.735814 0.030042 0.317997
C94   C     C_R   0.988628 0.761685 0.100971 -0.115076
C95   C     C_R   0.272406 0.223595 0.858907 0.326005
C96   C     C_R   0.186796 0.208171 0.823236 0.484514
C97   C     C_R   0.166217 0.259209 0.789557 -0.217486
C98   C     C_R   0.233700 0.327038 0.794347 0.152541
C99   C     C_R   0.321928 0.348520 0.840008 0.236250
C100  C     C_R   0.341280 0.297194 0.872175 0.230602
C101  C     C_R   0.077783 0.320473 0.825247 0.299354
C102  C     C_R   0.996459 0.311656 0.811691 -0.162603
C103  C     C_R   0.916030 0.238923 0.736171 0.001945
C104  C     C_R   0.917834 0.175604 0.673022 0.260715
C105  C     C_R   0.999572 0.184124 0.687589 -0.225389
C106  C     C_R   0.079448 0.253881 0.765873 -0.030633
C107  C     C_R   0.795618 0.179796 0.762766 0.365240
C108  C     C_R   0.715655 0.167539 0.758238 0.047731
C109  C     C_R   0.668923 0.198335 0.715209 0.164276
C110  C     C_R   0.700920 0.239356 0.675060 0.387918
C111  C     C_R   0.779030 0.248814 0.676841 0.278636
C112  C     C_R   0.829312 0.223940 0.725770 -0.107618
O25   O     O_3   0.744904 0.895462 0.893908 -0.685289
H4    H     H_    0.682785 0.868559 0.878836 0.388571
O26   O     O_3   0.642466 0.665235 0.074550 -0.557973
H5    H     H_    0.630451 0.708555 0.063938 0.423687
O27   O     O_3   0.670563 0.555503 0.121683 -0.573866
H6    H     H_    0.673464 0.516130 0.143962 0.422110
O28   O     O_3   0.735015 0.598404 0.294690 -0.643760
H7    H     H_    0.771974 0.629949 0.358590 0.362678
O29   O     O_3   0.407526 0.791775 0.621455 -0.586175
H8    H     H_    0.446073 0.855488 0.666195 0.390102
O30   O     O_3   0.308302 0.627829 0.483129 -0.689662
H9    H     H_    0.270811 0.571679 0.426864 0.347967
N1    N     N_R   0.451145 0.723383 0.333473 0.260492
O31   O     O_R   0.456881 0.655786 0.294480 -0.376288
O32   O     O_R   0.445378 0.771190 0.299509 -0.236412
N2    N     N_R   0.551299 0.900124 0.482706 0.271899
O33   O     O_R   0.565007 0.978799 0.524386 -0.309370
O34   O     O_R   0.604403 0.890673 0.456446 -0.274074
O35   O     O_3   0.256770 0.658315 0.275631 -0.674880
H10   H     H_    0.196012 0.646518 0.247443 0.359373
N3    N     N_R   0.234653 0.340415 0.234165 0.232813
O36   O     O_R   0.236121 0.285333 0.171921 -0.292654
O37   O     O_R   0.229839 0.323948 0.293096 -0.376630
O38   O     O_3   0.610903 0.869023 0.741492 -0.681403
H11   H     H_    0.632804 0.916902 0.800106 0.384020
N4    N     N_R   0.883481 0.222308 0.108866 0.237651
O39   O     O_R   0.800817 0.185376 0.051965 -0.258038
O40   O     O_R   0.908673 0.258951 0.190739 -0.241954
O41   O     O_3   0.857463 0.086594 0.953737 -0.664949
H12   H     H_    0.831652 0.074415 0.988129 0.397110
O42   O     O_3   0.977595 0.118621 0.907028 -0.629528
H13   H     H_    0.028586 0.136404 0.899294 0.405411
O43   O     O_3   0.139274 0.280024 0.011898 -0.691459
H14   H     H_    0.194246 0.336879 0.057903 0.397139
N5    N     N_R   0.202593 0.625004 0.593544 0.284719
O44   O     O_R   0.190215 0.650857 0.658268 -0.247959
O45   O     O_R   0.198486 0.663115 0.548920 -0.276855
N6    N     N_R   0.336035 0.628854 0.722224 0.281345
O46   O     O_R   0.340124 0.618661 0.786619 -0.193339
O47   O     O_R   0.377888 0.707777 0.737097 -0.230241
N7    N     N_R   0.360585 0.482696 0.681228 0.279900
O48   O     O_R   0.344365 0.413600 0.687519 -0.296784
O49   O     O_R   0.438885 0.552676 0.734413 -0.240590
O50   O     O_3   0.126489 0.340668 0.376806 -0.638638
H15   H     H_    0.141258 0.294200 0.368463 0.381168
N8    N     N_R   0.100557 0.480384 0.419442 0.293886
O51   O     O_R   0.098217 0.467108 0.347531 -0.347044
O52   O     O_R   0.040676 0.491728 0.431891 -0.278839
O53   O     O_3   0.610381 0.808212 0.593677 -0.739499
H16   H     H_    0.626289 0.805522 0.549307 0.339536
O54   O     O_3   0.109755 0.262116 0.512713 -0.685439
H17   H     H_    0.110448 0.315878 0.517544 0.373704
N9    N     N_R   0.394374 0.236418 0.496198 0.221040
O55   O     O_R   0.381246 0.177848 0.424991 -0.265919
O56   O     O_R   0.474394 0.293486 0.561353 -0.315032
N10   N     N_R   0.358554 0.197303 0.668521 0.271091
O57   O     O_R   0.435775 0.231827 0.734786 -0.151587
O58   O     O_R   0.312332 0.233645 0.677396 -0.397666
O59   O     O_3   0.393058 0.065944 0.667886 -0.593141
H18   H     H_    0.428558 0.038156 0.663425 0.400404
N11   N     N_R   0.334329 0.912478 0.508639 0.222795
O60   O     O_R   0.328292 0.885958 0.561377 -0.321974
O61   O     O_R   0.341934 0.866738 0.446042 -0.289768
O62   O     O_3   0.226658 0.891794 0.355273 -0.622900
H19   H     H_    0.167093 0.877223 0.316304 0.361250
N12   N     N_R   0.201128 0.028630 0.346699 0.242865
O63   O     O_R   0.222199 0.002186 0.288828 -0.209402
O64   O     O_R   0.146080 0.055893 0.332398 -0.351032
N13   N     N_R   0.600738 0.478148 0.747439 0.232760
O65   O     O_R   0.543542 0.405231 0.733812 -0.203087
O66   O     O_R   0.600515 0.549657 0.786247 -0.208727
N14   N     N_R   0.752044 0.576042 0.588474 0.203247
O67   O     O_R   0.731682 0.541570 0.507953 -0.299592
O68   O     O_R   0.754034 0.648346 0.627718 -0.378058
N15   N     N_R   0.932558 0.656382 0.643257 0.240865
O69   O     O_R   0.890139 0.666243 0.581785 -0.311906
O70   O     O_R   0.014273 0.717908 0.701521 -0.245502
O71   O     O_3   0.884407 0.821188 0.733887 -0.586777
H20   H     H_    0.938740 0.862320 0.791474 0.434202
O72   O     O_3   0.013413 0.565314 0.691698 -0.589417
H21   H     H_    0.012222 0.574411 0.643737 0.381833
N16   N     N_R   0.972735 0.494842 0.779127 0.243114
O73   O     O_R   0.054112 0.558022 0.837199 -0.228267
O74   O     O_R   0.959273 0.417449 0.734180 -0.382416
N17   N     N_R   0.716022 0.457875 0.860352 0.243327
O75   O     O_R   0.712713 0.515775 0.918369 -0.236613
O76   O     O_R   0.683560 0.378323 0.845508 -0.255394
N18   N     N_R   0.159895 0.825725 0.636387 0.287140
O77   O     O_R   0.171486 0.800083 0.691662 -0.209832
O78   O     O_R   0.206932 0.909085 0.665572 -0.242694
O79   O     O_3   0.162126 0.858203 0.506370 -0.662544
H22   H     H_    0.159356 0.856874 0.453891 0.338611
N19   N     N_R   0.883703 0.579326 0.282866 0.279993
O80   O     O_R   0.845985 0.600210 0.229731 -0.359993
O81   O     O_R   0.872404 0.500810 0.251175 -0.221341
N20   N     N_R   0.886524 0.541523 0.416564 0.290159
O82   O     O_R   0.904792 0.508802 0.464739 -0.310677
O83   O     O_R   0.804912 0.504477 0.356891 -0.239859
O84   O     O_3   0.052359 0.633102 0.276566 -0.727675
H23   H     H_    0.085730 0.655204 0.339212 0.368184
N21   N     N_R   0.946798 0.860370 0.212943 0.244203
O85   O     O_R   0.990431 0.917103 0.198181 -0.285674
O86   O     O_R   0.864711 0.835978 0.187125 -0.310501
O87   O     O_3   0.893662 0.897279 0.892867 -0.673434
H24   H     H_    0.889845 0.927384 0.943955 0.416855
O88   O     O_3   0.144385 0.820377 0.172000 -0.662181
H25   H     H_    0.190101 0.825673 0.156578 0.395585
N22   N     N_R   0.151077 0.851496 0.038784 0.243501
O89   O     O_R   0.158586 0.811099 0.973772 -0.235098
O90   O     O_R   0.216191 0.929220 0.103909 -0.227481
N23   N     N_R   0.995607 0.808863 0.903092 0.293739
O91   O     O_R   0.049620 0.888896 0.927463 -0.234768
O92   O     O_R   0.967131 0.744844 0.827129 -0.297912
N24   N     N_R   0.830329 0.731639 0.896077 0.260032
O93   O     O_R   0.813257 0.700389 0.816827 -0.359512
O94   O     O_R   0.773279 0.744871 0.913183 -0.217063
O95   O     O_3   0.828515 0.695604 0.022994 -0.590053
H26   H     H_    0.833946 0.676832 0.065488 0.380572
O96   O     O_3   0.428620 0.323076 0.919198 -0.608193
H27   H     H_    0.435818 0.302693 0.960593 0.373782
O97   O     O_3   0.286634 0.166374 0.882237 -0.611179
H28   H     H_    0.337331 0.165187 0.878454 0.375383
O98   O     O_3   0.125593 0.142188 0.822970 -0.606797
H29   H     H_    0.067344 0.135888 0.796118 0.355869
N25   N     N_R   0.211942 0.373877 0.753692 0.265810
O99   O     O_R   0.137980 0.332925 0.681114 -0.340856
O100  O     O_R   0.263630 0.457906 0.789797 -0.208954
N26   N     N_R   0.393600 0.424781 0.857723 0.312218
O101  O     O_R   0.416045 0.502428 0.915324 -0.221623
O102  O     O_R   0.449947 0.416526 0.836136 -0.125119
N27   N     N_R   0.879933 0.921260 0.653534 0.211948
O103  O     O_R   0.858011 0.973357 0.693388 -0.350824
O104  O     O_R   0.960579 0.939411 0.693117 -0.273203
N28   N     N_R   0.159241 0.397158 0.900108 0.202222
O105  O     O_R   0.190381 0.469907 0.900393 -0.232049
O106  O     O_R   0.210347 0.389784 0.958732 -0.384669
N29   N     N_R   0.836354 0.099766 0.596770 0.235669
O107  O     O_R   0.782485 0.108997 0.542324 -0.300510
O108  O     O_R   0.819226 0.020748 0.577369 -0.304314
O109  O     O_3   0.842178 0.148119 0.801461 -0.674163
H30   H     H_    0.803006 0.101461 0.805411 0.403307
N30   N     N_R   0.682812 0.125081 0.798494 0.250465
O110  O     O_R   0.730938 0.156704 0.880893 -0.286196
O111  O     O_R   0.604281 0.055808 0.753450 -0.344583
N31   N     N_R   0.589368 0.189508 0.713265 0.282744
O112  O     O_R   0.527200 0.179560 0.647529 -0.272464
O113  O     O_R   0.581624 0.198804 0.780134 -0.208265
O114  O     O_3   0.654191 0.270051 0.634762 -0.634209
H31   H     H_    0.687539 0.304629 0.616583 0.388891
O115  O     O_3   0.801225 0.278815 0.627048 -0.683059
H32   H     H_    0.847504 0.268522 0.621531 0.406186
O116  O     O_3   0.597780 0.606831 0.339985 -0.665687
H33   H     H_    0.545814 0.586566 0.346118 0.346990
O117  O     O_3   0.679026 0.837040 0.354744 -0.634852
H34   H     H_    0.634998 0.845773 0.318772 0.396833
O118  O     O_3   0.657005 0.817010 0.191907 -0.678327
H35   H     H_    0.689312 0.876671 0.243958 0.370234

loop_
_geom_bond_atom_site_label_1
_geom_bond_atom_site_label_2
_geom_bond_distance
_ccdc_geom_bond_type
C49   C58   1.482774 S    
C109  N31   1.438855 S    
C100  O96   1.381796 S    
N3    O37   1.300141 A    
C11   C16   1.400899 A    
C83   O84   1.386582 S    
C30   C31   1.417097 A    
C93   C94   1.416761 A    
C21   O28   1.381088 S    
C41   C46   1.406549 A    
Zn3   O15   2.042496 S    
O114  H31   0.989500 S    
C90   C91   1.403900 A    
C61   C62   1.395135 A    
C42   C43   1.421078 A    
O71   H20   0.986578 S    
O11   Zn3   2.018434 S    
C91   N23   1.427928 S    
C95   C96   1.398601 A    
C66   N13   1.437671 S    
C19   O26   1.383269 S    
N15   O70   1.301873 A    
N2    O33   1.301980 A    
C55   N11   1.440414 S    
O88   H25   0.988777 S    
C67   N17   1.436976 S    
C65   C66   1.399508 A    
C44   C45   1.406136 A    
Zn1   O7    2.020563 S    
N4    O40   1.301624 A    
O96   H27   0.990053 S    
C93   O95   1.382726 S    
O87   H24   0.989806 S    
H1    C28   1.080638 S    
C92   C93   1.408575 A    
C7    C16   1.508246 S    
O35   H10   0.989751 S    
C26   C27   1.416105 A    
O11   C70   1.297632 A    
C45   N8    1.434019 S    
O18   Zn6   2.039286 S    
C57   C58   1.410229 A    
N6    O47   1.301247 A    
O4    C2    1.305680 A    
O41   H12   0.988768 S    
O7    C4    1.274066 A    
N11   O61   1.300807 A    
O54   H17   0.985417 S    
C20   O27   1.382557 S    
C2    C15   1.457225 S    
C56   O62   1.376067 S    
C111  O115  1.381843 S    
C110  C111  1.410063 A    
C35   C40   1.398988 A    
N20   O82   1.301541 A    
O118  H35   0.990739 S    
O84   H23   0.989835 S    
C5    O38   1.380599 S    
O109  H30   0.989028 S    
C38   O42   1.382058 S    
C8    C9    1.415144 A    
O116  H33   0.989261 S    
C89   C94   1.410510 A    
O5    C3    1.299550 A    
C85   C86   1.392632 A    
N15   O69   1.300073 A    
C71   C105  1.442583 S    
C43   C44   1.422895 A    
N2    O34   1.300517 A    
C89   O88   1.381623 S    
C77   C78   1.404606 A    
C27   N2    1.438399 S    
N16   O73   1.304123 A    
C41   C42   1.411457 A    
C99   C100  1.404224 A    
N23   O92   1.297484 A    
C7    C8    1.411625 A    
C36   C37   1.415447 A    
N28   O105  1.300960 A    
N30   O111  1.300504 A    
N9    O56   1.299314 A    
O42   H13   0.987150 S    
N9    O55   1.300030 A    
C57   N12   1.442794 S    
C107  O109  1.383251 S    
C39   O43   1.381261 S    
N18   O77   1.300824 A    
C5    C10   1.414453 A    
C103  C112  1.490807 S    
O10   Zn4   2.031356 S    
C77   N18   1.444986 S    
C54   O59   1.380447 S    
N27   O103  1.301436 A    
N28   O106  1.299034 A    
O53   H16   0.987359 S    
C104  C105  1.410864 A    
C47   C48   1.399298 A    
Zn5   O21   2.039415 S    
O1    Zn1   2.042863 S    
C11   C12   1.405658 A    
C43   C52   1.496859 S    
N1    O32   1.301422 A    
N10   O58   1.299152 A    
O3    Zn1   2.039225 S    
O98   H29   0.986411 S    
O50   H15   0.987912 S    
C23   C24   1.396989 A    
C97   C106  1.499741 S    
C37   O41   1.380011 S    
O9    C69   1.296033 A    
N5    O45   1.301072 A    
O43   H14   0.988289 S    
N19   O81   1.301570 A    
C89   C90   1.406477 A    
C23   O29   1.381215 S    
Zn5   O23   2.031916 S    
C29   C34   1.395925 A    
C60   N15   1.448955 S    
O23   C76   1.278545 A    
N21   O86   1.301677 A    
C1    C33   1.458281 S    
C91   C92   1.416057 A    
C80   N19   1.441253 S    
C62   C63   1.458098 A    
C84   C85   1.400162 A    
C23   C28   1.400093 A    
O38   H11   0.990336 S    
Zn4   O16   2.018520 S    
C102  C103  1.416826 A    
C54   C55   1.416663 A    
C14   C15   1.407422 A    
C50   N9    1.438232 S    
C80   C81   1.415600 A    
O79   H22   0.984247 S    
N19   O80   1.300054 A    
N20   O83   1.300613 A    
O115  H32   0.987330 S    
N22   O90   1.301263 A    
O117  H34   0.990286 S    
N13   O65   1.300615 A    
C6    C7    1.415630 A    
N31   O113  1.301472 A    
C38   C39   1.419444 A    
C15   C16   1.434321 A    
O12   C70   1.283354 A    
O6    C3    1.284097 A    
C39   C40   1.418090 A    
C48   C49   1.408717 A    
O1    C1    1.283274 A    
C24   C25   1.426100 A    
O30   H9    0.985701 S    
C69   C87   1.462544 S    
Zn6   O22   2.020525 S    
C63   C64   1.425374 A    
N8    O52   1.300323 A    
N6    O46   1.300809 A    
C48   C72   1.445288 S    
C19   C20   1.399367 A    
N22   O89   1.301233 A    
C17   O117  1.381646 S    
C78   O79   1.376485 S    
C36   N4    1.438727 S    
N12   O63   1.300818 A    
O20   Zn6   2.031790 S    
C78   C79   1.424472 A    
Zn2   O8    2.039225 S    
N23   O91   1.301754 A    
C81   N20   1.443157 S    
C50   C51   1.404012 A    
O16   C72   1.292280 A    
O62   H19   0.988323 S    
N29   O107  1.299769 A    
C30   C74   1.449285 S    
C25   C34   1.496368 S    
C35   H2    1.078450 S    
C64   C65   1.445010 A    
C55   C56   1.405395 A    
N17   O76   1.298833 A    
C8    O71   1.380272 S    
N18   O78   1.301629 A    
N4    O39   1.300808 A    
O29   H8    0.991751 S    
O9    Zn3   2.029435 S    
C96   O98   1.383698 S    
C95   O97   1.380639 S    
O3    C2    1.271682 A    
C29   C30   1.406164 A    
N16   O74   1.294306 A    
O8    C4    1.297403 A    
C104  N29   1.444673 S    
C53   C54   1.410287 A    
O19   C74   1.297852 A    
O10   C69   1.297786 A    
Zn3   O13   2.031484 S    
C3    C65   1.471429 S    
C42   N7    1.441136 S    
N3    O36   1.300349 A    
O97   H28   0.990515 S    
C10   O25   1.381390 S    
C67   C68   1.414301 A    
C83   C88   1.403636 A    
C85   C94   1.491937 S    
C101  N28   1.441235 S    
N7    O49   1.301020 A    
N24   O93   1.298506 A    
C18   C19   1.411460 A    
C11   N27   1.445728 S    
C59   C64   1.428551 A    
C101  C106  1.392771 A    
C87   C88   1.430644 A    
O12   Zn4   2.042237 S    
O14   C71   1.296692 A    
O25   H4    0.990352 S    
C63   C68   1.440890 A    
C32   N3    1.438942 S    
N8    O51   1.298968 A    
Zn1   O5    2.044824 S    
C68   C76   1.453541 S    
N21   O85   1.299892 A    
C25   C26   1.423340 A    
Zn4   O14   2.029518 S    
C62   N16   1.429745 S    
N12   O64   1.299944 A    
C17   C22   1.410341 A    
N11   O60   1.301042 A    
N29   O108  1.298831 A    
C56   C57   1.408568 A    
C21   C22   1.418442 A    
C110  O114  1.384538 S    
C33   C34   1.422998 A    
N30   O110  1.300219 A    
N27   O104  1.300992 A    
C60   C61   1.381122 A    
N24   O94   1.301430 A    
C98   C99   1.418104 A    
C59   N14   1.397521 S    
C107  C112  1.405645 A    
O4    Zn2   2.020563 S    
C46   N5    1.435937 S    
C86   C87   1.420668 A    
O17   C73   1.285932 A    
C81   C82   1.398653 A    
O95   H26   0.988764 S    
O17   Zn5   2.020436 S    
C79   C80   1.426095 A    
C47   O54   1.388703 S    
N14   O68   1.292525 A    
O19   Zn5   2.055616 S    
C103  C104  1.397002 A    
C92   N24   1.441369 S    
C101  C102  1.405598 A    
C96   C97   1.424547 A    
O2    C1    1.295970 A    
C29   O35   1.386310 S    
O20   C74   1.276002 A    
N10   O57   1.300687 A    
C111  C112  1.420365 A    
C13   C22   1.497912 S    
C9    C10   1.410401 A    
C41   N6    1.436241 S    
C97   C98   1.419641 A    
N7    O48   1.299754 A    
N13   O66   1.300528 A    
N17   O75   1.299754 A    
C95   C100  1.415096 A    
O15   C72   1.289365 A    
C61   O72   1.385083 S    
C14   O116  1.385619 S    
C66   C67   1.382961 A    
C20   C21   1.415018 A    
C45   C46   1.407333 A    
C44   O50   1.383859 S    
O18   C73   1.285750 A    
O24   C76   1.299064 A    
C98   N25   1.443703 S    
C32   C33   1.409508 A    
C107  C108  1.413463 A    
C4    C51   1.444735 S    
C27   C28   1.399512 A    
N14   O67   1.301437 A    
C9    O87   1.381800 S    
C77   C82   1.396571 A    
N26   O102  1.300985 A    
C75   C84   1.431879 S    
C83   C84   1.390461 A    
Zn6   O24   2.055699 S    
C86   N21   1.439642 S    
N25   O100  1.299406 A    
N1    O31   1.300412 A    
C12   C70   1.440701 S    
O13   C71   1.284541 A    
C49   C50   1.391042 A    
C18   O118  1.381136 S    
C90   N22   1.436160 S    
C6    O53   1.373246 S    
C105  C106  1.418520 A    
H3    C82   1.077396 S    
C13   C14   1.390097 A    
C51   C52   1.423790 A    
C35   C36   1.396193 A    
C47   C52   1.406064 A    
C79   C88   1.502714 S    
C24   O30   1.381041 S    
C53   N10   1.445001 S    
O59   H18   0.989259 S    
C99   N26   1.434562 S    
Zn2   O6    2.042863 S    
C37   C38   1.404671 A    
C31   C32   1.397781 A    
O2    Zn2   2.044825 S    
C17   C18   1.419270 A    
C109  C110  1.409161 A    
C73   C102  1.445930 S    
C12   C13   1.416772 A    
N31   O112  1.300486 A    
O21   C75   1.274645 A    
O28   H7    0.989469 S    
C59   C60   1.402132 A    
C53   C58   1.417848 A    
C108  C109  1.412764 A    
O26   H5    0.989513 S    
C108  N30   1.434197 S    
O22   C75   1.288737 A    
N25   O99   1.300429 A    
N5    O44   1.300824 A    
C5    C6    1.398878 A    
C31   C40   1.493039 S    
O27   H6    0.989823 S    
O72   H21   0.991054 S    
C26   N1    1.439144 S    
N26   O101  1.300981 A    
