data_mof_unit_3835.cif
_audit_creation_date              2013-03-05T16:44:38-0500
_audit_creation_method            fapswitch 2.2
_symmetry_space_group_name_H-M    P1
_symmetry_Int_Tables_number       1
_space_group_crystal_system       triclinic
_cell_length_a                    27.649118
_cell_length_b                    10.68337
_cell_length_c                    9.849229
_cell_angle_alpha                 89.775476
_cell_angle_beta                  89.512191
_cell_angle_gamma                 90.191192
_cell_volume                      2909.17766855

loop_
_atom_site_label
_atom_site_type_symbol
_atom_site_description
_atom_site_fract_x
_atom_site_fract_y
_atom_site_fract_z
_atom_type_partial_charge
O1    O     O_R   0.500010 0.316790 0.614690 -0.657209
O2    O     O_R   0.500000 0.316760 0.385350 -0.620801
C1    C     C_R   0.502143 0.260136 0.499974 0.855891
O3    O     O_R   0.428760 0.500040 0.614660 -0.562897
O4    O     O_R   0.428750 0.500000 0.385310 -0.631640
C2    C     C_R   0.406180 0.501247 0.500287 0.954276
Zn1   Zn    Zn3+2 0.500000 0.500020 0.653130 0.972874
Zn2   Zn    Zn3+2 0.500000 0.499980 0.346870 0.982557
O5    O     O_R   0.500000 0.683240 0.614650 -0.578562
O6    O     O_R   0.499990 0.683210 0.385310 -0.628279
O7    O     O_R   0.571250 0.500000 0.614690 -0.657069
O8    O     O_R   0.571240 0.499960 0.385340 -0.559276
C3    C     C_R   0.500251 0.739865 0.499530 0.881787
C4    C     C_R   0.594062 0.500183 0.499432 0.852150
C5    C     C_R   0.179901 0.463840 0.403948 0.560103
O9    O     O_2   0.205588 0.372154 0.343133 -0.558405
N1    N     N_R   0.203134 0.554821 0.474920 -0.327203
C6    C     C_R   0.178893 0.651283 0.534894 0.593498
C7    C     C_R   0.284282 0.623667 0.407734 0.548624
C8    C     C_R   0.334271 0.605188 0.411490 -0.413942
C9    C     C_R   0.323940 0.440589 0.581206 0.486190
C10   C     C_R   0.273948 0.458214 0.576401 -0.292545
C11   C     C_R   0.254326 0.546985 0.487957 0.170902
C12   C     C_R   0.103254 0.561915 0.457573 -0.086115
C13   C     C_R   0.129606 0.464340 0.395823 -0.011164
C14   C     C_R   0.105407 0.368709 0.328083 -0.107163
C15   C     C_R   0.128223 0.660459 0.522690 -0.164608
C16   C     C_R   0.354037 0.515687 0.499152 -0.177435
H1    H     H_    0.250214 0.400937 0.639075 0.179731
H2    H     H_    0.125042 0.295211 0.276130 0.197627
C17   C     C_R   0.646891 0.503070 0.497527 -0.041867
C18   C     C_R   0.976898 0.445125 0.410005 0.045405
C19   C     C_R   0.974106 0.655766 0.511938 0.069539
C20   C     C_R   0.950238 0.546613 0.464618 0.074695
C21   C     C_R   0.951750 0.335015 0.373085 -0.210376
C22   C     C_R   0.901841 0.327130 0.383985 -0.132693
C23   C     C_R   0.875158 0.428418 0.432270 -0.021379
C24   C     C_R   0.899138 0.538486 0.472650 -0.054350
C25   C     C_R   0.871921 0.640174 0.521511 -0.022945
C26   C     C_R   0.821468 0.630266 0.528135 0.507513
N2    N     N_R   0.799119 0.522272 0.488711 -0.357260
C27   C     C_R   0.824739 0.421919 0.442105 0.506073
C28   C     C_R   0.722099 0.509674 0.370534 -0.114518
C29   C     C_R   0.671980 0.503180 0.372986 -0.208429
C30   C     C_R   0.672693 0.508029 0.619613 -0.224597
C31   C     C_R   0.722936 0.513947 0.616841 -0.090550
C32   C     C_R   0.747614 0.515235 0.492268 0.317756
O10   O     O_2   0.801386 0.316184 0.405783 -0.552524
C33   C     C_R   0.027762 0.455258 0.397436 0.056060
C34   C     C_R   0.051985 0.559159 0.455928 0.081952
C35   C     C_R   0.025443 0.658845 0.514539 -0.009956
C36   C     C_R   0.055420 0.364259 0.328362 -0.202019
H3    H     H_    0.653002 0.498948 0.277441 0.205372
H4    H     H_    0.741217 0.510841 0.274103 0.146136
H5    H     H_    0.884256 0.240728 0.354519 0.192950
H6    H     H_    0.969700 0.251277 0.339221 0.148845
H7    H     H_    0.039481 0.288809 0.271698 0.150181
O11   O     O_2   0.203848 0.734744 0.609314 -0.504730
C37   C     C_R   0.101580 0.760996 0.577879 0.354662
H8    H     H_    0.357806 0.660232 0.345928 0.183200
C38   C     C_R   0.945515 0.757702 0.556228 -0.207205
C39   C     C_R   0.895442 0.749704 0.560962 -0.133602
O12   O     O_2   0.794860 0.727946 0.572280 -0.552582
C40   C     C_R   0.051214 0.758025 0.575121 -0.272479
H9    H     H_    0.960484 0.846462 0.585994 0.150334
H10   H     H_    0.654144 0.508136 0.716876 0.155792
H11   H     H_    0.875209 0.830104 0.596312 0.195299
H12   H     H_    0.742734 0.517778 0.711138 0.143853
H13   H     H_    0.033305 0.835689 0.622936 0.175489
C41   C     C_R   0.530902 0.062300 0.599625 0.018972
C42   C     C_R   0.507908 0.128421 0.495838 -0.104008
C43   C     C_R   0.492041 0.065099 0.379635 -0.179935
H14   H     H_    0.477136 0.114197 0.293288 0.162124
C44   C     C_R   0.490889 0.936354 0.379268 -0.212617
H15   H     H_    0.475791 0.888778 0.292283 0.171339
C45   C     C_R   0.504917 0.871353 0.495829 -0.045182
C46   C     C_R   0.527473 0.934555 0.601032 -0.041794
C47   C     C_3   0.522324 0.927377 0.752126 0.113265
C48   C     C_3   0.528152 0.069373 0.752219 0.208690
H16   H     H_    0.552286 0.875139 0.801255 0.123573
H17   H     H_    0.496096 0.119275 0.793133 0.103932
C49   C     C_R   0.459310 0.467780 0.072399 0.153036
N3    N     N_R   0.499670 0.499140 0.142800 -0.149906
C50   C     C_R   0.537626 0.550702 0.070922 0.502922
C51   C     C_R   0.538029 0.547309 0.926248 -0.243372
H18   H     H_    0.569159 0.581807 0.870237 0.157002
N4    N     N_R   0.499670 0.499180 0.857150 -0.135770
C52   C     C_R   0.459022 0.469427 0.930086 0.269976
C53   C     C_3   0.431275 0.349701 0.925419 -0.469081
C54   C     C_3   0.432533 0.346944 0.079631 -0.509997
H19   H     H_    0.394262 0.363426 0.885558 0.265584
H20   H     H_    0.451807 0.272963 0.877263 0.195290
H21   H     H_    0.396250 0.357395 0.127642 0.226686
H22   H     H_    0.454896 0.269669 0.120918 0.208040
O13   O     O_3   0.343561 0.353011 0.668532 -0.627368
C55   C     C_3   0.334042 0.230047 0.622128 0.077075
H23   H     H_    0.304349 0.222655 0.546373 0.148683
H24   H     H_    0.322878 0.172186 0.710984 0.198712
C56   C     C_3   0.379945 0.173931 0.561784 -0.782343
H25   H     H_    0.409391 0.176645 0.637689 0.274759
H26   H     H_    0.373284 0.075119 0.532535 0.232213
H27   H     H_    0.391303 0.227493 0.470034 0.222245
O14   O     O_3   0.263571 0.707830 0.318131 -0.594420
C57   C     C_3   0.279789 0.830585 0.346317 0.084091
H28   H     H_    0.316897 0.845445 0.304829 0.140648
H29   H     H_    0.279522 0.850461 0.457482 0.180198
C58   C     C_3   0.246301 0.923904 0.278222 -0.672077
H30   H     H_    0.208744 0.910907 0.316720 0.283615
H31   H     H_    0.258338 0.020864 0.300759 0.209044
H32   H     H_    0.246885 0.909931 0.166537 0.259169
N5    N     N_R   0.124626 0.869936 0.632842 0.247010
O15   O     O_R   0.110961 0.912582 0.750588 -0.368493
O16   O     O_R   0.151394 0.940356 0.554351 -0.362577
N6    N     N_R   0.474161 0.886750 0.797791 0.213704
O17   O     O_R   0.470139 0.805073 0.895516 -0.420300
O18   O     O_R   0.435199 0.932785 0.743845 -0.417589
O19   O     O_3   0.573009 0.101526 0.811091 -0.616112
C59   C     C_3   0.577422 0.232511 0.821891 0.153149
H33   H     H_    0.545287 0.274139 0.873015 0.137354
H34   H     H_    0.582756 0.274475 0.719535 0.178225
C60   C     C_3   0.621504 0.263741 0.906747 -0.804942
H35   H     H_    0.654638 0.225397 0.858045 0.265919
H36   H     H_    0.625378 0.366856 0.915577 0.202383
H37   H     H_    0.617340 0.223015 0.010142 0.260496
O20   O     O_3   0.576446 0.600065 0.139827 -0.609491
C61   C     C_3   0.577105 0.731342 0.122148 0.110766
H38   H     H_    0.540658 0.773194 0.139511 0.166548
H39   H     H_    0.590042 0.756118 0.018169 0.136430
C62   C     C_3   0.611620 0.788880 0.224105 -0.764917
H40   H     H_    0.648725 0.752142 0.207567 0.250626
H41   H     H_    0.612227 0.892234 0.211647 0.218099
H42   H     H_    0.599625 0.765826 0.329195 0.251756

loop_
_geom_bond_atom_site_label_1
_geom_bond_atom_site_label_2
_geom_bond_distance
_ccdc_geom_bond_type
N4    C52   1.364650 A    
C61   H38   1.115962 S    
C10   H1    1.083319 S    
Zn2   N3    2.010086 S    
N2    C27   1.365764 A    
C7    C11   1.400245 A    
O13   C55   1.417152 S    
C12   C15   1.415722 A    
C4    C17   1.460854 S    
C57   H29   1.116079 S    
N6    O17   1.300442 A    
C51   H18   1.081283 S    
Zn1   O7    2.002884 S    
C37   C40   1.393352 A    
N1    C11   1.425040 S    
C26   O12   1.350011 S    
C44   C45   1.397775 A    
C39   H11   1.083600 S    
C22   C23   1.394550 A    
O4    C2    1.288460 A    
O7    C4    1.293944 A    
C47   H16   1.113397 S    
C5    C13   1.393623 A    
C5    O9    1.350789 S    
C55   C56   1.522655 S    
C5    N1    1.361906 A    
C23   C27   1.398043 A    
O5    C3    1.282989 A    
C59   H33   1.112455 S    
C60   H37   1.110770 S    
C7    O14   1.386021 S    
C29   H3    1.082377 S    
C6    O11   1.348331 S    
Zn1   N4    2.009367 S    
N3    C50   1.373459 A    
C55   H24   1.110491 S    
C37   N5    1.435077 S    
C58   H30   1.110516 S    
C12   C13   1.410657 A    
C41   C42   1.398767 A    
C8    H8    1.083302 S    
C46   C47   1.495388 S    
C62   H42   1.110681 S    
C41   C48   1.506408 S    
O1    Zn1   1.995249 S    
C9    C10   1.396786 A    
C41   C46   1.367725 A    
C58   H31   1.110758 S    
C47   N6    1.465764 S    
O3    Zn1   2.009001 S    
C57   H28   1.111819 S    
C54   H22   1.110964 S    
C51   N4    1.365216 A    
C12   C34   1.417990 A    
C2    C16   1.450600 S    
C17   C29   1.404038 A    
C6    C15   1.410864 A    
C18   C21   1.414811 A    
C45   C46   1.390026 A    
C43   C44   1.375719 A    
C44   H15   1.083822 S    
C25   C26   1.399604 A    
C48   H17   1.109487 S    
C47   C48   1.525004 S    
C8    C16   1.401227 A    
C61   C62   1.521244 S    
C34   C35   1.417320 A    
C13   C14   1.394618 A    
C30   C31   1.390444 A    
C49   N3    1.360444 A    
O1    C1    1.284858 A    
C59   C60   1.520574 S    
C18   C20   1.418242 A    
C1    C42   1.417395 S    
C28   C29   1.387245 A    
C31   H12   1.082910 S    
C23   C24   1.408356 A    
C14   C36   1.382751 A    
C28   H4    1.083037 S    
C56   H25   1.110400 S    
C3    C45   1.410523 S    
Zn2   O8    2.009001 S    
C33   C36   1.412108 A    
C55   H23   1.116889 S    
N1    C6    1.364837 A    
N2    C32   1.425928 S    
N5    O16   1.301301 A    
C27   O10   1.350241 S    
C40   H13   1.075737 S    
C50   C51   1.425486 A    
C53   H20   1.104946 S    
C60   H35   1.110757 S    
O3    C2    1.292601 A    
C26   N2    1.366211 A    
C56   H26   1.110530 S    
C9    C16   1.402974 A    
O8    C4    1.293453 A    
C14   H2    1.083683 S    
O20   C61   1.412610 S    
C58   H32   1.110664 S    
C53   H19   1.109197 S    
O14   C57   1.413882 S    
C54   H21   1.111567 S    
C62   H40   1.110618 S    
C50   O20   1.379204 S    
Zn1   O5    1.992301 S    
C25   C39   1.394966 A    
C31   C32   1.398825 A    
C61   H39   1.112576 S    
N5    O15   1.301186 A    
C21   H6    1.077198 S    
C20   C24   1.416773 A    
Zn2   O6    1.995247 S    
O2    Zn2   1.992302 S    
C35   C40   1.411960 A    
C43   H14   1.082672 S    
O6    C3    1.279619 A    
O4    Zn2   2.002886 S    
N6    O18   1.302278 A    
C19   C35   1.420123 A    
C9    O13   1.383656 S    
C49   C54   1.487186 S    
C7    C8    1.397615 A    
O2    C1    1.280634 A    
C42   C43   1.404503 A    
C22   H5    1.083591 S    
C15   C37   1.412364 A    
O19   C59   1.408775 S    
C24   C25   1.407644 A    
C49   C52   1.401804 A    
C48   O19   1.415417 S    
C19   C20   1.420181 A    
C38   C39   1.387206 A    
C59   H34   1.110203 S    
C18   C33   1.414479 A    
C60   H36   1.110283 S    
C36   H7    1.077380 S    
C38   H9    1.076130 S    
C56   H27   1.110217 S    
C52   C53   1.490380 S    
C19   C38   1.415912 A    
C33   C34   1.420989 A    
C17   C30   1.404454 A    
C30   H10   1.082767 S    
C10   C11   1.399139 A    
C21   C22   1.385463 A    
C53   C54   1.519742 S    
C28   C32   1.397667 A    
C57   C58   1.520716 S    
C62   H41   1.110534 S    
