data_mof_unit_3353.cif
_audit_creation_date              2012-12-11T15:47:05-0500
_audit_creation_method            fapswitch 2.2
_symmetry_space_group_name_H-M    P1
_symmetry_Int_Tables_number       1
_space_group_crystal_system       triclinic
_cell_length_a                    20.136035
_cell_length_b                    7.259967
_cell_length_c                    13.562526
_cell_angle_alpha                 89.995912
_cell_angle_beta                  103.058729
_cell_angle_gamma                 90.005026
_cell_volume                      1931.39056345

loop_
_atom_site_label
_atom_site_type_symbol
_atom_type_description
_atom_site_fract_x
_atom_site_fract_y
_atom_site_fract_z
_atom_type_partial_charge
O1    O     O_R   0.449560 0.506810 0.599700 -0.533751
O2    O     O_R   0.550440 0.006810 0.400300 -0.533747
O3    O     O_R   0.587960 0.180060 0.595760 -0.542531
O4    O     O_R   0.412040 0.680060 0.404240 -0.542538
C1    C     C_R   0.614786 0.344308 0.617578 0.701523
C2    C     C_R   0.385214 0.844303 0.382422 0.701526
O5    O     O_R   0.452380 0.177430 0.611700 -0.538052
O6    O     O_R   0.547620 0.677430 0.388300 -0.538030
O7    O     O_R   0.413900 0.001890 0.416350 -0.542238
O8    O     O_R   0.586100 0.501890 0.583650 -0.542242
C3    C     C_R   0.436499 0.345680 0.637731 0.705939
C4    C     C_R   0.563501 0.845703 0.362270 0.705956
O9    O     O_3   0.487530 0.337490 0.435890 -0.378855
O10   O     O_3   0.512470 0.837490 0.564110 -0.378877
V1    V     V_3+5 0.502310 0.064660 0.511890 1.431025
V2    V     V_3+5 0.497690 0.564660 0.488110 1.431031
C5    C     C_R   0.606843 0.864832 0.107338 0.377133
C6    C     C_R   0.393160 0.363198 0.892695 0.377109
H1    H     H_    0.514438 0.864140 0.161160 0.134183
H2    H     H_    0.485570 0.362458 0.838886 0.134328
H3    H     H_    0.694451 0.906911 0.982514 0.129755
H4    H     H_    0.305591 0.404658 0.017612 0.129825
C7    C     C_R   0.602791 0.853670 0.284164 -0.109045
C8    C     C_R   0.397210 0.353528 0.715841 -0.109083
C9    C     C_R   0.931021 0.840767 0.316060 -0.172279
C10   C     C_R   0.068968 0.341727 0.683895 -0.172242
C11   C     C_R   0.895148 0.826392 0.391905 -0.114766
C12   C     C_R   0.104833 0.327722 0.608026 -0.114787
C13   C     C_R   0.824121 0.830004 0.368196 -0.155503
C14   C     C_R   0.175863 0.330956 0.631748 -0.155529
C15   C     C_R   0.786702 0.849564 0.266679 0.095785
C16   C     C_R   0.213293 0.349739 0.733308 0.095795
C17   C     C_R   0.823980 0.864205 0.189449 0.071413
C18   C     C_R   0.176025 0.363911 0.810570 0.071390
C19   C     C_R   0.713764 0.853799 0.239338 0.039825
C20   C     C_R   0.286234 0.353635 0.760659 0.039838
C21   C     C_R   0.679429 0.866500 0.135142 0.032514
C22   C     C_R   0.320576 0.365380 0.864888 0.032468
C23   C     C_R   0.718046 0.886166 0.061614 -0.193811
C24   C     C_R   0.281976 0.384601 0.938461 -0.193874
C25   C     C_R   0.788683 0.884090 0.088138 -0.186973
C26   C     C_R   0.211337 0.382962 0.911929 -0.187006
C27   C     C_R   0.673718 0.847835 0.312434 -0.219537
C28   C     C_R   0.326276 0.348228 0.687547 -0.219556
C29   C     C_R   0.569671 0.862712 0.182471 -0.144689
C30   C     C_R   0.430335 0.361524 0.817562 -0.144775
C31   C     C_R   0.896191 0.859234 0.215172 -0.069052
C32   C     C_R   0.103811 0.359364 0.784828 -0.069025
H5    H     H_    0.695783 0.840967 0.392445 0.109592
H6    H     H_    0.304205 0.342129 0.607515 0.109616
H7    H     H_    0.986243 0.836390 0.335989 0.103407
H8    H     H_    0.013741 0.337723 0.663948 0.103364
H9    H     H_    0.800411 0.815377 0.431356 0.121393
H10   H     H_    0.199567 0.316647 0.568565 0.121376
H11   H     H_    0.922604 0.811138 0.469897 0.129363
H12   H     H_    0.077367 0.313085 0.529998 0.129349
H13   H     H_    0.815532 0.898632 0.027847 0.117677
H14   H     H_    0.184499 0.397146 0.972254 0.117726
C33   C     C_R   0.204813 0.000751 0.263309 0.353527
C34   C     C_R   0.795207 0.500693 0.736653 0.353613
C35   C     C_R   0.272008 0.998565 0.321072 -0.151125
C36   C     C_R   0.728011 0.498517 0.678890 -0.151100
H15   H     H_    0.288743 0.109088 0.374653 0.135543
H16   H     H_    0.711291 0.608995 0.625280 0.135491
C37   C     C_R   0.315926 0.851027 0.315106 -0.116557
C38   C     C_R   0.684073 0.351037 0.684895 -0.116503
C39   C     C_R   0.291958 0.706112 0.247795 -0.148705
C40   C     C_R   0.708023 0.206170 0.752241 -0.148695
H17   H     H_    0.324603 0.590157 0.241506 0.134133
H18   H     H_    0.675363 0.090259 0.758556 0.134064
C41   C     C_R   0.226088 0.710588 0.186162 -0.166243
C42   C     C_R   0.773894 0.210636 0.813871 -0.166311
H19   H     H_    0.210283 0.599170 0.132951 0.140066
H20   H     H_    0.789687 0.099258 0.867103 0.139963
C43   C     C_R   0.181674 0.858039 0.191565 -0.136218
C44   C     C_R   0.818327 0.358032 0.808432 -0.136135
O11   O     O_R   0.913920 0.203370 0.916260 -0.534955
O12   O     O_R   0.086080 0.703370 0.083740 -0.534947
O13   O     O_R   0.047620 0.535540 0.888290 -0.542549
O14   O     O_R   0.952380 0.035540 0.111710 -0.542566
C45   C     C_R   0.063725 0.368251 0.862332 0.668464
C46   C     C_R   0.936276 0.868228 0.137669 0.668474
O15   O     O_R   0.912040 0.532780 0.904220 -0.532635
O16   O     O_R   0.087960 0.032780 0.095780 -0.532658
O17   O     O_R   0.949550 0.708160 0.099720 -0.533816
O18   O     O_R   0.050450 0.208160 0.900280 -0.533830
C47   C     C_R   0.886316 0.364706 0.880605 0.669739
C48   C     C_R   0.113684 0.864710 0.119394 0.669745
O19   O     O_3   0.012480 0.375300 0.064060 -0.372864
O20   O     O_3   0.987520 0.875300 0.935940 -0.372847
V3    V     V_3+5 0.997690 0.648180 0.988110 1.450926
V4    V     V_3+5 0.002310 0.148180 0.011890 1.450845
O21   O     O_3   0.570132 0.865513 0.008273 -0.634626
H21   H     H_    0.594986 0.790888 0.967299 0.282838
O22   O     O_3   0.429864 0.362860 0.991767 -0.634562
H22   H     H_    0.404933 0.287944 0.032524 0.282916
O23   O     O_3   0.163281 0.141462 0.281817 -0.646035
H23   H     H_    0.116410 0.092348 0.272973 0.281695
O24   O     O_3   0.836760 0.641335 0.718105 -0.646062
H24   H     H_    0.883627 0.592230 0.727000 0.281673

loop_
_geom_bond_atom_site_label_1
_geom_bond_atom_site_label_2
_ccdc_geom_bond_type
O15   C47   A    
O11   V4    S    
O4    V2    S    
O21   H21   S    
C7    C29   A    
C11   C13   A    
C38   C40   A    
O22   H22   S    
O1    C3    A    
C42   C44   A    
C34   O24   S    
O2    C4    A    
C26   H14   S    
C2    O7    A    
O23   H23   S    
O17   V3    S    
C23   C25   A    
O5    C3    A    
C14   H10   S    
C4    C7    S    
C16   C20   A    
C19   C21   A    
C5    C29   A    
C11   H11   S    
O12   C48   A    
C3    C8    S    
C7    C27   A    
C32   C45   S    
C34   C36   A    
C31   C46   S    
C35   H15   S    
C36   H16   S    
C2    C37   S    
C37   C39   A    
C18   C26   A    
C15   C17   A    
C14   C16   A    
C19   C27   A    
C9    C31   A    
O13   V3    S    
C45   O18   A    
C10   C32   A    
C24   C26   A    
O6    V2    S    
C22   C24   A    
C13   C15   A    
C6    O22   S    
C6    C30   A    
C12   H12   S    
C33   C35   A    
C33   O23   S    
C36   C38   A    
C42   H20   S    
O13   C45   A    
C27   H5    S    
C34   C44   A    
C40   C42   A    
C39   H17   S    
C16   C18   A    
O14   V4    S    
C9    H7    S    
C10   H8    S    
O24   H24   S    
H3    C23   S    
O6    C4    A    
H4    C24   S    
O1    V2    S    
C5    C21   A    
O19   V4    S    
O2    V1    S    
C44   C47   S    
O4    C2    A    
C17   C31   A    
C15   C19   A    
C20   C28   A    
C5    O21   S    
C20   C22   A    
C33   C43   A    
O3    V1    S    
C41   H19   S    
C28   H6    S    
O16   C48   A    
C1    C38   S    
O3    C1    A    
H1    C29   S    
O12   V3    S    
C9    C11   A    
C46   O17   A    
O15   V3    S    
C10   C12   A    
C17   C25   A    
C12   C14   A    
C6    C22   A    
C8    C30   A    
C1    O8    A    
C21   C23   A    
O8    V2    S    
C41   C43   A    
O20   V3    S    
C13   H9    S    
C8    C28   A    
O5    V1    S    
O14   C46   A    
C39   C41   A    
O7    V1    S    
C25   H13   S    
C35   C37   A    
C43   C48   S    
C18   C32   A    
O11   C47   A    
C40   H18   S    
O9    V2    S    
O10   V1    S    
O18   V4    S    
O16   V4    S    
H2    C30   S    
