data_mof_unit_743.cif
_audit_creation_date              2013-03-05T16:47:41-0500
_audit_creation_method            fapswitch 2.2
_symmetry_space_group_name_H-M    P1
_symmetry_Int_Tables_number       1
_space_group_crystal_system       triclinic
_cell_length_a                    8.919548
_cell_length_b                    8.130255
_cell_length_c                    10.583002
_cell_angle_alpha                 89.598036
_cell_angle_beta                  90.021605
_cell_angle_gamma                 89.98028
_cell_volume                      767.441265431

loop_
_atom_site_label
_atom_site_type_symbol
_atom_site_description
_atom_site_fract_x
_atom_site_fract_y
_atom_site_fract_z
_atom_type_partial_charge
O1    O     O_R   0.285350 0.636850 0.500000 -0.613277
O2    O     O_R   0.714650 0.363150 0.500000 -0.613277
O3    O     O_R   0.714650 0.636850 0.500000 -0.616065
O4    O     O_R   0.285350 0.363150 0.500000 -0.616064
C1    C     C_R   0.218115 0.500017 0.500079 0.929665
C2    C     C_R   0.781885 0.499983 0.499921 0.929666
O5    O     O_R   0.499970 0.636850 0.313950 -0.611849
O6    O     O_R   0.500030 0.363150 0.686050 -0.611846
O7    O     O_R   0.500030 0.636850 0.686050 -0.627253
O8    O     O_R   0.499970 0.363150 0.313950 -0.627252
C3    C     C_R   0.498070 0.500247 0.257141 0.896164
C4    C     C_R   0.501930 0.499753 0.742859 0.896164
Zn1   Zn    Zn3+2 0.500000 0.682780 0.500000 1.007202
Zn2   Zn    Zn3+2 0.500000 0.317220 0.500000 1.007203
C5    C     C_3   0.386042 0.594255 0.039490 -0.055761
C6    C     C_3   0.613958 0.405745 0.960509 -0.055761
C7    C     C_3   0.518478 0.654719 0.958619 -0.036470
C8    C     C_3   0.481522 0.345281 0.041380 -0.036470
C9    C     C_3   0.369550 0.439709 0.957321 0.108465
C10   C     C_3   0.630450 0.560291 0.042679 0.108465
C11   C     C_3   0.502197 0.500020 0.876940 -0.132812
C12   C     C_3   0.497803 0.499980 0.123060 -0.132812
C13   C     C_1   0.065243 0.500025 0.500031 -0.179668
C14   C     C_1   0.934757 0.499975 0.499969 -0.179666
N1    N     N_1   0.500000 0.073640 0.500000 -0.021336
N2    N     N_1   0.500000 0.926360 0.500000 -0.021336
C15   C     C_3   0.222762 0.372046 0.905665 -0.849556
H1    H     H_    0.245258 0.260261 0.849144 0.258294
H2    H     H_    0.146993 0.339953 0.985245 0.248348
H3    H     H_    0.167984 0.466169 0.844785 0.232672
C16   C     C_3   0.777238 0.627954 0.094334 -0.849556
H4    H     H_    0.754739 0.739721 0.150877 0.258294
H5    H     H_    0.832030 0.533818 0.155195 0.232672
H6    H     H_    0.852996 0.660076 0.014753 0.248350
C17   C     C_1   0.261156 0.694937 0.085897 0.202312
N3    N     N_1   0.162661 0.774003 0.122527 -0.192022
C18   C     C_1   0.738844 0.305064 0.914102 0.202312
N4    N     N_1   0.837340 0.225997 0.877473 -0.192022
C19   C     C_1   0.541481 0.821735 0.908377 0.242139
N5    N     N_1   0.559891 0.952235 0.867001 -0.189199
C20   C     C_1   0.458519 0.178265 0.091623 0.242140
N6    N     N_1   0.440109 0.047765 0.132999 -0.189198

loop_
_geom_bond_atom_site_label_1
_geom_bond_atom_site_label_2
_geom_bond_distance
_ccdc_geom_bond_type
C5    C9    1.540126 S    
C13   C14   1.163875 T    
C16   H5    1.109979 S    
C6    C11   1.533851 S    
C15   H2    1.109765 S    
C9    C15   1.523113 S    
C20   N6    1.156752 T    
C3    C12   1.418996 S    
C16   H4    1.109807 S    
C1    C13   1.363549 S    
C6    C10   1.540126 S    
C6    C18   1.468850 S    
O6    C4    1.266726 A    
O3    C2    1.263899 A    
C2    C14   1.363550 S    
C16   H6    1.109775 S    
C15   H3    1.109968 S    
O5    C3    1.266727 A    
O2    C2    1.264011 A    
O1    C1    1.264011 A    
C5    C17   1.468851 S    
C9    C11   1.535974 S    
C18   N4    1.157015 T    
C10   C12   1.535974 S    
Zn2   N1    1.980368 S    
O4    Zn2   1.950532 S    
O2    Zn2   1.950784 S    
O7    C4    1.262822 A    
Zn1   N2    1.980368 S    
O1    Zn1   1.950784 S    
O8    C3    1.262822 A    
O5    Zn1   2.006638 S    
C7    C10   1.538665 S    
O7    Zn1   2.001490 S    
C6    C8    1.537794 S    
C8    C9    1.538665 S    
O8    Zn2   2.001490 S    
C8    C20   1.469287 S    
C19   N5    1.156753 T    
C5    C7    1.537794 S    
C7    C19   1.469287 S    
O6    Zn2   2.006638 S    
N1    N2    1.197423 T    
C8    C12   1.538022 S    
C4    C11   1.418996 S    
C5    C12   1.533852 S    
C7    C11   1.538022 S    
C17   N3    1.157015 T    
O4    C1    1.263900 A    
C15   H1    1.109797 S    
C10   C16   1.523113 S    
O3    Zn1   1.950532 S    
