data_mof_unit_3492.cif
_audit_creation_date              2012-12-10T20:28:45-0500
_audit_creation_method            fapswitch 2.2
_symmetry_space_group_name_H-M    P1
_symmetry_Int_Tables_number       1
_space_group_crystal_system       triclinic
_cell_length_a                    10.709535
_cell_length_b                    10.650551
_cell_length_c                    9.837313
_cell_angle_alpha                 89.577249
_cell_angle_beta                  90.408912
_cell_angle_gamma                 90.538235
_cell_volume                      1121.95993311

loop_
_atom_site_label
_atom_site_type_symbol
_atom_type_description
_atom_site_fract_x
_atom_site_fract_y
_atom_site_fract_z
_atom_type_partial_charge
C1    C     C_R   0.508178 0.259869 0.500482 0.938598
C2    C     C_R   0.564201 0.936589 0.378969 0.507336
C3    C     C_R   0.534793 0.871221 0.499512 -0.328129
C4    C     C_R   0.261016 0.515490 0.500214 0.864437
C5    C     C_R   0.538338 0.934615 0.622565 -0.020885
C6    C     C_3   0.455384 0.924665 0.743584 -0.467150
C7    C     C_3   0.458748 0.066785 0.746121 0.493005
C8    C     C_R   0.392822 0.473476 0.070376 0.134342
C9    C     C_R   0.601622 0.540166 0.072527 -0.050633
C10   C     C_R   0.601373 0.540690 0.928427 -0.096347
C11   C     C_R   0.393094 0.473433 0.927713 0.083642
C12   C     C_R   0.063883 0.538207 0.627535 0.107633
C13   C     C_3   0.318120 0.355558 0.920033 -0.619826
C14   C     C_3   0.315247 0.355954 0.074656 0.925765
C15   C     C_R   0.506890 0.740235 0.499466 0.950826
C16   C     C_R   0.740524 0.491554 0.501175 0.872999
C17   C     C_R   0.117246 0.583176 0.750171 -0.266214
C18   C     C_R   0.059731 0.558327 0.874475 -0.207135
C19   C     C_R   0.952439 0.483412 0.878440 0.540050
C20   C     C_R   0.892521 0.451648 0.756108 -0.300235
C21   C     C_R   0.941826 0.491647 0.629596 0.047813
C22   C     C_3   0.304924 0.142806 0.130279 0.229616
C23   C     C_R   0.128205 0.534867 0.502612 -0.131926
C24   C     C_3   0.237180 0.120062 0.265138 -0.342931
C25   C     C_3   0.170517 0.992815 0.266656 -0.998504
C26   C     C_3   0.920176 0.319113 0.027034 0.029308
C27   C     C_3   0.794061 0.250511 0.032517 -0.325570
C28   C     C_3   0.811242 0.110013 0.057289 -0.745920
C29   C     C_R   0.063073 0.525540 0.379938 -0.179006
C30   C     C_R   0.936556 0.506106 0.380924 -0.205761
C31   C     C_R   0.874902 0.488416 0.504594 -0.102461
C32   C     C_R   0.540735 0.062665 0.624001 0.044906
C33   C     C_R   0.537916 0.129358 0.501656 -0.429693
C34   C     C_R   0.566729 0.066728 0.380405 0.531868
F1    F     F_    0.523612 0.111642 0.858197 -0.658464
F2    F     F_    0.198071 0.377900 0.127137 -0.755603
F3    F     F_    0.585833 0.129646 0.261925 -0.620123
F4    F     F_    0.580063 0.876780 0.258908 -0.637876
H1    H     H_    0.109905 0.531893 0.283109 0.230015
H2    H     H_    0.809598 0.393742 0.761686 0.177950
H3    H     H_    0.887420 0.504316 0.284326 0.203897
H4    H     H_    0.361461 0.885387 0.718544 0.141713
H5    H     H_    0.369368 0.063495 0.112697 0.214443
H6    H     H_    0.236363 0.141698 0.044276 0.089393
H7    H     H_    0.305332 0.123017 0.350475 0.217479
H8    H     H_    0.167351 0.194716 0.281626 0.254347
H9    H     H_    0.100366 0.987965 0.183062 0.270648
H10   H     H_    0.121771 0.979503 0.365033 0.271600
H11   H     H_    0.238957 0.915943 0.254898 0.278712
H12   H     H_    0.503031 0.880035 0.832103 0.243847
H13   H     H_    0.966191 0.308890 0.128000 0.216106
H14   H     H_    0.982362 0.272325 0.952206 0.138393
H15   H     H_    0.737059 0.290088 0.115609 0.273888
H16   H     H_    0.742518 0.264012 0.935358 0.249287
H17   H     H_    0.870172 0.069142 0.976676 0.222791
H18   H     H_    0.719007 0.061651 0.055140 0.345731
H19   H     H_    0.855921 0.093410 0.158020 0.248835
H20   H     H_    0.366692 0.111160 0.727000 0.035948
H21   H     H_    0.684343 0.570580 0.127115 0.179722
H22   H     H_    0.683361 0.572635 0.874586 0.168409
H23   H     H_    0.225269 0.368549 0.871988 0.200087
H24   H     H_    0.372461 0.278225 0.876974 0.241808
H25   H     H_    0.202943 0.637806 0.750887 0.180612
H26   H     H_    0.102908 0.590453 0.967980 0.178697
N1    N     N_R   0.499160 0.499140 0.142800 -0.116501
N2    N     N_R   0.499160 0.499180 0.857150 -0.093687
O1    O     O_R   0.500020 0.316790 0.614690 -0.609675
O2    O     O_3   0.902001 0.449036 0.002437 -0.667859
O3    O     O_R   0.500000 0.316760 0.385350 -0.516681
O4    O     O_R   0.316770 0.500020 0.614690 -0.625805
O5    O     O_R   0.316760 0.499980 0.385350 -0.601627
O6    O     O_R   0.500000 0.683240 0.614650 -0.626765
O7    O     O_R   0.499980 0.683210 0.385310 -0.566231
O8    O     O_R   0.683240 0.500020 0.614650 -0.638576
O9    O     O_R   0.683230 0.499980 0.385310 -0.630632
O10   O     O_3   0.378286 0.254148 0.136487 -0.580830
Zn1   Zn    Zn3+2 0.500010 0.500020 0.653130 0.953385
Zn2   Zn    Zn3+2 0.499990 0.499980 0.346870 1.035378

loop_
_geom_bond_atom_site_label_1
_geom_bond_atom_site_label_2
_ccdc_geom_bond_type
C34   F3    S    
C19   C20   A    
O1    Zn1   S    
C22   O10   S    
C4    O4    A    
C28   H18   S    
C27   H16   S    
C1    C33   S    
C28   H19   S    
C16   C31   S    
C15   O6    A    
C21   C31   A    
C12   C23   A    
C26   C27   S    
O6    Zn1   S    
C16   O8    A    
C24   H7    S    
C23   C29   A    
C14   F2    S    
C30   C31   A    
C20   H2    S    
C16   O9    A    
C18   C19   A    
C22   H6    S    
C13   H24   S    
O8    Zn1   S    
C12   C17   A    
O7    Zn2   S    
C30   H3    S    
N1    Zn2   S    
C9    C10   A    
C25   H9    S    
C7    H20   S    
C11   N2    A    
C5    C32   A    
C2    C34   A    
C8    N1    A    
C13   C14   S    
O4    Zn1   S    
O3    Zn2   S    
C28   H17   S    
C33   C34   A    
C25   H11   S    
C10   N2    A    
C24   C25   S    
C4    C23   S    
C12   C21   A    
C1    O3    A    
C9    H21   S    
C14   O10   S    
C10   H22   S    
C29   C30   A    
C26   H14   S    
C2    F4    S    
C22   H5    S    
C29   H1    S    
C17   C18   A    
C19   O2    S    
C6    H12   S    
C25   H10   S    
C15   O7    A    
C22   C24   S    
C3    C15   S    
N2    Zn1   S    
C8    C14   S    
C7    C32   S    
C7    F1    S    
C3    C5    A    
C27   H15   S    
C6    C7    S    
C24   H8    S    
C32   C33   A    
C2    C3    A    
C26   O2    S    
C26   H13   S    
C17   H25   S    
C11   C13   S    
C18   H26   S    
C5    C6    S    
C8    C11   A    
C1    O1    A    
O5    Zn2   S    
O9    Zn2   S    
C9    N1    A    
C13   H23   S    
C20   C21   A    
C6    H4    S    
C27   C28   S    
C4    O5    A    
