data_mof_unit_907.cif
_audit_creation_date              2012-12-10T17:42:43-0500
_audit_creation_method            fapswitch 2.2
_symmetry_space_group_name_H-M    P1
_symmetry_Int_Tables_number       1
_space_group_crystal_system       triclinic
_cell_length_a                    9.893701
_cell_length_b                    10.725166
_cell_length_c                    13.142429
_cell_angle_alpha                 91.402361
_cell_angle_beta                  69.515537
_cell_angle_gamma                 89.012585
_cell_volume                      1305.49479122

loop_
_atom_site_label
_atom_site_type_symbol
_atom_type_description
_atom_site_fract_x
_atom_site_fract_y
_atom_site_fract_z
_atom_type_partial_charge
C1    C     C_R   0.500200 0.740368 0.494626 0.870999
C2    C     C_R   0.366201 0.493882 0.822395 -0.110921
C3    C     C_R   0.239515 0.895188 0.494298 -0.163469
C4    C     C_R   0.419497 0.495809 0.704134 0.830803
C5    C     C_R   0.107084 0.960207 0.533895 -0.140691
C6    C     C_R   0.095755 0.073782 0.589663 -0.155042
C7    C     C_R   0.219692 0.127988 0.595729 -0.150666
C8    C     C_R   0.356792 0.067881 0.546247 0.101812
C9    C     C_R   0.363676 0.943362 0.510499 0.096657
C10   C     C_R   0.495119 0.874599 0.492367 -0.124320
C11   C     C_R   0.620722 0.935346 0.488455 -0.210895
C12   C     C_R   0.431063 0.488674 0.984240 0.087752
C13   C     C_R   0.618461 0.062286 0.501593 -0.211524
C14   C     C_R   0.488313 0.129280 0.526687 -0.134310
C15   C     C_R   0.792610 0.665925 0.642596 -0.151747
C16   C     C_R   0.495450 0.261308 0.511253 0.875980
C17   C     C_R   0.829137 0.743141 0.715080 -0.203678
C18   C     C_R   0.968104 0.739132 0.716966 -0.185659
C19   C     C_R   0.071855 0.659094 0.645315 -0.177284
C20   C     C_R   0.038610 0.579723 0.570982 0.145570
C21   C     C_R   0.894268 0.581320 0.570157 0.176106
C22   C     C_R   0.960214 0.420275 0.434938 -0.124076
C23   C     C_R   0.455988 0.447252 0.876387 0.091685
C24   C     C_R   0.103811 0.421266 0.434028 -0.122231
C25   C     C_R   0.581220 0.499347 0.295177 0.892661
C26   C     C_R   0.773153 0.368303 0.012046 -0.250043
C27   C     C_R   0.632858 0.484634 0.176481 -0.134909
C28   C     C_R   0.236777 0.558130 0.880941 -0.208883
C29   C     C_R   0.201940 0.584686 0.991074 -0.111033
C30   C     C_R   0.298902 0.553194 0.042271 -0.185229
C31   C     C_2   0.882548 0.396099 0.153414 0.911882
C32   C     C_R   0.540488 0.465340 0.028471 0.084960
C33   C     C_R   0.663235 0.389356 0.969866 0.154323
C34   C     C_R   0.675232 0.335471 0.869558 -0.229626
C35   C     C_R   0.572197 0.362969 0.823750 -0.194497
C36   C     C_R   0.532396 0.517056 0.128717 -0.263923
C37   C     C_R   0.760331 0.416515 0.115016 -0.026242
H1    H     H_    0.242517 0.810607 0.447433 0.173244
H2    H     H_    0.177149 0.662216 0.649785 0.207322
H3    H     H_    0.765831 0.273705 0.825426 0.142383
H4    H     H_    0.183937 0.357021 0.380043 0.165414
H5    H     H_    0.869115 0.314048 0.964607 0.163158
H6    H     H_    0.444568 0.579576 0.174516 0.154632
H7    H     H_    0.165788 0.592853 0.840677 0.152490
H8    H     H_    0.266066 0.578935 0.127384 0.132865
H9    H     H_    0.102353 0.635257 0.035860 0.177903
H10   H     H_    0.584733 0.317876 0.746272 0.162418
H11   H     H_    0.722329 0.885141 0.473056 0.173965
H12   H     H_    0.012709 0.921211 0.522880 0.147138
H13   H     H_    0.023369 0.472605 0.214840 0.327628
H14   H     H_    0.992013 0.122024 0.624691 0.133789
H15   H     H_    0.207411 0.217034 0.638992 0.156227
H16   H     H_    0.719580 0.107925 0.489454 0.172039
H17   H     H_    0.931890 0.354580 0.382428 0.167699
H18   H     H_    0.683723 0.675770 0.646708 0.205937
H19   H     H_    0.748876 0.806619 0.770111 0.155135
H20   H     H_    0.996352 0.799511 0.773259 0.156742
N1    N     N_R   0.856860 0.501200 0.500990 -0.112630
N2    N     N_R   0.142450 0.501280 0.501020 -0.124082
O1    O     O_R   0.385310 0.683220 0.500000 -0.651259
O2    O     O_R   0.933477 0.495962 0.198667 -0.803302
O3    O     O_R   0.614640 0.683250 0.500010 -0.631261
O4    O     O_R   0.328400 0.499950 0.653610 -0.636751
O5    O     O_R   0.557730 0.499970 0.653620 -0.630444
O6    O     O_R   0.385360 0.316750 0.499990 -0.616633
O7    O     O_R   0.614690 0.316780 0.500000 -0.624799
O8    O     O_R   0.442270 0.500030 0.346380 -0.614953
O9    O     O_R   0.671600 0.500050 0.346390 -0.563456
O10   O     O_2   0.944101 0.293881 0.139826 -0.642640
Zn1   Zn    Zn3+2 0.346880 0.499980 0.499990 0.920454
Zn2   Zn    Zn3+2 0.653120 0.500020 0.500010 0.953340

loop_
_geom_bond_atom_site_label_1
_geom_bond_atom_site_label_2
_ccdc_geom_bond_type
C22   N1    A    
C2    C4    S    
C3    H1    S    
C26   C37   A    
C6    C7    A    
C3    C9    A    
C27   C36   A    
C25   C27   S    
C2    C28   A    
C9    C10   A    
C4    O5    A    
C18   H20   S    
C13   H16   S    
O7    Zn2   S    
C25   O8    A    
O4    Zn1   S    
O1    Zn1   S    
C29   H9    S    
C34   C35   A    
O8    Zn1   S    
C35   H10   S    
C1    O3    A    
C33   C34   A    
C30   H8    S    
C7    C8    A    
C22   H17   S    
C13   C14   A    
C32   C33   A    
C20   N2    A    
C24   H4    S    
C11   C13   A    
C17   H19   S    
C5    H12   S    
C11   H11   S    
C29   C30   A    
C25   O9    A    
C19   H2    S    
C27   C37   A    
O9    Zn2   S    
C34   H3    S    
C32   C36   A    
C22   C24   A    
C4    O4    A    
C28   C29   A    
O3    Zn2   S    
C7    H15   S    
C17   C18   A    
C23   C35   A    
C24   N2    A    
C5    C6    A    
C6    H14   S    
C14   C16   S    
N1    Zn2   S    
C1    O1    A    
C16   O7    A    
C10   C11   A    
C1    C10   S    
N2    Zn1   S    
C15   C21   A    
O6    Zn1   S    
C31   C37   S    
C31   O10   D    
C20   C21   A    
C26   H5    S    
C18   C19   A    
O5    Zn2   S    
C2    C23   A    
C15   C17   A    
H13   O2    S    
C31   O2    S    
C36   H6    S    
C12   C23   A    
C16   O6    A    
C8    C14   A    
C12   C30   A    
C28   H7    S    
C12   C32   A    
C21   N1    A    
C19   C20   A    
C26   C33   A    
C8    C9    A    
C3    C5    A    
C15   H18   S    
