data_mof_unit_2872.cif
_audit_creation_date              2012-12-10T17:06:05-0500
_audit_creation_method            fapswitch 2.2
_symmetry_space_group_name_H-M    P1
_symmetry_Int_Tables_number       1
_space_group_crystal_system       triclinic
_cell_length_a                    25.792567
_cell_length_b                    25.998711
_cell_length_c                    18.336727
_cell_angle_alpha                 89.914164
_cell_angle_beta                  134.965126
_cell_angle_gamma                 90.211934
_cell_volume                      8699.89224432

loop_
_atom_site_label
_atom_site_type_symbol
_atom_type_description
_atom_site_fract_x
_atom_site_fract_y
_atom_site_fract_z
_atom_type_partial_charge
C1    C     C_R   0.889986 0.749883 0.779640 0.507897
C2    C     C_R   0.442314 0.204786 0.442101 -0.008141
C3    C     C_R   0.200000 0.526604 0.413505 -0.140968
C4    C     C_R   0.864070 0.554709 0.526047 -0.095329
C5    C     C_R   0.871922 0.448513 0.542625 -0.101161
C6    C     C_R   0.364076 0.054709 0.526060 -0.095330
C7    C     C_R   0.371930 0.948513 0.542644 -0.101159
C8    C     C_R   0.923243 0.529164 0.554411 -0.122590
C9    C     C_R   0.927992 0.476318 0.565039 -0.132271
C10   C     C_R   0.423253 0.029164 0.554434 -0.122594
C11   C     C_R   0.428003 0.976319 0.565065 -0.132274
C12   C     C_R   0.811495 0.473459 0.516204 0.028908
C13   C     C_R   0.953316 0.298044 0.461253 -0.012274
C14   C     C_R   0.809096 0.528013 0.511269 0.028646
C15   C     C_R   0.311499 0.973459 0.516212 0.028909
C16   C     C_R   0.309100 0.028014 0.511276 0.028646
C17   C     C_R   0.751044 0.554088 0.489525 0.017092
C18   C     C_R   0.752837 0.446279 0.492763 0.017344
C19   C     C_R   0.251044 0.054088 0.489525 0.017090
C20   C     C_R   0.252838 0.946279 0.492763 0.017343
C21   C     C_R   0.693434 0.526350 0.463551 -0.147188
C22   C     C_R   0.693995 0.473284 0.464207 -0.146948
C23   C     C_R   0.193432 0.026350 0.463543 -0.147190
C24   C     C_R   0.942308 0.704787 0.442091 -0.008138
C25   C     C_R   0.193993 0.973284 0.464199 -0.146950
C26   C     C_R   0.750521 0.890044 0.500463 0.481430
C27   C     C_R   0.750674 0.109944 0.500707 0.484604
C28   C     C_R   0.250521 0.390044 0.500463 0.481431
C29   C     C_R   0.250675 0.609944 0.500708 0.484605
C30   C     C_R   0.889804 0.749892 0.499612 0.525172
C31   C     C_R   0.889542 0.250419 0.499076 0.523644
C32   C     C_R   0.389804 0.249892 0.499612 0.525171
C33   C     C_R   0.389542 0.750419 0.499076 0.523643
C34   C     C_R   0.609992 0.749856 0.499835 0.504558
C35   C     C_R   0.508862 0.798450 0.461596 -0.021668
C36   C     C_R   0.608861 0.248716 0.497538 0.499791
C37   C     C_R   0.109991 0.249857 0.499834 0.504557
C38   C     C_R   0.108861 0.748715 0.497536 0.499788
C39   C     C_R   0.522198 0.845729 0.435829 0.041400
C40   C     C_R   0.498024 0.159478 0.391404 0.024422
C41   C     C_R   0.022187 0.345728 0.435809 0.041392
C42   C     C_R   0.998016 0.659479 0.391389 0.024409
C43   C     C_R   0.498012 0.891598 0.443964 0.048499
C44   C     C_R   0.451977 0.116753 0.361805 0.054830
C45   C     C_R   0.997991 0.391598 0.443928 0.048501
C46   C     C_R   0.497543 0.203066 0.441138 -0.026361
C47   C     C_R   0.951951 0.616760 0.361760 0.054832
C48   C     C_R   0.438154 0.890294 0.430737 -0.131329
C49   C     C_R   0.397825 0.120574 0.360070 -0.126988
C50   C     C_R   0.938135 0.390291 0.430704 -0.131331
C51   C     C_R   0.897799 0.620584 0.360025 -0.126983
C52   C     C_3   0.528558 0.705085 0.883934 -0.262942
C53   C     C_3   0.565004 0.742851 0.867280 -0.414749
C54   C     C_3   0.530851 0.292709 0.884774 -0.261956
C55   C     C_3   0.565849 0.253908 0.867637 -0.413239
C56   C     C_3   0.028560 0.205088 0.883935 -0.262941
C57   C     C_R   0.008856 0.298450 0.461586 -0.021669
C58   C     C_3   0.065006 0.242855 0.867282 -0.414748
C59   C     C_3   0.030846 0.792718 0.884774 -0.261960
C60   C     C_3   0.065846 0.753921 0.867634 -0.413244
C61   C     C_3   0.552227 0.848939 0.387879 -0.253691
C62   C     C_3   0.503872 0.880746 0.288358 -0.452875
C63   C     C_3   0.544976 0.159440 0.368355 -0.262827
C64   C     C_3   0.522837 0.125218 0.281960 -0.444661
C65   C     C_3   0.052225 0.348937 0.387871 -0.253692
C66   C     C_3   0.003876 0.380742 0.288348 -0.452869
C67   C     C_3   0.044986 0.659435 0.368372 -0.262834
C68   C     C_R   0.997538 0.703066 0.441130 -0.026362
C69   C     C_3   0.022878 0.625204 0.282007 -0.444669
C70   C     C_3   0.642074 0.702383 0.112968 -0.272332
C71   C     C_3   0.638062 0.646570 0.135036 -0.428580
C72   C     C_3   0.645015 0.294437 0.114233 -0.273035
C73   C     C_3   0.644663 0.350545 0.138518 -0.429789
C74   C     C_3   0.142075 0.202385 0.112969 -0.272332
C75   C     C_3   0.138064 0.146571 0.135035 -0.428581
C76   C     C_3   0.145012 0.794443 0.114234 -0.273037
C77   C     C_3   0.144660 0.850549 0.138526 -0.429789
C78   C     C_R   0.549732 0.752404 0.491024 0.010963
C79   C     C_R   0.548747 0.245489 0.489382 0.012579
C80   C     C_R   0.049731 0.252405 0.491023 0.010963
C81   C     C_R   0.889853 0.250349 0.779747 0.509653
C82   C     C_R   0.048747 0.745487 0.489381 0.012580
C83   C     C_R   0.535524 0.707548 0.517409 0.013357
C84   C     C_R   0.544149 0.287186 0.533316 0.017523
C85   C     C_R   0.035527 0.207551 0.517416 0.013359
C86   C     C_R   0.044153 0.787181 0.533322 0.017526
C87   C     C_R   0.482363 0.707744 0.518563 0.001750
C88   C     C_R   0.491588 0.287553 0.535342 -0.002120
C89   C     C_R   0.982367 0.207746 0.518571 0.001749
C90   C     C_R   0.991592 0.787549 0.535349 -0.002122
C91   C     C_R   0.442053 0.752552 0.491947 0.012021
C92   C     C_R   0.389987 0.249883 0.779640 0.507896
C93   C     C_R   0.441773 0.246850 0.491593 0.016768
C94   C     C_R   0.942053 0.252552 0.491947 0.012024
C95   C     C_R   0.941773 0.746849 0.491593 0.016770
C96   C     C_R   0.464095 0.783496 0.107381 -0.127081
C97   C     C_R   0.460925 0.222173 0.105520 -0.130028
C98   C     C_R   0.964092 0.283491 0.107380 -0.127084
C99   C     C_R   0.960934 0.722154 0.105525 -0.130017
C100  C     C_R   0.395514 0.802921 0.055899 -0.132491
C101  C     C_R   0.391651 0.203862 0.053877 -0.134533
C102  C     C_R   0.895511 0.302915 0.055898 -0.132492
C103  C     C_R   0.389853 0.750349 0.779747 0.509654
C104  C     C_R   0.891663 0.703839 0.053883 -0.134531
C105  C     C_R   0.344838 0.811893 0.950787 0.049085
C106  C     C_R   0.341375 0.193642 0.949197 0.048687
C107  C     C_R   0.844835 0.311888 0.950786 0.049085
C108  C     C_R   0.841384 0.693625 0.949201 0.048686
C109  C     C_R   0.609887 0.749752 0.219841 0.488628
C110  C     C_R   0.609801 0.250149 0.219888 0.486059
C111  C     C_R   0.109886 0.249752 0.219841 0.488627
C112  C     C_R   0.109802 0.750149 0.219889 0.486058
C113  C     C_R   0.361352 0.799257 0.894540 0.046468
C114  C     C_R   0.411344 0.843616 0.429881 0.010507
C115  C     C_R   0.359041 0.204082 0.893577 0.048218
C116  C     C_R   0.861350 0.299253 0.894539 0.046470
C117  C     C_R   0.859045 0.704073 0.893577 0.048214
C118  C     C_R   0.428897 0.773442 0.944718 -0.010622
C119  C     C_R   0.427742 0.228576 0.944115 -0.009213
C120  C     C_R   0.928897 0.273440 0.944717 -0.010621
C121  C     C_R   0.927744 0.728571 0.944116 -0.009215
C122  C     C_R   0.482230 0.768643 0.053526 -0.008696
C123  C     C_R   0.480822 0.234010 0.052732 -0.009763
C124  C     C_R   0.982229 0.268641 0.053526 -0.008696
C125  C     C_R   0.389285 0.164405 0.392868 0.000231
C126  C     C_R   0.980826 0.734002 0.052734 -0.009759
C127  C     C_R   0.552754 0.749371 0.106963 0.036117
C128  C     C_R   0.552741 0.250924 0.106912 0.035511
C129  C     C_R   0.052754 0.249371 0.106963 0.036117
C130  C     C_R   0.052742 0.750923 0.106912 0.035515
C131  C     C_R   0.569078 0.729351 0.053390 0.008110
C132  C     C_R   0.570377 0.269286 0.053899 0.010236
C133  C     C_R   0.069079 0.229353 0.053391 0.008111
C134  C     C_R   0.070375 0.769290 0.053899 0.010234
C135  C     C_R   0.514416 0.729836 0.944448 0.004651
C136  C     C_R   0.911332 0.343613 0.429862 0.010502
C137  C     C_R   0.515654 0.269002 0.944837 0.004239
C138  C     C_R   0.014416 0.229837 0.944448 0.004650
C139  C     C_R   0.015651 0.769006 0.944837 0.004239
C140  C     C_R   0.445344 0.752193 0.891440 0.028462
C141  C     C_R   0.445450 0.248100 0.891334 0.028279
C142  C     C_R   0.945344 0.252192 0.891440 0.028462
C143  C     C_R   0.945450 0.748100 0.891334 0.028281
C144  C     C_R   0.871214 0.946385 0.688800 -0.106114
C145  C     C_R   0.871366 0.053744 0.689157 -0.106903
C146  C     C_R   0.371212 0.446384 0.688801 -0.106114
C147  C     C_R   0.889273 0.664410 0.392847 0.000226
C148  C     C_R   0.371365 0.553744 0.689159 -0.106904
C149  C     C_R   0.928682 0.973182 0.778800 0.045799
C150  C     C_R   0.928786 0.026955 0.778945 0.045449
C151  C     C_R   0.428679 0.473182 0.778803 0.045799
C152  C     C_R   0.428783 0.526955 0.778948 0.045449
C153  C     C_R   0.812313 0.027312 0.597459 0.009339
C154  C     C_R   0.812264 0.972762 0.597293 0.009922
C155  C     C_R   0.312313 0.527312 0.597460 0.009339
C156  C     C_R   0.312264 0.472762 0.597294 0.009922
C157  C     C_R   0.750185 0.609988 0.496809 0.504769
C158  C     C_R   0.453321 0.798045 0.461262 -0.012276
C159  C     C_R   0.750729 0.390134 0.497511 0.507297
C160  C     C_R   0.250185 0.109988 0.496808 0.504770
C161  C     C_R   0.250729 0.890134 0.497511 0.507298
C162  C     C_R   0.754615 0.946107 0.504552 0.038149
C163  C     C_R   0.754689 0.053868 0.504815 0.038530
C164  C     C_R   0.254616 0.446107 0.504552 0.038148
C165  C     C_R   0.254689 0.553868 0.504816 0.038528
C166  C     C_R   0.699918 0.973237 0.413390 -0.140390
C167  C     C_R   0.699998 0.026604 0.413505 -0.140962
C168  C     C_R   0.199920 0.473237 0.413389 -0.140392
Cl1   Cl    Cl    0.588130 0.650997 0.556282 -0.043266
Cl2   Cl    Cl    0.296367 0.179927 0.765617 -0.037634
Cl3   Cl    Cl    0.798889 0.322279 0.766026 -0.035598
Cl4   Cl    Cl    0.796367 0.679926 0.765612 -0.037633
Cl5   Cl    Cl    0.000789 0.938227 0.889976 -0.107024
Cl6   Cl    Cl    0.001205 0.061858 0.890237 -0.110105
Cl7   Cl    Cl    0.500785 0.438227 0.889979 -0.107019
Cl8   Cl    Cl    0.501201 0.561858 0.890241 -0.110106
Cl9   Cl    Cl    0.540527 0.951099 0.468432 -0.092858
Cl10  Cl    Cl    0.457739 0.055542 0.327076 -0.107544
Cl11  Cl    Cl    0.040491 0.451103 0.468373 -0.092869
Cl12  Cl    Cl    0.606506 0.339697 0.589734 -0.041325
Cl13  Cl    Cl    0.957687 0.555551 0.326995 -0.107547
Cl14  Cl    Cl    0.322545 0.845456 0.379574 -0.106497
Cl15  Cl    Cl    0.307465 0.164760 0.362816 -0.108391
Cl16  Cl    Cl    0.822536 0.345450 0.379562 -0.106498
Cl17  Cl    Cl    0.807459 0.664764 0.362812 -0.108388
Cl18  Cl    Cl    0.469319 0.651738 0.559709 -0.056286
Cl19  Cl    Cl    0.489688 0.339306 0.596611 -0.067343
Cl20  Cl    Cl    0.969328 0.151741 0.559726 -0.056291
Cl21  Cl    Cl    0.989698 0.839299 0.596629 -0.067349
Cl22  Cl    Cl    0.088138 0.151001 0.556297 -0.043264
Cl23  Cl    Cl    0.106513 0.839691 0.589748 -0.041322
Cl24  Cl    Cl    0.260755 0.840133 0.891954 -0.081683
Cl25  Cl    Cl    0.256208 0.166875 0.890031 -0.084155
Cl26  Cl    Cl    0.760750 0.340126 0.891953 -0.081684
Cl27  Cl    Cl    0.756220 0.666853 0.890036 -0.084151
Cl28  Cl    Cl    0.298891 0.822282 0.766026 -0.035596
H1    H     H_    0.656142 0.952914 0.342071 0.123939
H2    H     H_    0.649045 0.453181 0.445834 0.150931
H3    H     H_    0.148452 0.045884 0.445506 0.150514
H4    H     H_    0.149041 0.953181 0.445820 0.150933
H5    H     H_    0.862451 0.595373 0.514656 0.158190
H6    H     H_    0.877999 0.407618 0.545718 0.167199
H7    H     H_    0.362456 0.095373 0.514667 0.158192
H8    H     H_    0.378008 0.907619 0.545738 0.167203
H9    H     H_    0.965239 0.550496 0.567197 0.131749
H10   H     H_    0.974462 0.456535 0.587843 0.128716
H11   H     H_    0.465251 0.050496 0.567226 0.131748
H12   H     H_    0.656352 0.046817 0.342216 0.121452
H13   H     H_    0.474476 0.956536 0.587878 0.128714
H14   H     H_    0.910560 0.425758 0.416878 0.125700
H15   H     H_    0.860053 0.588699 0.330160 0.124304
H16   H     H_    0.410585 0.925762 0.416919 0.125698
H17   H     H_    0.360088 0.088685 0.330220 0.124303
H18   H     H_    0.502124 0.779621 0.189942 0.132135
H19   H     H_    0.498080 0.227646 0.187343 0.137522
H20   H     H_    0.002121 0.279615 0.189941 0.132140
H21   H     H_    0.998092 0.727623 0.187350 0.137507
H22   H     H_    0.382352 0.812401 0.098712 0.118834
H23   H     H_    0.156145 0.452914 0.342070 0.123941
H24   H     H_    0.377808 0.196073 0.096512 0.123760
H25   H     H_    0.882348 0.312393 0.098711 0.118835
H26   H     H_    0.877823 0.696042 0.096520 0.123763
H27   H     H_    0.528616 0.776012 0.820063 0.192509
H28   H     H_    0.576368 0.723125 0.826123 0.147444
H29   H     H_    0.617433 0.757687 0.941755 0.147961
H30   H     H_    0.562346 0.669954 0.922517 0.150205
H31   H     H_    0.477410 0.690377 0.807770 0.141727
H32   H     H_    0.617502 0.238368 0.941837 0.146913
H33   H     H_    0.528088 0.221263 0.819561 0.193779
H34   H     H_    0.156356 0.546817 0.342214 0.121453
H35   H     H_    0.578286 0.273002 0.827190 0.148853
H36   H     H_    0.480295 0.307848 0.808781 0.142307
H37   H     H_    0.565994 0.327419 0.923934 0.149044
H38   H     H_    0.028617 0.276016 0.820064 0.192509
H39   H     H_    0.076372 0.223130 0.826126 0.147445
H40   H     H_    0.117433 0.257692 0.941757 0.147961
H41   H     H_    0.062349 0.169957 0.922517 0.150204
H42   H     H_    0.977413 0.190380 0.807770 0.141727
H43   H     H_    0.117499 0.738381 0.941832 0.146914
H44   H     H_    0.028086 0.721275 0.819555 0.193780
H45   H     H_    0.874283 0.904857 0.691183 0.132949
H46   H     H_    0.078282 0.773019 0.827187 0.148855
H47   H     H_    0.980288 0.807857 0.808782 0.142306
H48   H     H_    0.065987 0.827429 0.923936 0.149049
H49   H     H_    0.445177 0.871036 0.238247 0.157949
H50   H     H_    0.511861 0.922565 0.304328 0.170258
H51   H     H_    0.518923 0.872560 0.245831 0.132548
H52   H     H_    0.608275 0.865527 0.444281 0.181765
H53   H     H_    0.553470 0.810843 0.362910 0.137505
H54   H     H_    0.545301 0.085894 0.310644 0.162265
H55   H     H_    0.462491 0.124456 0.214619 0.168602
H56   H     H_    0.874524 0.095291 0.691809 0.131767
H57   H     H_    0.547900 0.140417 0.255957 0.130995
H58   H     H_    0.541663 0.198314 0.341153 0.139155
H59   H     H_    0.602279 0.149799 0.439458 0.185083
H60   H     H_    0.945179 0.371038 0.238235 0.157955
H61   H     H_    0.011872 0.422562 0.304315 0.170253
H62   H     H_    0.018928 0.372549 0.245824 0.132546
H63   H     H_    0.108273 0.365525 0.444278 0.181764
H64   H     H_    0.053470 0.310841 0.362906 0.137506
H65   H     H_    0.045334 0.585879 0.310706 0.162274
H66   H     H_    0.962536 0.624446 0.214638 0.168602
H67   H     H_    0.374282 0.404857 0.691184 0.132951
H68   H     H_    0.047970 0.640395 0.256042 0.130993
H69   H     H_    0.041676 0.698306 0.341163 0.139151
H70   H     H_    0.102285 0.649798 0.439490 0.185104
H71   H     H_    0.638123 0.644896 0.195596 0.173255
H72   H     H_    0.587515 0.627666 0.064582 0.169019
H73   H     H_    0.685827 0.624799 0.161595 0.145852
H74   H     H_    0.658939 0.703208 0.071840 0.143655
H75   H     H_    0.687655 0.722552 0.186086 0.173972
H76   H     H_    0.596222 0.370896 0.068247 0.167640
H77   H     H_    0.643430 0.352875 0.197728 0.172813
H78   H     H_    0.374522 0.595291 0.691812 0.131768
H79   H     H_    0.694633 0.370398 0.168003 0.148185
H80   H     H_    0.689811 0.273736 0.186882 0.174416
H81   H     H_    0.661468 0.292722 0.072636 0.142655
H82   H     H_    0.138124 0.144896 0.195594 0.173254
H83   H     H_    0.087518 0.127668 0.064580 0.169018
H84   H     H_    0.185829 0.124801 0.161594 0.145856
H85   H     H_    0.158941 0.203211 0.071841 0.143654
H86   H     H_    0.187657 0.222554 0.186088 0.173973
H87   H     H_    0.096220 0.870902 0.068257 0.167640
H88   H     H_    0.143426 0.852876 0.197735 0.172815
H89   H     H_    0.648456 0.545884 0.445519 0.150512
H90   H     H_    0.194630 0.870403 0.168014 0.148184
H91   H     H_    0.189809 0.773741 0.186880 0.174411
H92   H     H_    0.161464 0.792731 0.072635 0.142655
O1    O     O_3   0.750020 0.750020 0.500000 -0.442376
O2    O     O_R   0.750010 0.134170 0.560720 -0.556424
O3    O     O_R   0.250010 0.365830 0.560720 -0.558360
O4    O     O_R   0.250010 0.634170 0.560720 -0.556427
O5    O     O_R   0.896180 0.719660 0.731600 -0.545152
O6    O     O_R   0.896180 0.280340 0.731600 -0.545511
O7    O     O_R   0.396180 0.219660 0.731600 -0.545154
O8    O     O_R   0.396180 0.780340 0.731600 -0.545511
O9    O     O_R   0.664580 0.780370 0.268400 -0.544053
O10   O     O_R   0.664580 0.219630 0.268400 -0.546021
O11   O     O_R   0.164580 0.280370 0.268400 -0.544054
O12   O     O_3   0.750020 0.249980 0.500000 -0.441401
O13   O     O_R   0.164580 0.719630 0.268400 -0.546023
O14   O     O_R   0.835450 0.780390 0.731600 -0.532860
O15   O     O_R   0.835450 0.219610 0.731600 -0.532586
O16   O     O_R   0.335450 0.280390 0.731600 -0.532859
O17   O     O_R   0.335450 0.719610 0.731600 -0.532586
O18   O     O_R   0.603870 0.719650 0.268400 -0.550728
O19   O     O_R   0.603870 0.280350 0.268400 -0.553068
O20   O     O_R   0.103870 0.219650 0.268400 -0.550730
O21   O     O_R   0.103870 0.780350 0.268400 -0.553063
O22   O     O_R   0.810750 0.634210 0.560720 -0.546171
O23   O     O_3   0.250020 0.250020 0.500000 -0.442375
O24   O     O_R   0.810750 0.365790 0.560720 -0.551808
O25   O     O_R   0.310750 0.134210 0.560720 -0.546172
O26   O     O_R   0.310750 0.865790 0.560720 -0.551810
O27   O     O_R   0.750010 0.865820 0.439280 -0.534065
O28   O     O_R   0.750010 0.134180 0.439280 -0.533928
O29   O     O_R   0.250010 0.365820 0.439280 -0.534065
O30   O     O_R   0.250010 0.634180 0.439280 -0.533929
O31   O     O_R   0.896180 0.719650 0.560720 -0.547799
O32   O     O_R   0.896180 0.280350 0.560720 -0.547623
O33   O     O_R   0.396180 0.219650 0.560720 -0.547799
O34   O     O_3   0.250020 0.749980 0.500000 -0.441400
O35   O     O_R   0.396180 0.780350 0.560720 -0.547623
O36   O     O_R   0.664570 0.780390 0.560720 -0.537192
O37   O     O_R   0.664570 0.219610 0.560720 -0.541352
O38   O     O_R   0.164570 0.280390 0.560720 -0.537192
O39   O     O_R   0.164570 0.719610 0.560720 -0.541362
O40   O     O_R   0.835460 0.780370 0.439280 -0.527564
O41   O     O_R   0.835460 0.219630 0.439280 -0.528596
O42   O     O_R   0.335460 0.280370 0.439280 -0.527565
O43   O     O_R   0.335460 0.719630 0.439280 -0.528595
O44   O     O_R   0.603860 0.719660 0.439280 -0.540854
O45   O     O_R   0.689310 0.634210 0.439280 -0.537833
O46   O     O_R   0.603860 0.280340 0.439280 -0.540843
O47   O     O_R   0.103860 0.219660 0.439280 -0.540855
O48   O     O_R   0.103860 0.780340 0.439280 -0.540835
O49   O     O_R   0.689310 0.365790 0.439280 -0.535148
O50   O     O_R   0.189310 0.134210 0.439280 -0.537833
O51   O     O_R   0.189310 0.865790 0.439280 -0.535149
O52   O     O_R   0.750010 0.865830 0.560720 -0.558360
Zn1   Zn    Zn3+2 0.663270 0.706640 0.413250 0.934130
Zn2   Zn    Zn3+2 0.750020 0.206610 0.413240 0.933450
Zn3   Zn    Zn3+2 0.250020 0.293390 0.413240 0.935852
Zn4   Zn    Zn3+2 0.250020 0.706610 0.413240 0.933448
Zn5   Zn    Zn3+2 0.750010 0.793400 0.586760 0.933343
Zn6   Zn    Zn3+2 0.750010 0.206600 0.586760 0.933397
Zn7   Zn    Zn3+2 0.250010 0.293400 0.586760 0.933344
Zn8   Zn    Zn3+2 0.250010 0.706600 0.586760 0.933391
Zn9   Zn    Zn3+2 0.663270 0.293360 0.413250 0.932747
Zn10  Zn    Zn3+2 0.163270 0.206640 0.413250 0.934129
Zn11  Zn    Zn3+2 0.163270 0.793360 0.413250 0.932751
Zn12  Zn    Zn3+2 0.836780 0.706640 0.586750 0.932711
Zn13  Zn    Zn3+2 0.836780 0.293360 0.586750 0.931676
Zn14  Zn    Zn3+2 0.336780 0.206640 0.586750 0.932708
Zn15  Zn    Zn3+2 0.336780 0.793360 0.586750 0.931675
Zn16  Zn    Zn3+2 0.750020 0.793390 0.413240 0.935853

loop_
_geom_bond_atom_site_label_1
_geom_bond_atom_site_label_2
_ccdc_geom_bond_type
C87   C91   A    
C145  H56   S    
C159  O49   A    
C66   H61   S    
O8    Zn15  S    
C103  O8    A    
C40   C46   A    
C110  O19   A    
C56   H42   S    
C46   C79   A    
C67   H69   S    
C70   H74   S    
C49   H17   S    
C96   H18   S    
C54   H36   S    
C89   C94   A    
C84   Cl12  S    
C18   C159  S    
O18   Zn1   S    
C53   H29   S    
C109  C127  S    
C48   H16   S    
C103  O17   A    
C30   O40   A    
C76   H91   S    
C60   H44   S    
C106  Cl25  S    
O22   Zn12  S    
O35   Zn15  S    
O4    Zn8   S    
C7    C15   A    
C59   C60   S    
C21   C22   A    
C92   O16   A    
C130  C134  A    
O6    Zn13  S    
C118  C140  A    
C3    H34   S    
C22   H2    S    
C72   C132  S    
C87   Cl18  S    
C15   C20   A    
C39   C61   S    
C164  C168  A    
O13   Zn4   S    
C5    C12   A    
C58   H39   S    
C86   C90   A    
C62   H49   S    
C69   H65   S    
C132  C137  A    
C98   C102  A    
C36   C79   S    
C17   C21   A    
C116  Cl3   S    
O34   Zn15  S    
C19   C23   A    
O49   Zn9   S    
C52   H31   S    
C71   H73   S    
O51   Zn11  S    
C7    H8    S    
O36   Zn5   S    
C146  H67   S    
C108  Cl27  S    
C160  O25   A    
C64   H54   S    
C119  C141  A    
C89   Cl20  S    
C148  H78   S    
C48   C114  A    
O40   Zn16  S    
O26   Zn15  S    
C84   C88   A    
C72   C73   S    
C41   C65   S    
C119  C123  A    
C53   H27   S    
C106  C115  A    
C35   C78   A    
C13   C94   A    
C6    H7    S    
C37   O38   A    
C161  O51   A    
C117  Cl4   S    
C4    H5    S    
C45   C50   A    
C155  C165  A    
C83   Cl1   S    
C77   H88   S    
C4    C14   A    
C8    H9    S    
C127  C131  A    
O41   Zn2   S    
C166  H1    S    
C6    C16   A    
C63   H58   S    
C75   H83   S    
C155  C156  A    
C41   C45   A    
C30   O31   A    
C110  C128  S    
C71   H72   S    
O50   Zn10  S    
C47   Cl13  S    
C98   C124  A    
C92   O7    A    
C153  C163  A    
C19   C160  S    
C105  C113  A    
C65   H63   S    
C79   C84   A    
C13   C57   A    
O46   Zn9   S    
C110  O10   A    
C157  O45   A    
C36   O37   A    
C33   O35   A    
C118  C122  A    
C122  C127  A    
C91   C158  A    
O12   Zn9   S    
C27   C163  S    
C38   O39   A    
C139  C143  A    
C74   H85   S    
O16   Zn7   S    
O20   Zn10  S    
C148  C155  A    
C17   C157  S    
C145  C150  A    
C32   C93   S    
C100  H22   S    
C27   O2    A    
C36   O46   A    
C144  C154  A    
C14   C17   A    
C115  Cl2   S    
O12   Zn2   S    
C31   O32   A    
C104  H26   S    
C99   C126  A    
C37   C80   S    
C157  O22   A    
C44   Cl10  S    
C134  C139  A    
O7    Zn14  S    
O30   Zn4   S    
O31   Zn12  S    
C116  C120  A    
O5    Zn12  S    
C71   H71   S    
C59   H48   S    
C81   O6    A    
O2    Zn6   S    
C5    C9    A    
C159  O24   A    
O12   Zn13  S    
O9    Zn16  S    
C102  C107  A    
C92   C141  S    
C37   O47   A    
C29   O4    A    
C161  O26   A    
C52   H30   S    
O32   Zn13  S    
C66   H60   S    
C115  C119  A    
C42   C67   S    
C113  Cl28  S    
C1    O14   A    
C31   O41   A    
O52   Zn5   S    
O37   Zn6   S    
O12   Zn6   S    
C52   C53   S    
C3    C165  A    
C64   H57   S    
C101  C106  A    
C54   C55   S    
C81   C142  S    
C18   C22   A    
C108  C117  A    
C154  C162  A    
C148  C152  A    
C109  O9    A    
C66   H62   S    
C24   C147  A    
C90   C95   A    
C31   C94   S    
C26   O27   A    
C60   H46   S    
C1    O5    A    
C75   H84   S    
O1    Zn16  S    
O11   Zn3   S    
C28   O29   A    
C97   C123  A    
C103  C140  S    
C70   H75   S    
C96   C100  A    
O23   Zn14  S    
C56   C58   S    
C61   C62   S    
C107  C116  A    
C10   C11   A    
C146  C151  A    
C2    C125  A    
O43   Zn4   S    
C40   C44   A    
C50   H14   S    
C61   H53   S    
C34   O36   A    
C76   H92   S    
C112  C130  S    
C107  Cl26  S    
O34   Zn11  S    
O3    Zn7   S    
C83   C87   A    
O21   Zn11  S    
C160  O50   A    
O14   Zn5   S    
C61   H52   S    
C112  O21   A    
C40   C63   S    
C58   H40   S    
C9    H10   S    
C33   C91   S    
O34   Zn4   S    
C62   H50   S    
C54   C137  S    
C20   C25   A    
C126  C130  A    
C29   C165  S    
C55   H33   S    
C29   O30   A    
C114  C158  A    
C162  C166  A    
C78   C83   A    
C111  C129  S    
C88   Cl19  S    
O39   Zn8   S    
C151  C152  A    
C70   C71   S    
O10   Zn2   S    
O42   Zn3   S    
C99   C104  A    
C133  C138  A    
C38   C82   S    
C38   O48   A    
O24   Zn13  S    
C135  C140  A    
C151  Cl7   S    
C75   H82   S    
C55   H35   S    
C56   H41   S    
O47   Zn10  S    
C138  C142  A    
C24   C95   A    
C67   H70   S    
C85   C89   A    
C47   C51   A    
C85   Cl22  S    
C114  Cl14  S    
C26   C162  S    
C2    C46   A    
C35   C39   A    
C30   C95   S    
O1    Zn1   S    
C68   C82   A    
C59   C139  S    
C144  H45   S    
C136  Cl16  S    
C112  O13   A    
C100  C105  A    
C60   H43   S    
C77   H87   S    
O48   Zn11  S    
C57   C80   A    
C111  O11   A    
O15   Zn6   S    
C104  C108  A    
C137  C141  A    
C43   Cl9   S    
O28   Zn2   S    
C72   H80   S    
C33   O43   A    
C28   O3    A    
C58   H38   S    
C73   H76   S    
C6    C10   A    
O34   Zn8   S    
C69   H66   S    
C49   C125  A    
C96   C122  A    
C35   C158  A    
C41   C57   A    
C25   H4    S    
C82   C86   A    
C149  C150  A    
C167  H12   S    
C101  H24   S    
C16   C19   A    
C124  C129  A    
C168  H23   S    
O23   Zn3   S    
C24   C68   A    
C74   H86   S    
C97   H19   S    
C21   H89   S    
O44   Zn1   S    
C11   H13   S    
C102  H25   S    
C44   C49   A    
C125  Cl15  S    
C121  C143  A    
O38   Zn7   S    
C77   H90   S    
C4    C8    A    
C62   H51   S    
C147  Cl17  S    
C53   H28   S    
C7    C11   A    
C86   Cl23  S    
C80   C85   A    
O33   Zn14  S    
C131  C135  A    
C81   O15   A    
O25   Zn14  S    
C15   C16   A    
C74   C133  S    
C23   H3    S    
C59   H47   S    
C72   H81   S    
C117  C121  A    
O23   Zn7   S    
O29   Zn3   S    
C63   H59   S    
C99   H21   S    
C73   H77   S    
C8    C9    A    
C26   O52   A    
C43   C48   A    
C145  C153  A    
O45   Zn1   S    
C42   C68   A    
O27   Zn16  S    
C105  Cl24  S    
O23   Zn10  S    
C128  C132  A    
C76   C134  S    
C3    C168  A    
C69   H68   S    
C111  O20   A    
C74   C75   S    
C65   H64   S    
C120  C142  A    
C76   C77   S    
C5    H6    S    
C39   C43   A    
C109  O18   A    
C63   C64   S    
C34   O44   A    
C32   O33   A    
C67   C69   S    
C55   H32   S    
C163  C167  A    
C10   H11   S    
C144  C149  A    
C1    C143  S    
O1    Zn5   S    
C64   H55   S    
C56   C138  S    
C51   C147  A    
O19   Zn9   S    
C150  Cl6   S    
C12   C14   A    
C27   O28   A    
C32   O42   A    
C166  C167  A    
C13   C136  A    
C129  C133  A    
O17   Zn8   S    
O1    Zn12  S    
C28   C164  S    
C98   H20   S    
C88   C93   A    
C2    C93   A    
C121  C126  A    
C50   C136  A    
C34   C78   S    
C123  C128  A    
C73   H79   S    
C20   C161  S    
C70   C131  S    
C149  Cl5   S    
C42   C47   A    
C23   C25   A    
C45   Cl11  S    
C113  C118  A    
C152  Cl8   S    
C51   H15   S    
C146  C156  A    
C156  C164  A    
C65   C66   S    
C12   C18   A    
C52   C135  S    
C54   H37   S    
C153  C154  A    
C97   C101  A    
C120  C124  A    
C90   Cl21  S    
