data_mof_unit_3392.cif
_audit_creation_date              2012-10-26T19:54:51-0400
_audit_creation_method            fapswitch 2.2
_symmetry_space_group_name_H-M    P1
_symmetry_Int_Tables_number       1
_space_group_crystal_system       triclinic
_cell_length_a                    17.758524
_cell_length_b                    16.401414
_cell_length_c                    10.624335
_cell_angle_alpha                 89.999975
_cell_angle_beta                  88.836927
_cell_angle_gamma                 89.999936
_cell_volume                      3093.85836629

loop_
_atom_site_label
_atom_site_type_symbol
_atom_type_description
_atom_site_fract_x
_atom_site_fract_y
_atom_site_fract_z
_atom_type_partial_charge
C1    C     C_R   0.355391 0.500015 0.498253 0.595851
C2    C     C_R   0.542844 0.171041 0.586289 -0.108467
C3    C     C_R   0.545245 0.743004 0.580111 0.117929
C4    C     C_R   0.457801 0.256965 0.415385 0.105811
C5    C     C_R   0.454755 0.743004 0.419889 0.117930
C6    C     C_R   0.542199 0.256965 0.584615 0.105815
C7    C     C_R   0.500000 0.873036 0.500000 0.033991
C8    C     C_R   0.500000 0.126927 0.500000 0.032240
C9    C     C_1   0.500000 0.962658 0.500000 0.007669
C10   C     C_1   0.500000 0.037302 0.500000 0.009548
C11   C     C_R   0.512677 0.499966 0.261236 0.605638
C12   C     C_R   0.644609 0.500014 0.501747 0.595854
C13   C     C_R   0.487323 0.499966 0.738763 0.605634
C14   C     C_R   0.551692 0.650496 0.098509 0.273866
C15   C     C_R   0.446272 0.350508 0.905103 0.264926
C16   C     C_R   0.448304 0.650495 0.901491 0.273867
C17   C     C_R   0.553728 0.350509 0.094897 0.264927
C18   C     C_R   0.526764 0.723461 0.046351 -0.140523
C19   C     C_R   0.472351 0.277331 0.955137 -0.151295
C20   C     C_R   0.473231 0.723460 0.953650 -0.140521
C21   C     C_R   0.527650 0.277331 0.044863 -0.151293
C22   C     C_R   0.479091 0.574953 0.943726 -0.049894
C23   C     C_R   0.885182 0.501795 0.500644 0.002629
C24   C     C_R   0.521448 0.425754 0.055385 -0.044887
C25   C     C_R   0.520907 0.574953 0.056274 -0.049896
C26   C     C_R   0.478552 0.425754 0.944614 -0.044885
C27   C     C_R   0.471583 0.500195 0.877643 0.054838
C28   C     C_R   0.528417 0.500196 0.122357 0.054839
C29   C     C_R   0.844446 0.571230 0.541932 0.222341
C30   C     C_R   0.153872 0.431632 0.539508 0.207158
C31   C     C_R   0.155552 0.571234 0.458092 0.222340
C32   C     C_R   0.846128 0.431635 0.460485 0.207155
C33   C     C_R   0.765848 0.570265 0.539912 -0.084061
C34   C     C_R   0.114818 0.501795 0.499366 0.002631
C35   C     C_R   0.232438 0.431017 0.534715 -0.102938
C36   C     C_R   0.234151 0.570268 0.460108 -0.084054
C37   C     C_R   0.767562 0.431020 0.465275 -0.102923
C38   C     C_R   0.727166 0.500318 0.502660 -0.053685
C39   C     C_R   0.272834 0.500318 0.497343 -0.053686
C40   C     C_1   0.966153 0.502311 0.500159 0.188121
C41   C     C_1   0.033847 0.502312 0.499852 0.188122
C42   C     C_R   0.545968 0.828927 0.581677 -0.098155
C43   C     C_R   0.457156 0.171041 0.413711 -0.108470
C44   C     C_R   0.454032 0.828927 0.418324 -0.098154
Cu1   Cu    Cu3+1 0.500000 0.580420 0.500000 1.094693
Cu2   Cu    Cu3+1 0.500000 0.419580 0.500000 1.085136
H1    H     H_    0.550348 0.219542 0.075673 0.168792
H2    H     H_    0.423350 0.139365 0.345513 0.118027
H3    H     H_    0.417777 0.860606 0.353760 0.118189
H4    H     H_    0.576650 0.139364 0.654487 0.118029
H5    H     H_    0.580942 0.709747 0.643489 0.124378
H6    H     H_    0.424406 0.290180 0.348542 0.126879
H7    H     H_    0.419058 0.709748 0.356511 0.124378
H8    H     H_    0.575593 0.290179 0.651458 0.126879
H9    H     H_    0.745049 0.707075 0.157899 0.390324
H10   H     H_    0.261198 0.417347 0.806486 0.392207
H11   H     H_    0.254948 0.707073 0.842095 0.390325
H12   H     H_    0.451149 0.781277 0.921669 0.169441
H13   H     H_    0.738803 0.417347 0.193493 0.392205
H14   H     H_    0.856296 0.769636 0.696682 0.390618
H15   H     H_    0.137009 0.236571 0.703465 0.395643
H16   H     H_    0.143696 0.769650 0.303370 0.390620
H17   H     H_    0.863021 0.236631 0.296368 0.395657
H18   H     H_    0.449653 0.219542 0.924327 0.168790
H19   H     H_    0.548845 0.781278 0.078331 0.169440
H20   H     H_    0.734538 0.623913 0.569114 0.191599
H21   H     H_    0.262260 0.376661 0.562528 0.224330
H22   H     H_    0.265460 0.623920 0.430918 0.191607
H23   H     H_    0.737741 0.376667 0.437449 0.224346
H24   H     H_    0.582223 0.860606 0.646241 0.118189
N1    N     N_R   0.500000 0.701220 0.500000 -0.187550
N2    N     N_R   0.500000 0.298780 0.500000 -0.185769
O1    O     O_R   0.391260 0.567930 0.500000 -0.476291
O2    O     O_2   0.659079 0.579746 0.242874 -0.241461
O3    O     O_3   0.702247 0.699347 0.100733 -0.483475
O4    O     O_2   0.378015 0.319948 0.687836 -0.273398
O5    O     O_2   0.313010 0.278315 0.881188 -0.249114
O6    O     O_3   0.313632 0.431764 0.827411 -0.473486
O7    O     O_2   0.383053 0.717346 0.701307 -0.298281
O8    O     O_2   0.340919 0.579743 0.757126 -0.241470
O9    O     O_3   0.297749 0.699346 0.899262 -0.483476
O10   O     O_2   0.621984 0.319944 0.312164 -0.273383
O11   O     O_2   0.686992 0.278318 0.118810 -0.249135
O12   O     O_R   0.608740 0.432070 0.500000 -0.479402
O13   O     O_3   0.686366 0.431766 0.172597 -0.473500
O14   O     O_2   0.953606 0.639634 0.678236 -0.221005
O15   O     O_2   0.918623 0.707271 0.481741 -0.187607
O16   O     O_3   0.827619 0.719942 0.675061 -0.512766
O17   O     O_2   0.040336 0.365618 0.676752 -0.223844
O18   O     O_2   0.081488 0.294525 0.483905 -0.185756
O19   O     O_3   0.166467 0.285612 0.679308 -0.486013
O20   O     O_2   0.046392 0.639652 0.321806 -0.221014
O21   O     O_2   0.081374 0.707268 0.518317 -0.187598
O22   O     O_3   0.172377 0.719960 0.325001 -0.512773
O23   O     O_R   0.608740 0.567930 0.500000 -0.476290
O24   O     O_2   0.959664 0.365638 0.323223 -0.223900
O25   O     O_2   0.918516 0.294524 0.516054 -0.185696
O26   O     O_3   0.833535 0.285627 0.320653 -0.486020
O27   O     O_R   0.391260 0.432070 0.500000 -0.479405
O28   O     O_R   0.500000 0.567910 0.319660 -0.498191
O29   O     O_R   0.500000 0.432090 0.680340 -0.497474
O30   O     O_R   0.500000 0.567910 0.680340 -0.498191
O31   O     O_R   0.500000 0.432090 0.319660 -0.497473
O32   O     O_2   0.616945 0.717351 0.298689 -0.298282
S1    S     S_3+6 0.632947 0.659608 0.191786 0.044638
S2    S     S_3+6 0.361331 0.343673 0.821734 0.039162
S3    S     S_3+6 0.367050 0.659605 0.808212 0.044637
S4    S     S_3+6 0.638669 0.343673 0.178268 0.039156
S5    S     S_3+6 0.889312 0.660988 0.594475 0.073630
S6    S     S_3+6 0.107203 0.342932 0.595089 0.069520
S7    S     S_3+6 0.110686 0.660998 0.405572 0.073628
S8    S     S_3+6 0.892798 0.342942 0.404883 0.069517

loop_
_geom_bond_atom_site_label_1
_geom_bond_atom_site_label_2
_ccdc_geom_bond_type
C44   H3    S    
Cu2   O27   S    
O9    S3    S    
C3    C42   A    
C37   H23   S    
Cu1   N1    S    
C14   C18   A    
C35   C39   A    
C8    C43   A    
C1    O27   A    
H14   O16   S    
Cu1   Cu2   S    
C18   H19   S    
C6    N2    A    
O24   S8    D    
O8    S3    D    
C26   C27   A    
C30   C35   A    
C30   S6    S    
C23   C29   A    
C15   S2    S    
C29   S5    S    
O5    S2    D    
C19   C21   A    
C24   C26   A    
H17   O26   S    
C23   C40   S    
C29   C33   A    
O22   S7    S    
C42   H24   S    
H10   O6    S    
O11   S4    D    
C12   O12   A    
Cu1   O1    S    
C7    C42   A    
C2    H4    S    
C16   S3    S    
C15   C19   A    
C14   S1    S    
C22   C25   A    
O4    S2    D    
C12   O23   A    
O10   S4    D    
O13   S4    S    
C9    C10   T    
Cu2   N2    S    
H9    O3    S    
C2    C6    A    
C34   C41   S    
C6    H8    S    
O32   S1    D    
C33   H20   S    
Cu2   O29   S    
C17   C24   A    
O26   S8    S    
C30   C34   A    
O14   S5    D    
C17   S4    S    
O25   S8    D    
C3    H5    S    
C15   C26   A    
C7    C44   A    
O17   S6    D    
C17   C21   A    
C11   O28   A    
C25   C28   A    
C3    N1    A    
H13   O13   S    
C37   C38   A    
C35   H21   S    
C19   H18   S    
C16   C20   A    
C31   C34   A    
O7    S3    D    
C32   C37   A    
O21   S7    D    
Cu2   O12   S    
O16   S5    S    
C40   C41   T    
C5    C44   A    
C4    H6    S    
O3    S1    S    
C22   C27   A    
H16   O22   S    
H11   O9    S    
O18   S6    D    
C20   H12   S    
Cu1   O23   S    
C4    N2    A    
O19   S6    S    
C43   H2    S    
C5    H7    S    
C7    C9    S    
C16   C22   A    
C32   S8    S    
C36   C39   A    
C2    C8    A    
C24   C28   A    
Cu1   O28   S    
C36   H22   S    
O20   S7    D    
O15   S5    D    
C4    C43   A    
Cu2   O31   S    
C33   C38   A    
O6    S2    S    
C1    O1    A    
C23   C32   A    
C5    N1    A    
O2    S1    D    
C11   C28   S    
C18   C20   A    
C14   C25   A    
C12   C38   S    
Cu1   O30   S    
C1    C39   S    
C8    C10   S    
C31   S7    S    
C31   C36   A    
C13   C27   S    
C11   O31   A    
C13   O30   A    
C13   O29   A    
H15   O19   S    
C21   H1    S    
