data_mof_unit_3854.cif
_audit_creation_date              2013-03-05T16:36:15-0500
_audit_creation_method            fapswitch 2.2
_symmetry_space_group_name_H-M    P1
_symmetry_Int_Tables_number       1
_space_group_crystal_system       triclinic
_cell_length_a                    27.799173
_cell_length_b                    9.080518
_cell_length_c                    7.779531
_cell_angle_alpha                 90.08262
_cell_angle_beta                  89.98885
_cell_angle_gamma                 89.986718
_cell_volume                      1963.79180865

loop_
_atom_site_label
_atom_site_type_symbol
_atom_site_description
_atom_site_fract_x
_atom_site_fract_y
_atom_site_fract_z
_atom_type_partial_charge
O1    O     O_R   0.500000 0.288390 0.642760 -0.574327
O2    O     O_R   0.500000 0.711610 0.357240 -0.582268
O3    O     O_R   0.500000 0.711610 0.642760 -0.574507
O4    O     O_R   0.500000 0.288390 0.357240 -0.575556
C1    C     C_R   0.499993 0.220016 0.499928 0.851805
C2    C     C_R   0.499991 0.779987 0.500075 0.817010
O5    O     O_R   0.430260 0.500000 0.642770 -0.582109
O6    O     O_R   0.569740 0.500000 0.357230 -0.579389
O7    O     O_R   0.569740 0.500000 0.642770 -0.562989
O8    O     O_R   0.430260 0.500000 0.357230 -0.573185
C3    C     C_R   0.407439 0.500228 0.500058 0.783360
C4    C     C_R   0.592561 0.501309 0.500015 0.842366
Cu1   Cu    Cu3+1 0.500000 0.500000 0.669080 1.019400
Cu2   Cu    Cu3+1 0.500000 0.500000 0.330920 1.018788
C5    C     C_R   0.178176 0.433347 0.361660 0.559595
C6    C     C_R   0.821779 0.522537 0.650148 0.560605
C7    C     C_R   0.178146 0.523254 0.649753 0.557668
C8    C     C_R   0.821775 0.431999 0.362321 0.562305
O9    O     O_2   0.203126 0.391616 0.220921 -0.504616
O10   O     O_2   0.796840 0.567972 0.789359 -0.506424
O11   O     O_2   0.203073 0.568266 0.789125 -0.505698
O12   O     O_2   0.796835 0.389765 0.221810 -0.505367
N1    N     N_R   0.202181 0.480407 0.504822 -0.468139
N2    N     N_R   0.797757 0.479418 0.505342 -0.465314
C9    C     C_R   0.277351 0.615208 0.449694 -0.000920
C10   C     C_R   0.719170 0.364620 0.560938 -0.026027
C11   C     C_R   0.280580 0.362503 0.554255 0.017116
C12   C     C_R   0.722793 0.613300 0.443830 -0.002259
C13   C     C_R   0.327872 0.622493 0.448667 0.071674
C14   C     C_R   0.668641 0.371061 0.559985 0.048970
C15   C     C_R   0.330951 0.367503 0.553080 0.052047
C16   C     C_R   0.672284 0.621367 0.442404 0.044774
C17   C     C_R   0.253832 0.485952 0.502645 0.168778
C18   C     C_R   0.746111 0.485601 0.502934 0.199860
C19   C     C_R   0.102009 0.473522 0.507736 -0.039659
C20   C     C_R   0.897930 0.472742 0.508120 -0.039649
C21   C     C_R   0.127702 0.428675 0.360596 -0.025025
C22   C     C_R   0.872248 0.520195 0.654160 -0.024353
C23   C     C_R   0.127675 0.520930 0.653782 -0.023737
C24   C     C_R   0.872251 0.427553 0.361137 -0.025694
C25   C     C_R   0.102649 0.380552 0.215790 -0.145616
C26   C     C_R   0.897306 0.564950 0.800410 -0.144856
C27   C     C_R   0.102601 0.565536 0.800104 -0.145263
C28   C     C_R   0.897322 0.379418 0.216324 -0.145084
C29   C     C_R   0.354766 0.497376 0.500266 -0.104191
C30   C     C_R   0.645230 0.498691 0.500233 -0.063545
H1    H     H_    0.121583 0.344881 0.101282 0.195506
H2    H     H_    0.878380 0.601754 0.914449 0.196119
H3    H     H_    0.121515 0.602390 0.914112 0.196154
H4    H     H_    0.878402 0.343481 0.101939 0.195869
C31   C     C_R   0.974386 0.423099 0.359872 0.040623
C32   C     C_R   0.025555 0.518042 0.658163 0.040928
C33   C     C_R   0.974371 0.517855 0.658256 0.040920
C34   C     C_R   0.025574 0.423374 0.359742 0.040701
C35   C     C_R   0.949128 0.471037 0.508831 0.075033
C36   C     C_R   0.050814 0.471461 0.508624 0.074796
C37   C     C_R   0.947242 0.376940 0.215350 -0.217923
C38   C     C_R   0.052690 0.564295 0.802659 -0.218874
C39   C     C_R   0.947220 0.563935 0.802843 -0.218676
C40   C     C_R   0.052734 0.377653 0.215019 -0.218062
H5    H     H_    0.963197 0.338240 0.097762 0.147679
H6    H     H_    0.036735 0.601023 0.921100 0.147818
H7    H     H_    0.963160 0.600741 0.921243 0.147761
H8    H     H_    0.036792 0.339025 0.097406 0.147613
C41   C     C_1   0.499980 0.065394 0.499902 -0.165860
C42   C     C_1   0.499980 0.934610 0.500103 -0.167590
N3    N     N_1   0.500000 0.500000 0.076820 -0.038129
N4    N     N_1   0.500000 0.500000 0.923180 -0.039258
N5    N     N_3   0.357530 0.238681 0.602822 -0.579978
H9    H     H_    0.379956 0.207648 0.501048 0.214620
H10   H     H_    0.378932 0.264941 0.708972 0.244556
N6    N     N_3   0.649770 0.755878 0.385218 -0.563110
H11   H     H_    0.657269 0.837224 0.476629 0.217198
H12   H     H_    0.612414 0.747744 0.379105 0.218349
N7    N     N_3   0.350567 0.758542 0.397759 -0.560869
H13   H     H_    0.387838 0.749415 0.387906 0.222025
H14   H     H_    0.343863 0.836122 0.494305 0.229687
N8    N     N_3   0.640507 0.247742 0.617100 -0.582623
H15   H     H_    0.649316 0.156265 0.541595 0.222182
H16   H     H_    0.649692 0.224760 0.744593 0.242824
C43   C     C_1   0.256105 0.229866 0.608302 0.367869
N9    N     N_1   0.236478 0.123811 0.651559 -0.240546
C44   C     C_1   0.751060 0.737167 0.384965 0.346855
N10   N     N_1   0.773703 0.836173 0.337972 -0.238684
C45   C     C_1   0.249291 0.741240 0.396017 0.354928
N11   N     N_1   0.226803 0.841934 0.353067 -0.235799
C46   C     C_1   0.743576 0.233588 0.620624 0.298040
N12   N     N_1   0.763133 0.128798 0.668282 -0.241024

loop_
_geom_bond_atom_site_label_1
_geom_bond_atom_site_label_2
_geom_bond_distance
_ccdc_geom_bond_type
C38   H6    1.075093 S    
O5    Cu1   1.949528 S    
C46   N12   1.157299 T    
N6    H12   1.042177 S    
O3    C2    1.272651 A    
C43   N9    1.157360 T    
C33   C39   1.417097 A    
C16   N6    1.443220 S    
C34   C40   1.417108 A    
C45   N11   1.157225 T    
C11   C17   1.404184 A    
C5    O9    1.349755 S    
C7    N1    1.366515 A    
O1    C1    1.272074 A    
C19   C21   1.408718 A    
C22   C26   1.394275 A    
N8    H16   1.045540 S    
C7    C23   1.403549 A    
N5    H10   1.045220 S    
C8    C24   1.403782 A    
C5    C21   1.403798 A    
C20   C24   1.408743 A    
O7    Cu1   1.949447 S    
C27   C38   1.387697 A    
C10   C18   1.404663 A    
C10   C46   1.446715 S    
N1    C17   1.436852 S    
Cu2   N3    1.976778 S    
C31   C37   1.417143 A    
O3    Cu1   1.932701 S    
C6    O10   1.349822 S    
C5    N1    1.366518 A    
C12   C18   1.406230 A    
C6    N2    1.366544 A    
Cu1   Cu2   2.630727 S    
C12   C44   1.447087 S    
C21   C25   1.394304 A    
O2    C2    1.272113 A    
O5    C3    1.278810 A    
C33   C35   1.422503 A    
C9    C13   1.406022 A    
C34   C36   1.422479 A    
C11   C15   1.401039 A    
N3    N4    1.195248 T    
C12   C16   1.406048 A    
C1    C41   1.404051 S    
O8    Cu2   1.949449 S    
N8    H15   1.045666 S    
N6    H11   1.045666 S    
C11   C43   1.446391 S    
C23   C27   1.394244 A    
C7    O11   1.349806 S    
C13   C29   1.418423 A    
C19   C23   1.408667 A    
N7    H13   1.042201 S    
C15   N5    1.437028 S    
C44   N10   1.157246 T    
C2    C42   1.404055 S    
C28   C37   1.387906 A    
O6    C4    1.279350 A    
C9    C45   1.446962 S    
C25   H1    1.083707 S    
C26   H2    1.083730 S    
N7    H14   1.045699 S    
C32   C38   1.417086 A    
C4    C30   1.464335 S    
C10   C14   1.405892 A    
C8    N2    1.366514 A    
C3    C29   1.464493 S    
O1    Cu1   1.932114 S    
C32   C33   1.422877 A    
C28   H4    1.083708 S    
O6    Cu2   1.949526 S    
C19   C36   1.423327 A    
C8    O12   1.349765 S    
C16   C30   1.417972 A    
C14   C30   1.408576 A    
C27   H3    1.083738 S    
C25   C40   1.387879 A    
O4    C1    1.272663 A    
C26   C39   1.387713 A    
C37   H5    1.075127 S    
C13   N7    1.443170 S    
C39   H7    1.075097 S    
C40   H8    1.075136 S    
C31   C34   1.423006 A    
C20   C22   1.408658 A    
C20   C35   1.423355 A    
C31   C35   1.422480 A    
O4    Cu2   1.932702 S    
N5    H9    1.045956 S    
O2    Cu2   1.932114 S    
O7    C4    1.278968 A    
N2    C18   1.436933 S    
O8    C3    1.279381 A    
C14   N8    1.436927 S    
C24   C28   1.394317 A    
C41   C42   1.187592 T    
C15   C29   1.414068 A    
C9    C17   1.405857 A    
C32   C36   1.422473 A    
C6    C22   1.403504 A    
Cu1   N4    1.976778 S    
