data_mof_unit_1441.cif
_audit_creation_date              2012-12-10T20:25:42-0500
_audit_creation_method            fapswitch 2.2
_symmetry_space_group_name_H-M    P1
_symmetry_Int_Tables_number       1
_space_group_crystal_system       triclinic
_cell_length_a                    8.585514
_cell_length_b                    10.626348
_cell_length_c                    9.867102
_cell_angle_alpha                 89.611383
_cell_angle_beta                  98.243733
_cell_angle_gamma                 90.299699
_cell_volume                      890.871499619

loop_
_atom_site_label
_atom_site_type_symbol
_atom_type_description
_atom_site_fract_x
_atom_site_fract_y
_atom_site_fract_z
_atom_type_partial_charge
C1    C     C_R   0.510237 0.259883 0.501711 0.939065
C2    C     C_R   0.361632 0.493659 0.911582 0.195627
C3    C     C_3   0.241097 0.391024 0.890531 -0.534565
C4    C     C_R   0.201455 0.503145 0.464699 1.000085
C5    C     C_3   0.242264 0.389521 0.045022 0.233467
C6    C     C_R   0.514326 0.739744 0.501121 0.899596
C7    C     C_R   0.798137 0.508576 0.535253 0.818014
C8    C     C_2   0.036557 0.500251 0.447759 -0.429130
C9    C     C_2   0.961788 0.533631 0.551555 0.247620
C10   C     C_R   0.528061 0.062283 0.626072 -0.029039
C11   C     C_R   0.548836 0.129109 0.508864 -0.217800
C12   C     C_R   0.625471 0.935842 0.404817 0.031544
C13   C     C_R   0.619700 0.069800 0.405363 0.438355
C14   C     C_3   0.707324 0.865474 0.300968 -0.392737
C15   C     C_3   0.605578 0.858267 0.160339 -0.802600
C16   C     C_R   0.554307 0.870796 0.507250 -0.174751
C17   C     C_R   0.526957 0.934812 0.623656 -0.001784
C18   C     C_3   0.398437 0.923163 0.710798 -0.464684
C19   C     C_3   0.400985 0.066123 0.715766 0.295660
C20   C     C_R   0.361940 0.493173 0.054207 0.079294
C21   C     C_R   0.635466 0.517762 0.088591 -0.109926
C22   C     C_R   0.635488 0.517714 0.944828 -0.129560
H1    H     H_    0.977197 0.459855 0.353006 0.139546
H2    H     H_    0.402857 0.257129 0.078875 0.385111
H3    H     H_    0.958582 0.622603 0.724004 0.325711
H4    H     H_    0.730056 0.095276 0.245149 0.340587
H5    H     H_    0.670636 0.807507 0.088154 0.229293
H6    H     H_    0.494061 0.806994 0.166917 0.279171
H7    H     H_    0.575879 0.953362 0.117733 0.261461
H8    H     H_    0.822382 0.910201 0.291395 0.185502
H9    H     H_    0.741203 0.769127 0.337252 0.219690
H10   H     H_    0.559308 0.076279 0.881009 0.346577
H11   H     H_    0.745306 0.530209 0.904710 0.142178
H12   H     H_    0.127216 0.423804 0.834544 0.211019
H13   H     H_    0.286228 0.304469 0.848164 0.262111
H14   H     H_    0.129262 0.419292 0.077272 0.130283
H15   H     H_    0.287584 0.884434 0.653775 0.186126
H16   H     H_    0.439149 0.876476 0.810754 0.216927
H17   H     H_    0.290421 0.111449 0.666777 0.121911
H18   H     H_    0.745256 0.530621 0.155790 0.146885
N1    N     N_R   0.498950 0.499140 0.142680 -0.089853
N2    N     N_R   0.498950 0.499180 0.857030 -0.089455
O1    O     O_R   0.500020 0.316790 0.614690 -0.615867
O2    O     O_3   0.036980 0.597915 0.664625 -0.769305
O3    O     O_3   0.677404 0.145323 0.308651 -0.752418
O4    O     O_3   0.454575 0.113079 0.847464 -0.758192
O5    O     O_R   0.500000 0.316760 0.385350 -0.517463
O6    O     O_R   0.271760 0.500010 0.587850 -0.547771
O7    O     O_R   0.271740 0.499970 0.358500 -0.634222
O8    O     O_R   0.500000 0.683240 0.614650 -0.610121
O9    O     O_R   0.499980 0.683210 0.385310 -0.627337
O10   O     O_R   0.728260 0.500030 0.641500 -0.642116
O11   O     O_R   0.728240 0.499990 0.412150 -0.640064
O12   O     O_3   0.299981 0.276663 0.108716 -0.687606
Zn1   Zn    Zn3+2 0.500010 0.500020 0.653130 0.977656
Zn2   Zn    Zn3+2 0.499990 0.499980 0.346870 0.982292

loop_
_geom_bond_atom_site_label_1
_geom_bond_atom_site_label_2
_ccdc_geom_bond_type
C8    C9    D    
O6    Zn1   S    
H2    O12   S    
N1    Zn2   S    
N2    Zn1   S    
C2    C20   A    
O7    Zn2   S    
C10   C19   S    
C15   H5    S    
O8    Zn1   S    
C1    C11   S    
O10   Zn1   S    
C3    H13   S    
C4    O7    A    
C4    C8    S    
C2    C3    S    
C18   H16   S    
C19   O4    S    
C5    C20   S    
C21   C22   A    
C6    O8    A    
C13   O3    S    
C11   C13   A    
C15   H6    S    
C22   N2    A    
C21   H18   S    
C19   H17   S    
C14   H8    S    
C21   N1    A    
O9    Zn2   S    
H3    O2    S    
O1    Zn1   S    
C18   H15   S    
C12   C14   S    
C7    O10   A    
C15   H7    S    
C6    O9    A    
C10   C11   A    
C7    O11   A    
C10   C17   A    
C6    C16   S    
C5    H14   S    
C5    O12   S    
C8    H1    S    
C12   C13   A    
C17   C18   S    
C18   C19   S    
C4    O6    A    
O11   Zn2   S    
C7    C9    S    
C14   H9    S    
C14   C15   S    
C16   C17   A    
C9    O2    S    
H4    O3    S    
C3    C5    S    
C3    H12   S    
H10   O4    S    
C1    O1    A    
C1    O5    A    
C12   C16   A    
C20   N1    A    
O5    Zn2   S    
C2    N2    A    
C22   H11   S    
