data_mof_unit_3619.cif
_audit_creation_date              2013-03-05T16:30:42-0500
_audit_creation_method            fapswitch 2.2
_symmetry_space_group_name_H-M    P1
_symmetry_Int_Tables_number       1
_space_group_crystal_system       triclinic
_cell_length_a                    10.926077
_cell_length_b                    10.878853
_cell_length_c                    9.573132
_cell_angle_alpha                 91.332451
_cell_angle_beta                  90.539876
_cell_angle_gamma                 91.000609
_cell_volume                      1137.35682237

loop_
_atom_site_label
_atom_site_type_symbol
_atom_site_description
_atom_site_fract_x
_atom_site_fract_y
_atom_site_fract_z
_atom_type_partial_charge
O1    O     O_R   0.500000 0.319640 0.618810 -0.574427
O2    O     O_R   0.500010 0.319680 0.381230 -0.569378
C1    C     C_R   0.497545 0.262749 0.498609 0.845174
O3    O     O_R   0.321940 0.499980 0.618760 -0.596652
O4    O     O_R   0.321950 0.500020 0.381180 -0.560189
C2    C     C_R   0.265388 0.499023 0.499581 0.851009
Cu1   Cu    Cu3+1 0.499990 0.499980 0.640670 1.000595
Cu2   Cu    Cu3+1 0.500010 0.500020 0.359330 0.992540
O5    O     O_R   0.499990 0.680320 0.618770 -0.583179
O6    O     O_R   0.500000 0.680360 0.381190 -0.599299
O7    O     O_R   0.678050 0.499980 0.618820 -0.554473
O8    O     O_R   0.678060 0.500020 0.381240 -0.586909
C3    C     C_R   0.499979 0.737789 0.501099 0.835035
C4    C     C_R   0.734634 0.502338 0.500668 0.903327
C5    C     C_2   0.932169 0.506784 0.386034 -0.134925
C6    C     C_2   0.866821 0.510176 0.503879 -0.242732
H1    H     H_    0.886594 0.500857 0.284683 0.171500
H2    H     H_    0.908958 0.522238 0.606154 0.156171
C7    C     C_2   0.066207 0.513305 0.386352 -0.114590
C8    C     C_2   0.133246 0.493058 0.501009 -0.277612
H3    H     H_    0.110334 0.533035 0.287975 0.185484
H4    H     H_    0.092400 0.469377 0.599567 0.157907
C9    C     C_R   0.497251 0.068251 0.622368 -0.055140
C10   C     C_R   0.488322 0.130046 0.497288 -0.025067
C11   C     C_R   0.468027 0.060914 0.373285 -0.149500
H5    H     H_    0.455460 0.105489 0.274398 0.179446
C12   C     C_R   0.469570 0.932367 0.375517 -0.179821
H6    H     H_    0.456339 0.881469 0.277834 0.155398
C13   C     C_R   0.493228 0.871341 0.501379 -0.007979
C14   C     C_R   0.501702 0.942295 0.624920 -0.026289
C15   C     C_3   0.585060 0.947204 0.751717 0.093669
C16   C     C_3   0.578596 0.087507 0.747580 0.125438
H7    H     H_    0.539910 0.911640 0.846235 0.052164
H8    H     H_    0.530068 0.128987 0.838373 0.093647
C17   C     C_R   0.599694 0.542005 0.075807 0.221548
N1    N     N_R   0.500780 0.500930 0.147930 -0.208355
C18   C     C_R   0.411987 0.437079 0.069450 0.215798
C19   C     C_R   0.410645 0.440831 0.921457 -0.084793
H9    H     H_    0.338518 0.393501 0.862398 0.167630
N2    N     N_R   0.500780 0.500890 0.852020 -0.207749
C20   C     C_R   0.600896 0.539354 0.928901 0.261894
C21   C     C_3   0.661399 0.662176 0.926101 -0.418759
C22   C     C_3   0.658527 0.666169 0.084863 -0.473056
H10   H     H_    0.755284 0.657983 0.882724 0.232365
H11   H     H_    0.600094 0.728089 0.877600 0.212949
H12   H     H_    0.751110 0.664351 0.133779 0.211475
H13   H     H_    0.596888 0.737509 0.128008 0.213644
N3    N     N_R   0.694645 0.150953 0.716691 0.185533
O9    O     O_R   0.753693 0.127561 0.601799 -0.299355
O10   O     O_R   0.736083 0.236973 0.802090 -0.338091
I1    I     I_    0.279432 0.314599 0.151813 -0.360573
N4    N     N_R   0.708888 0.900284 0.730163 0.173596
O11   O     O_R   0.738906 0.842415 0.615382 -0.351749
O12   O     O_R   0.790184 0.914815 0.829603 -0.314296

loop_
_geom_bond_atom_site_label_1
_geom_bond_atom_site_label_2
_geom_bond_distance
_ccdc_geom_bond_type
O4    Cu2   1.958668 S    
Cu1   O7    1.958667 S    
C9    C10   1.390238 A    
C15   H7    1.108961 S    
C18   C19   1.418238 A    
C11   C12   1.399503 A    
C17   C22   1.486081 S    
C20   C21   1.481281 S    
C7    C8    1.338479 D    
C15   N4    1.469035 S    
Cu2   O8    1.954697 S    
C9    C16   1.494112 S    
N3    O10   1.300660 A    
O2    C1    1.295897 A    
O8    C4    1.294085 A    
Cu1   Cu2   2.693317 S    
O7    C4    1.294683 A    
O1    Cu1   1.968180 S    
N4    O11   1.301204 A    
C19   N2    1.359664 A    
C16   N3    1.468860 S    
C1    C10   1.445161 S    
C13   C14   1.398614 A    
C21   H10   1.111551 S    
C2    C8    1.444324 S    
O3    Cu1   1.954697 S    
C18   I1    2.120762 S    
O4    C2    1.296281 A    
Cu2   O6    1.968179 S    
N1    C18   1.388027 A    
C7    H3    1.086184 S    
N4    O12   1.300904 A    
N3    O9    1.302615 A    
C14   C15   1.510037 S    
C17   C20   1.406167 A    
C22   H12   1.111374 S    
C4    C6    1.445310 S    
O3    C2    1.292101 A    
C12   C13   1.413036 A    
C21   C22   1.520097 S    
C5    C6    1.340903 D    
C9    C14   1.372746 A    
Cu1   O5    1.977903 S    
C19   H9    1.081534 S    
C10   C11   1.404169 A    
C6    H2    1.082235 S    
Cu2   N1    2.024111 S    
C3    C13   1.455984 S    
C12   H6    1.082832 S    
C5    H1    1.086450 S    
O5    C3    1.300995 A    
N2    C20   1.366696 A    
C17   N1    1.362329 A    
C11   H5    1.082303 S    
C5    C7    1.464957 S    
Cu1   N2    2.023012 S    
C22   H13   1.111343 S    
O6    C3    1.294093 A    
O2    Cu2   1.977903 S    
C15   C16   1.530620 S    
C8    H4    1.082118 S    
O1    C1    1.293672 A    
C21   H11   1.097639 S    
C16   H8    1.113118 S    
