data_mof_unit_2602.cif
_audit_creation_date              2012-12-11T14:41:14-0500
_audit_creation_method            fapswitch 2.2
_symmetry_space_group_name_H-M    P1
_symmetry_Int_Tables_number       1
_space_group_crystal_system       triclinic
_cell_length_a                    6.940117
_cell_length_b                    18.501419
_cell_length_c                    18.699632
_cell_angle_alpha                 90.0
_cell_angle_beta                  89.999983
_cell_angle_gamma                 89.999943
_cell_volume                      2401.07038229

loop_
_atom_site_label
_atom_site_type_symbol
_atom_type_description
_atom_site_fract_x
_atom_site_fract_y
_atom_site_fract_z
_atom_type_partial_charge
O1    O     O_R   0.377350 0.828520 0.186660 -0.514929
O2    O     O_R   0.622650 0.171480 0.813340 -0.513464
O3    O     O_R   0.122650 0.171480 0.686660 -0.514928
O4    O     O_R   0.877350 0.828520 0.313340 -0.513465
O5    O     O_R   0.877350 0.671480 0.313340 -0.514931
O6    O     O_R   0.122650 0.328520 0.686660 -0.513463
O7    O     O_R   0.622650 0.328520 0.813340 -0.514929
O8    O     O_R   0.377350 0.671480 0.186660 -0.513463
O9    O     O_R   0.707090 0.671930 0.178410 -0.535787
O10   O     O_R   0.292910 0.328070 0.821590 -0.556904
O11   O     O_R   0.792910 0.328070 0.678410 -0.535788
O12   O     O_R   0.207090 0.671930 0.321590 -0.556904
O13   O     O_R   0.207090 0.828070 0.321590 -0.535789
O14   O     O_R   0.792910 0.171930 0.678410 -0.556904
O15   O     O_R   0.292910 0.171930 0.821590 -0.535787
O16   O     O_R   0.707090 0.828070 0.178410 -0.556904
C1    C     C_R   0.538837 0.646291 0.161372 0.773758
C2    C     C_R   0.461355 0.353967 0.838552 0.789235
C3    C     C_R   0.961163 0.353709 0.661372 0.773756
C4    C     C_R   0.038645 0.646033 0.338551 0.789233
C5    C     C_R   0.038837 0.853709 0.338627 0.773755
C6    C     C_R   0.961355 0.146033 0.661448 0.789237
C7    C     C_R   0.461163 0.146291 0.838627 0.773756
C8    C     C_R   0.538645 0.853967 0.161448 0.789236
O17   O     O_3   0.543850 0.750000 0.294270 -0.355708
O18   O     O_3   0.456150 0.250000 0.705730 -0.355705
O19   O     O_3   0.956150 0.250000 0.794270 -0.355706
O20   O     O_3   0.043850 0.750000 0.205730 -0.355705
V1    V     V_3+5 0.818700 0.750000 0.241790 1.668577
V2    V     V_3+5 0.181300 0.250000 0.758210 1.668580
V3    V     V_3+5 0.681300 0.250000 0.741790 1.668578
V4    V     V_3+5 0.318700 0.750000 0.258210 1.668577
C9    C     C_R   0.966555 0.417075 0.610946 -0.122154
C10   C     C_R   0.036389 0.582977 0.389744 -0.137188
C11   C     C_R   0.533444 0.582925 0.110946 -0.122155
C12   C     C_R   0.463610 0.417022 0.889745 -0.137187
C13   C     C_R   0.466556 0.082925 0.889054 -0.122156
C14   C     C_R   0.536390 0.917022 0.110255 -0.137187
C15   C     C_R   0.033444 0.917075 0.389054 -0.122156
C16   C     C_R   0.963610 0.082978 0.610255 -0.137186
C17   C     C_R   0.206505 0.476579 0.437016 -0.032660
C18   C     C_R   0.843537 0.535367 0.573298 -0.018174
C19   C     C_R   0.293493 0.523420 0.937016 -0.032662
C20   C     C_R   0.656454 0.464631 0.073299 -0.018175
C21   C     C_R   0.706507 0.023420 0.062983 -0.032662
C22   C     C_R   0.343549 0.964630 0.926700 -0.018176
C23   C     C_R   0.793493 0.976580 0.562983 -0.032662
C24   C     C_R   0.156452 0.035369 0.426700 -0.018177
C25   C     C_R   0.177165 0.528233 0.382137 -0.104756
C26   C     C_R   0.847689 0.478014 0.623390 -0.070754
C27   C     C_R   0.322833 0.471766 0.882138 -0.104761
C28   C     C_R   0.652307 0.521985 0.123391 -0.070758
C29   C     C_R   0.677167 0.971766 0.117862 -0.104762
C30   C     C_R   0.347694 0.021985 0.876609 -0.070760
C31   C     C_R   0.822833 0.028234 0.617862 -0.104762
C32   C     C_R   0.152307 0.978015 0.376609 -0.070760
C33   C     C_R   0.910287 0.580361 0.449534 -0.089515
C34   C     C_R   0.084338 0.415814 0.548878 -0.094101
C35   C     C_R   0.589711 0.419638 0.949535 -0.089511
C36   C     C_R   0.415661 0.584186 0.048878 -0.094101
C37   C     C_R   0.410289 0.919638 0.050464 -0.089509
C38   C     C_R   0.584339 0.084186 0.951122 -0.094100
C39   C     C_R   0.089711 0.080362 0.550464 -0.089508
C40   C     C_R   0.915662 0.915814 0.451122 -0.094099
C41   C     C_R   0.942572 0.529925 0.506579 0.032839
C42   C     C_R   0.080308 0.473792 0.497711 0.028982
C43   C     C_R   0.557423 0.470074 0.006580 0.032844
C44   C     C_R   0.419690 0.526208 0.997711 0.028979
C45   C     C_R   0.442578 0.970074 0.993419 0.032844
C46   C     C_R   0.580311 0.026208 0.002288 0.028978
C47   C     C_R   0.057422 0.029926 0.493419 0.032844
C48   C     C_R   0.919690 0.973792 0.502288 0.028979
C49   C     C_2   0.187116 0.348323 0.531952 0.795814
O21   O     O_2   0.330882 0.331450 0.565842 -0.505874
O22   O     O_R   0.127992 0.307703 0.472962 -0.640602
H1    H     H_    0.227110 0.270339 0.458665 0.346227
C50   C     C_2   0.730467 0.623531 0.447857 0.792489
O23   O     O_2   0.737054 0.688726 0.439802 -0.549309
O24   O     O_R   0.552771 0.589379 0.456486 -0.645832
H2    H     H_    0.441125 0.624720 0.455739 0.309051
C51   C     C_2   0.312884 0.651677 0.031952 0.795815
O25   O     O_2   0.169118 0.668551 0.065842 -0.505873
O26   O     O_R   0.372008 0.692297 0.972962 -0.640602
H3    H     H_    0.272891 0.729661 0.958665 0.346226
C52   C     C_2   0.769532 0.376469 0.947860 0.792477
O27   O     O_2   0.762948 0.311275 0.939800 -0.549308
O28   O     O_R   0.947226 0.410620 0.956497 -0.645831
H4    H     H_    0.058872 0.375280 0.955750 0.309052
C53   C     C_2   0.687115 0.151677 0.968048 0.795816
O29   O     O_2   0.830880 0.168551 0.934158 -0.505873
O30   O     O_R   0.627990 0.192296 0.027039 -0.640601
H5    H     H_    0.727106 0.229660 0.041336 0.346227
C54   C     C_2   0.230468 0.876469 0.052139 0.792467
O31   O     O_2   0.237050 0.811275 0.060202 -0.549307
O32   O     O_R   0.052775 0.910620 0.043497 -0.645831
H6    H     H_    0.941128 0.875280 0.044244 0.309053
C55   C     C_2   0.812890 0.848323 0.468049 0.795815
O33   O     O_2   0.669123 0.831448 0.434160 -0.505873
O34   O     O_R   0.872019 0.807704 0.527040 -0.640598
H7    H     H_    0.772905 0.770339 0.541337 0.346228
C56   C     C_2   0.269532 0.123531 0.552139 0.792467
O35   O     O_2   0.262951 0.188725 0.560202 -0.549307
O36   O     O_R   0.447225 0.089380 0.543498 -0.645832
H8    H     H_    0.558872 0.124720 0.544245 0.309052
C57   C     C_2   0.725727 0.483782 0.688985 0.423992
H9    H     H_    0.590284 0.512777 0.687158 0.144388
O37   O     O_2   0.776139 0.458021 0.745965 -0.546755
C58   C     C_2   0.295021 0.523660 0.315618 0.460171
H10   H     H_    0.444596 0.507770 0.318417 0.124245
O38   O     O_2   0.223876 0.535106 0.256999 -0.527422
C59   C     C_2   0.774270 0.516217 0.188985 0.423990
H11   H     H_    0.909712 0.487222 0.187158 0.144395
O39   O     O_2   0.723859 0.541979 0.245966 -0.546755
C60   C     C_2   0.204976 0.476339 0.815619 0.460173
H12   H     H_    0.055400 0.492228 0.818418 0.124241
O40   O     O_2   0.276121 0.464894 0.757000 -0.527421
C61   C     C_2   0.225729 0.016217 0.811015 0.423992
H13   H     H_    0.090286 0.987223 0.812843 0.144399
O41   O     O_2   0.276138 0.041979 0.754034 -0.546756
C62   C     C_2   0.795027 0.976338 0.184380 0.460175
H14   H     H_    0.944604 0.992224 0.181580 0.124237
O42   O     O_2   0.723881 0.964895 0.243000 -0.527421
C63   C     C_2   0.274274 0.983783 0.311015 0.423992
H15   H     H_    0.409719 0.012776 0.312844 0.144400
O43   O     O_2   0.223864 0.958022 0.254034 -0.546756
C64   C     C_2   0.704975 0.023662 0.684380 0.460174
H16   H     H_    0.555399 0.007774 0.681581 0.124237
O44   O     O_2   0.776121 0.035105 0.743000 -0.527421
C65   C     C_2   0.383924 0.431433 0.433116 0.785816
O45   O     O_2   0.405823 0.388481 0.384035 -0.536222
O46   O     O_R   0.525341 0.438390 0.485887 -0.629736
H17   H     H_    0.639362 0.405184 0.477535 0.318051
C66   C     C_2   0.773737 0.606649 0.598946 0.752818
O47   O     O_2   0.601124 0.618572 0.604794 -0.527714
O48   O     O_R   0.908396 0.658748 0.619528 -0.626037
H18   H     H_    0.846045 0.702444 0.642602 0.335144
C67   C     C_2   0.116074 0.568567 0.933116 0.785812
O49   O     O_2   0.094177 0.611519 0.884034 -0.536219
O50   O     O_R   0.974658 0.561611 0.985887 -0.629736
H19   H     H_    0.860637 0.594816 0.977535 0.318052
C68   C     C_2   0.726234 0.393347 0.098949 0.752826
O51   O     O_2   0.898842 0.381420 0.104807 -0.527717
O52   O     O_R   0.591559 0.341249 0.119519 -0.626038
H20   H     H_    0.653894 0.297551 0.142596 0.335147
C69   C     C_2   0.883926 0.068566 0.066884 0.785812
O53   O     O_2   0.905825 0.111517 0.115966 -0.536219
O54   O     O_R   0.025341 0.061611 0.014112 -0.629736
H21   H     H_    0.139363 0.094816 0.022464 0.318052
C70   C     C_2   0.273778 0.893346 0.901050 0.752832
O55   O     O_2   0.101172 0.881417 0.895187 -0.527718
O56   O     O_R   0.408460 0.841248 0.880485 -0.626039
H22   H     H_    0.346133 0.797549 0.857407 0.335148
C71   C     C_2   0.616074 0.931433 0.566883 0.785812
O57   O     O_2   0.594176 0.888482 0.615965 -0.536222
O58   O     O_R   0.474660 0.938389 0.514111 -0.629736
H23   H     H_    0.360639 0.905183 0.522463 0.318053
C72   C     C_2   0.226225 0.106654 0.401050 0.752835
O59   O     O_2   0.398831 0.118582 0.395186 -0.527718
O60   O     O_R   0.091544 0.158752 0.380485 -0.626038
H24   H     H_    0.153872 0.202451 0.357407 0.335149

loop_
_geom_bond_atom_site_label_1
_geom_bond_atom_site_label_2
_ccdc_geom_bond_type
O28   H4    S    
C9    C34   A    
C49   O21   D    
O13   V4    S    
O32   H6    S    
O14   V3    S    
C39   C56   S    
C12   C35   A    
C19   C27   A    
C13   C38   A    
C29   C62   S    
C70   O55   D    
C63   H15   S    
O5    C4    A    
C50   O23   D    
C15   C40   A    
C67   O50   S    
O11   C3    A    
C56   O35   D    
C16   C39   A    
C18   C66   S    
C21   C69   S    
O20   V1    S    
C61   O41   D    
C69   O53   D    
C37   C54   S    
C63   O43   D    
O52   H20   S    
C38   C53   S    
C35   C43   A    
C58   H10   S    
C38   C46   A    
C22   C45   A    
O54   H21   S    
C69   O54   S    
C34   C42   A    
C72   O59   D    
O60   H24   S    
C20   C68   S    
C10   C33   A    
C8    C14   S    
O56   H22   S    
C31   C64   S    
C71   O58   S    
O4    V1    S    
O9    V1    S    
C14   C37   A    
C4    C10   S    
C16   C31   A    
O17   V4    S    
O15   C7    A    
C67   O49   D    
O11   V3    S    
O18   V3    S    
O16   C8    A    
O12   V4    S    
O19   V2    S    
C49   O22   S    
C70   O56   S    
O12   C4    A    
C17   C25   A    
C51   O26   S    
C62   O42   D    
C55   O33   D    
C25   C58   S    
O5    V1    S    
C52   O28   S    
O17   V1    S    
O58   H23   S    
C27   C60   S    
O7    V3    S    
O19   V3    S    
C43   C44   A    
O8    V4    S    
C32   C63   S    
C33   C50   S    
O48   H18   S    
C55   O34   S    
C53   O29   D    
O30   H5    S    
C19   C44   A    
C23   C71   S    
C28   C59   S    
O16   V1    S    
C7    C13   S    
O1    V4    S    
C51   O25   D    
C11   C36   A    
C72   O60   S    
O3    V2    S    
O22   H1    S    
C35   C52   S    
O6    C3    A    
C18   C41   A    
C57   O37   D    
C36   C51   S    
O10   V2    S    
O34   H7    S    
C5    C15   S    
C26   C57   S    
O20   V4    S    
O7    C2    A    
C6    C16   S    
C22   C30   A    
C50   O24   S    
O13   C5    A    
C59   O39   D    
C54   O31   D    
C52   O27   D    
C12   C27   A    
C18   C26   A    
C13   C30   A    
O9    C1    A    
C40   C55   S    
O6    V2    S    
C39   C47   A    
O18   V2    S    
C3    C9    S    
C66   O47   D    
O26   H3    S    
C53   O30   S    
C24   C47   A    
O46   H17   S    
C15   C32   A    
O2    C7    A    
C62   H14   S    
O15   V2    S    
C23   C31   A    
C65   O45   D    
C24   C72   S    
C37   C45   A    
C24   C32   A    
C10   C25   A    
C64   O44   D    
C59   H11   S    
C21   C46   A    
C33   C41   A    
C20   C43   A    
C60   O40   D    
O50   H19   S    
C60   H12   S    
C17   C42   A    
C57   H9    S    
O8    C1    A    
C56   O36   S    
O14   C6    A    
C68   O52   S    
C9    C26   A    
C47   C48   A    
C68   O51   D    
C17   C65   S    
O4    C5    A    
C11   C28   A    
C20   C28   A    
C14   C29   A    
O10   C2    A    
C64   H16   S    
C58   O38   D    
C19   C67   S    
C40   C48   A    
C45   C46   A    
C23   C48   A    
C21   C29   A    
O24   H2    S    
C22   C70   S    
C36   C44   A    
O1    C8    A    
C54   O32   S    
C41   C42   A    
C30   C61   S    
O36   H8    S    
C66   O48   S    
O2    V3    S    
O3    C6    A    
C1    C11   S    
C71   O57   D    
C61   H13   S    
C2    C12   S    
C34   C49   S    
C65   O46   S    
