data_mof_unit_3330.cif
_audit_creation_date              2012-12-10T19:14:19-0500
_audit_creation_method            fapswitch 2.2
_symmetry_space_group_name_H-M    P1
_symmetry_Int_Tables_number       1
_space_group_crystal_system       triclinic
_cell_length_a                    10.776305
_cell_length_b                    9.700457
_cell_length_c                    18.708038
_cell_angle_alpha                 90.392196
_cell_angle_beta                  90.878131
_cell_angle_gamma                 89.999338
_cell_volume                      1955.37080972

loop_
_atom_site_label
_atom_site_type_symbol
_atom_type_description
_atom_site_fract_x
_atom_site_fract_y
_atom_site_fract_z
_atom_type_partial_charge
C1    C     C_R   0.256761 0.500948 0.505145 0.853620
C2    C     C_R   0.652649 0.490828 0.073586 0.299170
C3    C     C_R   0.600627 0.621351 0.817215 -0.178037
C4    C     C_R   0.562564 0.377481 0.823951 -0.188184
C5    C     C_R   0.532350 0.626390 0.753325 0.176117
C6    C     C_R   0.503421 0.379066 0.756578 0.166856
C7    C     C_R   0.504300 0.502340 0.716217 -0.174865
C8    C     C_R   0.615484 0.497049 0.853268 -0.008884
C9    C     C_3   0.069938 0.620022 0.568276 -0.059116
C10   C     C_3   0.070535 0.358723 0.540909 -0.000232
C11   C     C_3   0.923832 0.623904 0.566810 -0.015066
C12   C     C_3   0.928274 0.359370 0.552379 -0.031096
C13   C     C_3   0.059315 0.537660 0.439435 -0.414696
C14   C     C_3   0.118248 0.504149 0.512427 0.025800
C15   C     C_3   0.874746 0.499070 0.521826 0.018456
C16   C     C_R   0.504263 0.499513 0.364729 0.902168
C17   C     C_3   0.919049 0.518049 0.443029 -0.471831
C18   C     C_3   0.417836 0.079971 0.441218 -0.244305
C19   C     C_3   0.413307 0.917942 0.443294 -0.221486
C20   C     C_3   0.624996 0.081199 0.483378 -0.231078
C21   C     C_3   0.624394 0.918554 0.481950 -0.234411
C22   C     C_3   0.461480 0.082035 0.567699 -0.231883
C23   C     C_3   0.463707 0.920884 0.568263 -0.257221
C24   C     C_R   0.738915 0.499743 0.514006 0.885078
C25   C     C_R   0.494343 0.500620 0.636437 0.810143
C26   C     C_R   0.632786 0.585861 0.267705 -0.242949
C27   C     C_R   0.490335 0.397944 0.243591 -0.254619
C28   C     C_R   0.678758 0.576821 0.198483 0.162269
C29   C     C_R   0.529806 0.389724 0.172824 0.167215
C30   C     C_R   0.624676 0.480821 0.149718 0.032358
C31   C     C_R   0.538765 0.497752 0.289962 -0.099357
C32   C     C_R   0.650487 0.499795 0.929283 0.302869
H1    H     H_    0.674006 0.658222 0.305616 0.141657
H2    H     H_    0.419135 0.328645 0.262421 0.136657
H3    H     H_    0.874368 0.609649 0.417772 0.175310
H4    H     H_    0.890160 0.428340 0.409548 0.185792
H5    H     H_    0.450506 0.113297 0.387889 0.144305
H6    H     H_    0.437206 0.876014 0.389784 0.150811
H7    H     H_    0.324227 0.121741 0.445013 0.165753
H8    H     H_    0.317114 0.883992 0.453118 0.130631
H9    H     H_    0.658390 0.120710 0.431371 0.146697
H10   H     H_    0.654129 0.880775 0.428580 0.139819
H11   H     H_    0.526458 0.121339 0.609232 0.181255
H12   H     H_    0.530367 0.887546 0.610016 0.140823
H13   H     H_    0.368040 0.119891 0.581619 0.131489
H14   H     H_    0.372058 0.881170 0.583538 0.158802
H15   H     H_    0.693275 0.117794 0.523780 0.144895
H16   H     H_    0.694760 0.880373 0.520669 0.149647
H17   H     H_    0.627820 0.717148 0.843231 0.155466
H18   H     H_    0.558103 0.285671 0.856362 0.168871
H19   H     H_    0.103352 0.583451 0.621408 0.136308
H20   H     H_    0.118542 0.352485 0.594100 0.073731
H21   H     H_    0.892308 0.714393 0.535182 0.182309
H22   H     H_    0.884823 0.275348 0.519832 0.186038
H23   H     H_    0.080063 0.646631 0.425664 0.169360
H24   H     H_    0.097722 0.475232 0.395334 0.180875
N1    N     N_R   0.684396 0.377934 0.034841 -0.188129
N2    N     N_R   0.626250 0.609819 0.039228 -0.187567
N3    N     N_R   0.682653 0.382092 0.963767 -0.184461
N4    N     N_R   0.625683 0.614373 0.968409 -0.184959
N5    N     N_3   0.499750 0.138610 0.498490 -0.032093
N6    N     N_3   0.499750 0.861390 0.498490 -0.028824
O1    O     O_R   0.314910 0.616040 0.499990 -0.636305
O2    O     O_R   0.314910 0.383960 0.499990 -0.616509
O3    O     O_R   0.500100 0.616080 0.398110 -0.617761
O4    O     O_R   0.500100 0.383920 0.398110 -0.612329
O5    O     O_R   0.685320 0.616040 0.499960 -0.632340
O6    O     O_R   0.685320 0.383960 0.499960 -0.628971
O7    O     O_R   0.500130 0.616000 0.601840 -0.626112
O8    O     O_R   0.500130 0.384000 0.601840 -0.623699
Zn1   Zn    Zn3+2 0.500150 0.654960 0.499970 0.892650
Zn2   Zn    Zn3+2 0.500150 0.345040 0.499970 0.899529
C33   C     C_3   0.787731 0.667802 0.179256 -0.418471
C34   C     C_3   0.906143 0.583076 0.171035 -0.864065
H25   H     H_    0.927616 0.527007 0.221328 0.256134
H26   H     H_    0.896247 0.507657 0.126436 0.265301
H27   H     H_    0.984909 0.652749 0.159332 0.248905
H28   H     H_    0.767972 0.726102 0.129635 0.222814
H29   H     H_    0.805408 0.746609 0.221653 0.195805
C35   C     C_3   0.464878 0.286268 0.123768 -0.413949
C36   C     C_3   0.370188 0.355798 0.074234 -0.835133
H30   H     H_    0.301478 0.414249 0.106112 0.256314
H31   H     H_    0.415901 0.427018 0.036774 0.270260
H32   H     H_    0.320117 0.276008 0.042210 0.244963
H33   H     H_    0.532800 0.225977 0.092559 0.220856
H34   H     H_    0.414212 0.208739 0.155717 0.195759
C37   C     C_3   0.465883 0.759617 0.737272 -0.439823
C38   C     C_3   0.373864 0.794621 0.796439 -0.889951
H35   H     H_    0.313508 0.704431 0.807181 0.266444
H36   H     H_    0.423620 0.825104 0.846493 0.268259
H37   H     H_    0.313055 0.881282 0.779827 0.252311
H38   H     H_    0.535435 0.843058 0.732350 0.208093
H39   H     H_    0.409856 0.752537 0.687752 0.226893
C39   C     C_3   0.414929 0.262409 0.738657 -0.392657
C40   C     C_3   0.475074 0.121005 0.746609 -0.933571
H40   H     H_    0.571931 0.120977 0.727295 0.263790
H41   H     H_    0.475866 0.088420 0.803375 0.266919
H42   H     H_    0.419366 0.045537 0.715217 0.255220
H43   H     H_    0.336138 0.268284 0.776220 0.198278
H44   H     H_    0.372213 0.272364 0.684826 0.205659
C41   C     C_3   0.115019 0.773872 0.561137 -0.373645
C42   C     C_3   0.132162 0.845948 0.633692 -0.955905
H45   H     H_    0.044214 0.853223 0.662857 0.289816
H46   H     H_    0.199920 0.788634 0.667187 0.264107
H47   H     H_    0.167254 0.952403 0.625898 0.235458
H48   H     H_    0.201586 0.786771 0.533858 0.236366
H49   H     H_    0.051380 0.837270 0.527678 0.184727
C43   C     C_3   0.106635 0.217371 0.506353 -0.365302
C44   C     C_3   0.091062 0.202913 0.425378 -0.885552
H50   H     H_    0.996600 0.232533 0.407529 0.252977
H51   H     H_    0.162508 0.263121 0.397334 0.259367
H52   H     H_    0.104245 0.093088 0.410103 0.224558
H53   H     H_    0.200183 0.187728 0.523896 0.205972
H54   H     H_    0.050070 0.134294 0.530527 0.179539
C45   C     C_3   0.866544 0.643160 0.642768 -0.388733
C46   C     C_3   0.794816 0.777852 0.651889 -0.948084
H55   H     H_    0.843430 0.866961 0.628217 0.255991
H56   H     H_    0.702813 0.766291 0.625966 0.279573
H57   H     H_    0.780362 0.798944 0.709584 0.255756
H58   H     H_    0.799143 0.561283 0.654358 0.220906
H59   H     H_    0.939036 0.638985 0.685495 0.212904
C47   C     C_3   0.907644 0.319043 0.632451 -0.493647
C48   C     C_3   0.776735 0.280149 0.653370 -0.858943
H60   H     H_    0.710538 0.358446 0.635700 0.280467
H61   H     H_    0.751405 0.177938 0.631206 0.240886
H62   H     H_    0.772041 0.273403 0.712496 0.252635
H63   H     H_    0.963935 0.225380 0.644139 0.214881
H64   H     H_    0.945705 0.397961 0.669651 0.209339

loop_
_geom_bond_atom_site_label_1
_geom_bond_atom_site_label_2
_ccdc_geom_bond_type
C41   H49   S    
C37   C38   S    
C41   C42   S    
C45   H59   S    
C27   C29   A    
C33   C34   S    
C10   C43   S    
C40   H40   S    
C9    H19   S    
C4    C8    A    
C10   H20   S    
C36   H30   S    
C3    H17   S    
C2    N1    A    
C48   H60   S    
C43   C44   S    
C16   C31   S    
C35   H33   S    
C34   H26   S    
C18   H5    S    
C44   H51   S    
N1    N3    A    
C19   N6    S    
N2    N4    A    
C45   C46   S    
C20   N5    S    
C46   H55   S    
C42   H47   S    
C18   C19   S    
C43   H54   S    
C47   H63   S    
O7    Zn1   S    
C18   H7    S    
C35   H34   S    
C24   O5    A    
C11   C15   S    
C23   N6    S    
O4    Zn2   S    
C6    C39   S    
C34   H27   S    
C33   H28   S    
C12   C15   S    
C17   H4    S    
C11   C45   S    
C11   H21   S    
C13   H24   S    
C26   C31   A    
C23   H14   S    
C37   H38   S    
C42   H45   S    
C28   C33   S    
C1    O1    A    
C36   H31   S    
C20   H9    S    
C27   H2    S    
C40   H42   S    
C34   H25   S    
C27   C31   A    
C8    C32   S    
C4    C6    A    
C3    C8    A    
C10   C14   S    
C44   H52   S    
C5    C7    A    
C48   H62   S    
O3    Zn1   S    
C23   H12   S    
C4    H18   S    
C43   H53   S    
C9    C14   S    
C29   C30   A    
C19   H6    S    
C26   H1    S    
C22   H11   S    
C38   H37   S    
C39   H44   S    
O6    Zn2   S    
C2    N2    A    
C33   H29   S    
C20   C21   S    
C42   H46   S    
C9    C11   S    
C21   N6    S    
C16   O4    A    
C10   C12   S    
N5    Zn2   S    
C15   C24   S    
C38   H36   S    
C25   O7    A    
C32   N4    A    
C1    O2    A    
C36   H32   S    
C41   H48   S    
C15   C17   S    
O1    Zn1   S    
C35   C36   S    
C3    C5    A    
C40   H41   S    
C18   N5    S    
C6    C7    A    
C16   O3    A    
C1    C14   S    
C26   C28   A    
C7    C25   S    
C46   H57   S    
C13   C17   S    
C2    C30   S    
C21   H16   S    
C28   C30   A    
C44   H50   S    
C22   N5    S    
C29   C35   S    
C39   H43   S    
C37   H39   S    
C46   H56   S    
N6    Zn1   S    
O5    Zn1   S    
O2    Zn2   S    
C47   H64   S    
C39   C40   S    
C20   H15   S    
C48   H61   S    
C19   H8    S    
C24   O6    A    
C21   H10   S    
C5    C37   S    
C22   H13   S    
C12   C47   S    
C38   H35   S    
C9    C41   S    
C45   H58   S    
C22   C23   S    
O8    Zn2   S    
C25   O8    A    
C17   H3    S    
C32   N3    A    
C47   C48   S    
C13   C14   S    
C12   H22   S    
C13   H23   S    
