data_mof_unit_335.cif
_audit_creation_date              2012-12-10T16:52:42-0500
_audit_creation_method            fapswitch 2.2
_symmetry_space_group_name_H-M    P1
_symmetry_Int_Tables_number       1
_space_group_crystal_system       triclinic
_cell_length_a                    13.041139
_cell_length_b                    10.953399
_cell_length_c                    9.788705
_cell_angle_alpha                 89.337968
_cell_angle_beta                  95.611749
_cell_angle_gamma                 92.127033
_cell_volume                      1390.56127694

loop_
_atom_site_label
_atom_site_type_symbol
_atom_type_description
_atom_site_fract_x
_atom_site_fract_y
_atom_site_fract_z
_atom_type_partial_charge
C1    C     C_R   0.496961 0.265620 0.500931 0.862215
C2    C     C_R   0.026342 0.547629 0.538703 0.063729
C3    C     C_R   0.973139 0.456002 0.455455 0.031768
C4    C     C_R   0.865357 0.438899 0.454954 -0.044429
C5    C     C_R   0.865162 0.602635 0.623937 -0.074512
C6    C     C_R   0.971642 0.617872 0.623544 -0.127733
C7    C     C_2   0.473684 0.935547 0.391239 0.448119
C8    C     C_2   0.511288 0.865918 0.497035 -0.276020
C9    C     C_2   0.494316 0.067085 0.395204 -0.310505
C10   C     C_2   0.479616 0.134171 0.504811 0.207651
C11   C     C_2   0.433947 0.437341 0.915189 0.467502
C12   C     C_R   0.301223 0.496593 0.474939 0.893553
C13   C     C_2   0.450266 0.420075 0.068243 0.435001
C14   C     C_R   0.500069 0.734198 0.498837 0.908874
C15   C     C_R   0.698740 0.504218 0.525197 0.844272
C16   C     C_R   0.811412 0.513960 0.537604 -0.162154
C17   C     C_R   0.188748 0.485934 0.462706 -0.163098
C18   C     C_R   0.029307 0.380372 0.378040 -0.162825
C19   C     C_R   0.136019 0.392133 0.383620 -0.104252
C20   C     C_R   0.133741 0.565621 0.537774 0.337249
Cu1   Cu    Cu3+1 0.500020 0.500020 0.638640 1.124381
Cu2   Cu    Cu3+1 0.499980 0.499980 0.361360 1.146678
H1    H     H_    0.569721 0.520278 0.897960 0.218036
H2    H     H_    0.991644 0.305827 0.318778 0.196318
H3    H     H_    0.010973 0.687037 0.689429 0.226653
H4    H     H_    0.555933 0.907495 0.585001 0.169081
H5    H     H_    0.519489 0.110049 0.303103 0.212028
N1    N     N_2   0.498860 0.498660 0.846770 -0.306700
N2    N     N_2   0.498840 0.498630 0.152900 -0.072053
O1    O     O_R   0.500020 0.321960 0.617050 -0.528483
O2    O     O_R   0.499980 0.321920 0.382890 -0.573611
O3    O     O_R   0.349010 0.500000 0.598060 -0.502214
O4    O     O_R   0.348980 0.499950 0.363910 -0.560773
O5    O     O_R   0.500020 0.678080 0.617110 -0.537681
O6    O     O_R   0.499980 0.678040 0.382950 -0.501403
O7    O     O_R   0.651020 0.500050 0.636090 -0.577957
O8    O     O_R   0.650990 0.500000 0.401940 -0.558712
C21   C     C_2   0.808315 0.340531 0.371735 0.862179
O9    O     O_2   0.808553 0.341028 0.246809 -0.544678
O10   O     O_R   0.751858 0.250015 0.436825 -0.763660
H6    H     H_    0.715387 0.189150 0.369722 0.337170
Cl1   Cl    Cl    0.421856 0.073093 0.649004 -0.428425
Cl2   Cl    Cl    0.327398 0.357824 0.828122 -0.379562
Cl3   Cl    Cl    0.396477 0.283546 0.130055 -0.491339
Cl4   Cl    Cl    0.523325 0.646408 0.094543 -0.417181
C22   C     C_2   0.812940 0.685816 0.711289 0.900208
O11   O     O_2   0.851121 0.708656 0.827750 -0.524782
O12   O     O_R   0.722854 0.742077 0.659272 -0.774307
H7    H     H_    0.695700 0.797374 0.728791 0.351453
C23   C     C_2   0.189341 0.295893 0.317100 0.949587
O13   O     O_2   0.160283 0.265677 0.199311 -0.481777
O14   O     O_R   0.267029 0.232918 0.392778 -0.730410
H8    H     H_    0.289744 0.160781 0.340843 0.379831
Cl5   Cl    Cl    0.200136 0.689878 0.627347 -0.494070
Cl6   Cl    Cl    0.398219 0.877874 0.245066 -0.398230

loop_
_geom_bond_atom_site_label_1
_geom_bond_atom_site_label_2
_ccdc_geom_bond_type
C12   C17   S    
C4    C16   A    
C23   O14   S    
C11   Cl2   S    
Cu2   N2    S    
C10   Cl1   S    
C8    H4    S    
Cu1   O1    S    
C7    Cl6   S    
C2    C3    A    
C7    C8    D    
Cu1   O7    S    
H1    N1    S    
C12   O3    A    
C21   O10   S    
Cu2   O6    S    
C11   C13   S    
C19   C23   S    
C2    C6    A    
C14   O5    A    
C11   N1    D    
C18   H2    S    
C9    C10   D    
C13   N2    D    
O12   H7    S    
C17   C19   A    
Cu1   N1    S    
C4    C21   S    
C23   O13   D    
C1    O1    A    
C5    C6    A    
Cu1   O3    S    
C22   O12   S    
C6    H3    S    
Cu2   O2    S    
C2    C20   A    
C15   C16   S    
C15   O7    A    
C1    O2    A    
C17   C20   A    
C21   O9    D    
O14   H8    S    
C9    H5    S    
C3    C18   A    
C20   Cl5   S    
C18   C19   A    
C5    C22   S    
C14   O6    A    
C7    C9    S    
Cu2   O4    S    
C22   O11   D    
O10   H6    S    
C5    C16   A    
C8    C14   S    
Cu1   O5    S    
C12   O4    A    
Cu1   Cu2   S    
Cu2   O8    S    
C13   Cl3   S    
C15   O8    A    
C1    C10   S    
C3    C4    A    
N2    Cl4   S    
