data_mof_unit_2853.cif
_audit_creation_date              2013-03-05T15:46:54-0500
_audit_creation_method            fapswitch 2.2
_symmetry_space_group_name_H-M    P1
_symmetry_Int_Tables_number       1
_space_group_crystal_system       triclinic
_cell_length_a                    18.431422
_cell_length_b                    18.26563
_cell_length_c                    18.287567
_cell_angle_alpha                 90.04345
_cell_angle_beta                  119.939674
_cell_angle_gamma                 120.291178
_cell_volume                      4336.51210895

loop_
_atom_site_label
_atom_site_type_symbol
_atom_site_description
_atom_site_fract_x
_atom_site_fract_y
_atom_site_fract_z
_atom_type_partial_charge
Zn1   Zn    Zn3+2 0.086760 0.130530 0.543760 1.038441
Zn2   Zn    Zn3+2 0.086760 0.956230 0.542990 1.034067
Zn3   Zn    Zn3+2 0.913250 0.956230 0.369490 0.956408
Zn4   Zn    Zn3+2 0.913230 0.957020 0.543760 1.035076
O1    O     O_3   0.000000 0.000000 0.500000 -0.509255
O2    O     O_R   0.939250 0.884470 0.616070 -0.599860
O3    O     O_R   0.060740 0.176800 0.445190 -0.661276
O4    O     O_R   0.231610 0.054800 0.615530 -0.620490
O5    O     O_R   0.768390 0.883920 0.323210 -0.662878
O6    O     O_R   0.060730 0.883140 0.443890 -0.658296
O7    O     O_R   0.939260 0.056140 0.616830 -0.616949
O8    O     O_R   0.939300 0.883140 0.322450 -0.643017
O9    O     O_R   0.060710 0.177580 0.616830 -0.637185
O10   O     O_R   0.231620 0.176800 0.616070 -0.600798
O11   O     O_R   0.768380 0.884480 0.445190 -0.643141
O12   O     O_R   0.060710 0.883920 0.615530 -0.619662
O13   O     O_R   0.939300 0.054810 0.323210 -0.612514
C1    C     C_R   0.000828 0.861193 0.640871 0.868775
C2    C     C_R   0.998090 0.140056 0.359925 0.843039
C3    C     C_R   0.279787 0.140545 0.639311 0.916339
C4    C     C_R   0.720085 0.860353 0.359935 0.838287
C5    C     C_R   0.999844 0.859319 0.359032 0.861931
C6    C     C_R   0.000821 0.141842 0.641340 0.858172
C7    C     C_3   0.894530 0.184562 0.644895 -0.524732
H1    H     H_    0.831132 0.111801 0.607655 0.191240
H2    H     H_    0.886653 0.214884 0.591015 0.183544
C8    C     C_3   0.882888 0.227291 0.709052 0.748762
H3    H     H_    0.968999 0.110281 0.773470 0.247158
H4    H     H_    0.990982 0.206862 0.876222 0.239043
C9    C     C_3   0.028132 0.181259 0.787000 -0.318967
C10   C     C_3   0.082363 0.301819 0.720828 -0.446515
C11   C     C_3   0.001290 0.200795 0.697528 0.031206
H5    H     H_    0.161071 0.317678 0.762360 0.204833
H6    H     H_    0.071592 0.317604 0.658889 0.215728
C12   C     C_3   0.995665 0.299047 0.797013 -0.059763
C13   C     C_3   0.035501 0.245839 0.849301 -0.576011
C14   C     C_3   0.074038 0.359985 0.773341 0.141069
H7    H     H_    0.151860 0.404864 0.837906 0.121664
H8    H     H_    0.103010 0.189859 0.821769 0.211690
H9    H     H_    0.116996 0.293344 0.908311 0.182739
C15   C     C_R   0.989783 0.290455 0.398889 -0.144892
H10   H     H_    0.982370 0.247509 0.438982 0.142512
C16   C     C_R   0.991732 0.364945 0.420027 -0.120820
H11   H     H_    0.989868 0.379085 0.476348 0.174876
C17   C     C_R   0.993560 0.419904 0.367683 -0.143474
H12   H     H_    0.994072 0.477200 0.383905 0.157026
C18   C     C_R   0.992115 0.400071 0.293205 -0.154495
H13   H     H_    0.987535 0.442120 0.252198 0.147758
C19   C     C_R   0.993440 0.326367 0.271791 0.100294
C20   C     C_R   0.993200 0.271042 0.325995 0.028083
C21   C     C_R   0.991155 0.195410 0.303014 -0.179330
C22   C     C_R   0.977557 0.169424 0.222150 0.464933
H14   H     H_    0.979307 0.209761 0.112933 0.168185
C23   C     C_R   0.981746 0.226122 0.171452 -0.332278
C24   C     C_R   0.991338 0.304271 0.196098 -0.125331
C25   C     C_R   0.610311 0.929089 0.366468 -0.220843
H15   H     H_    0.693554 0.973728 0.408456 0.148449
C26   C     C_R   0.557666 0.961648 0.369927 -0.237680
H16   H     H_    0.600657 0.028936 0.414174 0.142229
C27   C     C_R   0.450200 0.908262 0.315743 0.554859
C28   C     C_R   0.395538 0.822715 0.256519 -0.194410
H17   H     H_    0.312506 0.784694 0.212979 0.188956
C29   C     C_R   0.447034 0.787286 0.253838 0.024761
C30   C     C_R   0.556105 0.841481 0.308944 0.029446
C31   C     C_R   0.607905 0.807284 0.303622 -0.143799
C32   C     C_R   0.552253 0.721319 0.243486 0.455222
H18   H     H_    0.402472 0.600415 0.146964 0.154189
C33   C     C_R   0.444947 0.668098 0.190514 -0.299798
C34   C     C_R   0.392280 0.699867 0.195846 -0.088940
H19   H     H_    0.874499 0.689048 0.592552 0.169416
C35   C     C_R   0.158832 0.948534 0.839181 0.333743
C36   C     C_R   0.234445 0.985669 0.931187 -0.242907
H20   H     H_    0.292191 0.057848 0.962509 0.194234
C37   C     C_R   0.235918 0.931804 0.983960 -0.254935
H21   H     H_    0.295243 0.962822 0.055492 0.193242
C38   C     C_R   0.161559 0.838979 0.946727 0.356839
C39   C     C_R   0.083413 0.797031 0.851965 -0.101321
C40   C     C_R   0.082711 0.853124 0.797283 -0.048587
C41   C     C_R   0.006244 0.811429 0.703051 -0.097113
C42   C     C_R   0.931732 0.718825 0.664601 -0.253101
C43   C     C_R   0.931090 0.663240 0.716140 0.316862
C44   C     C_R   0.006462 0.701715 0.809618 -0.187526
C45   C     C_R   0.907775 0.671866 0.343341 -0.157221
H22   H     H_    0.907053 0.711757 0.386406 0.120938
C46   C     C_R   0.861062 0.580726 0.333550 -0.113394
H23   H     H_    0.826338 0.552452 0.368828 0.153649
C47   C     C_R   0.858148 0.525856 0.277822 -0.151518
H24   H     H_    0.820925 0.454943 0.269660 0.142424
C48   C     C_R   0.903177 0.562098 0.232576 -0.166438
H25   H     H_    0.898862 0.517188 0.189498 0.108383
C49   C     C_R   0.951037 0.654330 0.241805 0.085670
C50   C     C_R   0.952411 0.709694 0.296852 0.017701
C51   C     C_R   0.996798 0.801054 0.302731 -0.155934
C52   C     C_R   0.038154 0.838099 0.254351 0.465581
H26   H     H_    0.070348 0.807129 0.164140 0.184404
C53   C     C_R   0.036755 0.781946 0.200680 -0.336353
C54   C     C_R   0.995699 0.692432 0.195925 -0.126360
C55   C     C_R   0.384948 0.096683 0.593326 -0.184753
H27   H     H_    0.305015 0.065649 0.539852 0.168815
C56   C     C_R   0.430611 0.059771 0.583809 -0.273544
H28   H     H_    0.384491 0.000195 0.527393 0.142648
C57   C     C_R   0.534729 0.098736 0.647350 0.511922
C58   C     C_R   0.594960 0.182306 0.713103 -0.241924
H29   H     H_    0.676444 0.216364 0.752205 0.231725
C59   C     C_R   0.549399 0.218698 0.727727 0.027096
C60   C     C_R   0.441145 0.170656 0.670183 0.056529
C61   C     C_R   0.391580 0.197744 0.690095 -0.204346
C62   C     C_R   0.449659 0.278375 0.760073 0.311060
H30   H     H_    0.600334 0.392470 0.863332 0.196344
C63   C     C_R   0.556306 0.330587 0.809725 -0.255744
C64   C     C_R   0.607082 0.301162 0.796669 -0.107393
Zn5   Zn    Zn3+2 0.913240 0.369500 0.956210 0.998372
Zn6   Zn    Zn3+2 0.086750 0.543800 0.130490 0.971541
Zn7   Zn    Zn3+2 0.913240 0.543800 0.956980 1.054595
Zn8   Zn    Zn3+2 0.086770 0.543010 0.956210 1.107644
O14   O     O_3   1.000000 0.500030 0.999970 -0.512338
O15   O     O_R   0.231620 0.615550 0.054780 -0.599717
O16   O     O_R   0.768380 0.323230 0.883900 -0.651899
O17   O     O_R   0.060700 0.445220 0.176760 -0.651478
O18   O     O_R   0.939290 0.616110 0.884440 -0.613676
O19   O     O_R   0.060700 0.616880 0.177520 -0.659153
O20   O     O_R   0.060740 0.443890 0.883140 -0.618447
O21   O     O_R   0.939270 0.616890 0.056080 -0.613177
O22   O     O_R   0.939290 0.322450 0.883140 -0.599653
O23   O     O_R   0.939260 0.323230 0.054780 -0.644081
O24   O     O_R   0.060750 0.615550 0.883900 -0.566735
O25   O     O_R   0.231610 0.616100 0.176760 -0.654757
O26   O     O_R   0.768390 0.445230 0.884440 -0.632189
C65   C     C_R   0.280012 0.640107 0.140009 0.848030
C66   C     C_R   0.719761 0.359092 0.857026 0.815717
C67   C     C_R   0.997317 0.360112 0.139995 0.806275
C68   C     C_R   0.001277 0.640969 0.861220 0.956016
C69   C     C_R   0.999365 0.640046 0.140770 0.848286
C70   C     C_R   0.998045 0.358025 0.856885 0.839537
O27   O     O_3   0.966645 0.090862 0.196446 -0.627574
C71   C     C_3   0.874831 0.034450 0.109373 0.088581
H31   H     H_    0.890451 0.053745 0.058509 0.144560
H32   H     H_    0.811368 0.038707 0.096795 0.137497
C72   C     C_3   0.837762 0.936513 0.098098 -0.300725
H33   H     H_    0.898553 0.929618 0.109037 0.220166
H34   H     H_    0.822063 0.916208 0.148692 0.248350
C73   C     C_3   0.739920 0.873833 0.004287 -0.974243
H35   H     H_    0.676155 0.875964 0.993398 0.267723
H36   H     H_    0.716593 0.803647 0.996441 0.277016
H37   H     H_    0.753507 0.893981 0.952600 0.277036
O28   O     O_3   0.603049 0.684686 0.246163 -0.645749
C74   C     C_3   0.607517 0.685801 0.171317 0.083271
H38   H     H_    0.637492 0.753877 0.164340 0.160271
H39   H     H_    0.529702 0.635459 0.108872 0.144925
C75   C     C_3   0.680297 0.661298 0.184738 -0.302845
H40   H     H_    0.755298 0.706618 0.250822 0.229022
H41   H     H_    0.647189 0.590838 0.184675 0.230846
C76   C     C_3   0.699003 0.670677 0.111856 -0.915943
H42   H     H_    0.624854 0.629255 0.044448 0.277460
H43   H     H_    0.747466 0.647561 0.121248 0.274473
H44   H     H_    0.740294 0.742331 0.116445 0.264193
O29   O     O_3   0.397868 0.942304 0.314734 -0.650353
C77   C     C_3   0.378950 0.925078 0.381000 0.008525
H45   H     H_    0.359059 0.970265 0.391664 0.181103
H46   H     H_    0.448693 0.942508 0.446828 0.151587
C78   C     C_3   0.287722 0.826934 0.349710 -0.359335
H47   H     H_    0.224626 0.807464 0.279110 0.248707
H48   H     H_    0.311901 0.781615 0.352911 0.221633
C79   C     C_3   0.247398 0.813283 0.407436 -0.901120
H49   H     H_    0.308117 0.828445 0.477562 0.248903
H50   H     H_    0.180678 0.742047 0.381397 0.280697
H51   H     H_    0.221892 0.857214 0.405800 0.266979
N1    N     N_R   0.160583 0.010314 0.791035 0.180356
O30   O     O_R   0.103683 0.038175 0.776679 -0.422363
O31   O     O_R   0.237179 0.056128 0.784290 -0.373966
N2    N     N_R   0.169209 0.789869 0.007678 0.165993
O32   O     O_R   0.121782 0.777478 0.045356 -0.461978
O33   O     O_R   0.244297 0.781073 0.043617 -0.418550
O34   O     O_3   0.838666 0.273791 0.668483 -0.634183
C80   C     C_3   0.733143 0.216074 0.595980 0.139616
H52   H     H_    0.687276 0.209336 0.621063 0.202074
H53   H     H_    0.707661 0.147604 0.565535 0.130740
C81   C     C_3   0.711496 0.259180 0.523342 -0.316559
H54   H     H_    0.742389 0.329670 0.553917 0.294999
H55   H     H_    0.750976 0.260537 0.492624 0.226801
C82   C     C_3   0.596092 0.207331 0.450579 -0.939360
H56   H     H_    0.563059 0.136758 0.418170 0.276267
H57   H     H_    0.583032 0.239971 0.398650 0.279147
H58   H     H_    0.555682 0.207219 0.479761 0.273207
N3    N     N_R   0.853501 0.567398 0.672000 0.194796
O35   O     O_R   0.762285 0.536686 0.601093 -0.387672
O36   O     O_R   0.876911 0.510940 0.694893 -0.385903
O37   O     O_3   0.087714 0.930836 0.270200 -0.653829
C83   C     C_3   0.095821 0.959207 0.200998 0.066238
H59   H     H_    0.086847 0.015119 0.196927 0.191727
H60   H     H_    0.032930 0.906611 0.133342 0.134762
C84   C     C_3   0.203187 0.996829 0.224478 -0.340802
H61   H     H_    0.261992 0.057180 0.286211 0.228547
H62   H     H_    0.220429 0.946421 0.238252 0.251807
C85   C     C_3   0.211658 0.022902 0.148460 -0.878998
H63   H     H_    0.155367 0.962820 0.086787 0.280233
H64   H     H_    0.290461 0.050799 0.167923 0.271948
H65   H     H_    0.196775 0.074835 0.134355 0.256730
N4    N     N_R   0.402187 0.306756 0.784158 0.216622
O38   O     O_R   0.439648 0.391746 0.807917 -0.389355
O39   O     O_R   0.333602 0.250868 0.797103 -0.343599
N5    N     N_R   0.818279 0.155733 0.731687 0.178559
O40   O     O_R   0.791473 0.073814 0.710265 -0.448193
O41   O     O_R   0.785266 0.173033 0.772593 -0.402112
O42   O     O_3   0.580971 0.060778 0.640879 -0.634807
C86   C     C_3   0.542372 0.976673 0.654897 0.133231
H66   H     H_    0.560304 0.939101 0.627120 0.184346
H67   H     H_    0.457237 0.933746 0.618475 0.103761
C87   C     C_3   0.593970 0.988993 0.755141 -0.303104
H68   H     H_    0.678314 0.025663 0.790136 0.283034
H69   H     H_    0.579931 0.028932 0.785263 0.217094
C88   C     C_3   0.552143 0.898369 0.769875 -0.945646
H70   H     H_    0.467902 0.860527 0.736861 0.275575
H71   H     H_    0.590703 0.909544 0.842803 0.268987
H72   H     H_    0.567390 0.857778 0.742300 0.276843
N6    N     N_R   0.050506 0.418337 0.725803 0.256434
O43   O     O_R   0.976859 0.386320 0.640787 -0.387403
O44   O     O_R   0.114241 0.505319 0.765145 -0.338844

loop_
_geom_bond_atom_site_label_1
_geom_bond_atom_site_label_2
_geom_bond_distance
_ccdc_geom_bond_type
C32   C33   1.393441 A    
C47   H24   1.082475 S    
O29   C77   1.414506 S    
C83   C84   1.533679 S    
C8    N5    1.490133 S    
C72   H34   1.112132 S    
C15   H10   1.079037 S    
C12   C13   1.555144 S    
C7    C8    1.565449 S    
C54   C69   1.438513 S    
N2    O32   1.300769 A    
O25   C65   1.282242 A    
C81   H54   1.111831 S    
O27   C71   1.417663 S    
C80   H53   1.113590 S    
C82   H56   1.109302 S    
O6    C5    1.274756 A    
C45   C50   1.415164 A    
N2    O33   1.299876 A    
H4    C13   1.112205 S    
O9    C6    1.270000 A    
O4    C3    1.281060 A    
Zn8   O24   1.935182 S    
N5    O41   1.295246 A    
O21   C69   1.272215 A    
Zn1   O1    1.937949 S    
C79   H49   1.108159 S    
C12   C14   1.586165 S    
C7    H2    1.112582 S    
Zn5   O22   1.951836 S    
C72   C73   1.527143 S    
C86   H67   1.111513 S    
N3    O36   1.301584 A    
C60   C61   1.414126 A    
C26   C27   1.395377 A    
Zn8   O14   1.956114 S    
O8    C5    1.275619 A    
C87   C88   1.525661 S    
C25   H15   1.081455 S    
C8    O34   1.425436 S    
C28   C29   1.409998 A    
O7    C6    1.279968 A    
C83   H60   1.113850 S    
C63   C64   1.397138 A    
O20   C70   1.281569 A    
Zn3   O8    1.951936 S    
C58   H29   1.067140 S    
C77   C78   1.538058 S    
C87   H69   1.111175 S    
O34   C80   1.416886 S    
C58   C59   1.416182 A    
C18   H13   1.078196 S    
C62   C63   1.387019 A    
C1    C41   1.452252 S    
Zn8   O15   1.938247 S    
C75   C76   1.524495 S    
O17   C67   1.271142 A    
C61   C62   1.411380 A    
C25   C30   1.414584 A    
C3    C61   1.454802 S    
C24   C67   1.451272 S    
C76   H43   1.110433 S    
Zn2   O12   1.932236 S    
C14   N6    1.473524 S    
C28   H17   1.081228 S    
C39   C40   1.432463 A    
C36   H20   1.083441 S    
C85   H65   1.110782 S    
N1    O31   1.300291 A    
C59   C64   1.425607 A    
N4    O38   1.301406 A    
Zn8   O20   1.942632 S    
Zn1   O3    1.934409 S    
C77   H46   1.115746 S    
C15   C16   1.392127 A    
C73   H37   1.111508 S    
C83   H59   1.110907 S    
C71   C72   1.528167 S    
C12   C70   1.504624 S    
C43   N3    1.442711 S    
C78   H48   1.110614 S    
C22   C23   1.389368 A    
C43   C44   1.410295 A    
C80   C81   1.527452 S    
C17   C18   1.392971 A    
O2    C1    1.283703 A    
C74   H39   1.113463 S    
N5    O40   1.302555 A    
O28   C74   1.411208 S    
C46   C47   1.391223 A    
C74   H38   1.115915 S    
C21   C22   1.408529 A    
C9    C11   1.555732 S    
C84   C85   1.525273 S    
C29   C34   1.412924 A    
C13   H9    1.113310 S    
C74   C75   1.528802 S    
C7    H1    1.110493 S    
C36   C37   1.379265 A    
C37   H21   1.083518 S    
C82   H57   1.110257 S    
C49   C50   1.408474 A    
C86   H66   1.110912 S    
C71   H31   1.112549 S    
C8    C12   1.592803 S    
C26   H16   1.081335 S    
C46   H23   1.082494 S    
H19   C42   1.085085 S    
C49   C54   1.406541 A    
C85   H63   1.111001 S    
O37   C83   1.415675 S    
Zn4   O7    1.942633 S    
C84   H62   1.108082 S    
C38   N2    1.427999 S    
C16   H11   1.082870 S    
C7    C11   1.551405 S    
C14   H7    1.115968 S    
O16   C66   1.275407 A    
O10   C3    1.274443 A    
Zn7   O26   1.934242 S    
O23   C67   1.278310 A    
C64   C66   1.464370 S    
Zn7   O14   1.962184 S    
C45   H22   1.081995 S    
C88   H72   1.110883 S    
O24   C68   1.284169 A    
N6    O43   1.301154 A    
C53   C54   1.392651 A    
C10   H5    1.114100 S    
C87   H68   1.109411 S    
C10   H6    1.113256 S    
Zn6   O19   1.951686 S    
C20   C21   1.420300 A    
C51   C52   1.405503 A    
Zn6   O17   1.929891 S    
C38   C39   1.434572 A    
C76   H44   1.109266 S    
C52   C53   1.400919 A    
Zn3   O5    1.942882 S    
C16   C17   1.387342 A    
Zn5   O23   1.934406 S    
C37   C38   1.392599 A    
Zn7   O21   1.944021 S    
Zn4   O2    1.935329 S    
N1    O30   1.300584 A    
C45   C46   1.394417 A    
C88   H71   1.110217 S    
C19   C20   1.416043 A    
O3    C2    1.278504 A    
C35   N1    1.429271 S    
C47   C48   1.394176 A    
C77   H45   1.109103 S    
C5    C51   1.440902 S    
C73   H36   1.109528 S    
C41   C42   1.390133 A    
C17   H12   1.081717 S    
Zn2   O1    1.962187 S    
C48   C49   1.413000 A    
C44   C68   1.454449 S    
Zn2   O6    1.944018 S    
C15   C20   1.418570 A    
Zn5   O14   1.937951 S    
C78   C79   1.524990 S    
O15   C65   1.278194 A    
O12   C1    1.286034 A    
C71   H32   1.118205 S    
C56   C57   1.390902 A    
C82   H58   1.111221 S    
C27   O29   1.380077 S    
O42   C86   1.418443 S    
C23   C24   1.391710 A    
C4    C31   1.458252 S    
O18   C68   1.285707 A    
C33   C34   1.396854 A    
C10   C11   1.549555 S    
Zn2   O4    1.934241 S    
C52   O37   1.400639 S    
C42   C43   1.385565 A    
Zn3   O1    1.946912 S    
O26   C66   1.287578 A    
C81   H55   1.111551 S    
C72   H33   1.109044 S    
H14   C23   1.083763 S    
Zn6   O25   1.942929 S    
H18   C33   1.084130 S    
O22   C70   1.278720 A    
C18   C19   1.417136 A    
C59   C60   1.412446 A    
C55   C56   1.382631 A    
C55   C60   1.416382 A    
C9    C13   1.545909 S    
C6    C11   1.481725 S    
Zn6   O14   1.947062 S    
Zn4   O11   1.938249 S    
H3    C9    1.111223 S    
C48   H25   1.081918 S    
C35   C36   1.391906 A    
C31   C32   1.404896 A    
C80   H52   1.105664 S    
C19   C24   1.417874 A    
H30   C63   1.084500 S    
C84   H61   1.111689 S    
Zn5   O16   1.946637 S    
C40   C41   1.423710 A    
C86   C87   1.535901 S    
O5    C4    1.280519 A    
N3    O35   1.301567 A    
O11   C4    1.278793 A    
C78   H47   1.108689 S    
C39   C44   1.432838 A    
C62   N4    1.438840 S    
C2    C21   1.456358 S    
C30   C31   1.416131 A    
C79   H50   1.110153 S    
C50   C51   1.414320 A    
O13   C2    1.272631 A    
C25   C26   1.393734 A    
C9    H8    1.113055 S    
Zn3   O13   1.929995 S    
C75   H41   1.111652 S    
C79   H51   1.110105 S    
C57   C58   1.401319 A    
C57   O42   1.384849 S    
C32   O28   1.383102 S    
C81   C82   1.527315 S    
C29   C30   1.416219 A    
C10   C14   1.544193 S    
Zn4   O1    1.956114 S    
Zn1   O9    1.951834 S    
C88   H70   1.110888 S    
C34   C65   1.458308 S    
C55   H27   1.080168 S    
H26   C53   1.080559 S    
N4    O39   1.301314 A    
C22   O27   1.390709 S    
C73   H35   1.111301 S    
C27   C28   1.396359 A    
C56   H28   1.077470 S    
Zn1   O10   1.946639 S    
O19   C69   1.278013 A    
C76   H42   1.110701 S    
C35   C40   1.432129 A    
Zn7   O18   1.932233 S    
N6    O44   1.301420 A    
C75   H40   1.110513 S    
C85   H64   1.110418 S    
