data_mof_unit_176.cif
_audit_creation_date              2012-10-26T21:17:59-0400
_audit_creation_method            fapswitch 2.2
_symmetry_space_group_name_H-M    P1
_symmetry_Int_Tables_number       1
_space_group_crystal_system       triclinic
_cell_length_a                    14.724793
_cell_length_b                    14.747853
_cell_length_c                    27.742426
_cell_angle_alpha                 76.764777
_cell_angle_beta                  102.70524
_cell_angle_gamma                 115.511209
_cell_volume                      5241.998666

loop_
_atom_site_label
_atom_site_type_symbol
_atom_type_description
_atom_site_fract_x
_atom_site_fract_y
_atom_site_fract_z
_atom_type_partial_charge
C1    C     C_R   0.880056 0.312144 0.507715 0.558493
C2    C     C_R   0.983045 0.393171 0.136910 -0.006432
C3    C     C_R   0.989947 0.489739 0.645206 -0.064804
C4    C     C_R   0.001542 0.495457 0.354469 -0.073304
C5    C     C_R   0.966795 0.386835 0.034266 0.048747
C6    C     C_R   0.994191 0.567135 0.964592 0.048323
C7    C     C_R   0.019111 0.572542 0.016677 0.034893
C8    C     C_R   0.944656 0.382124 0.981869 0.035691
C9    C     C_R   0.996850 0.481092 0.051023 -0.092869
C10   C     C_R   0.966700 0.473955 0.947661 -0.092241
C11   C     C_R   0.970427 0.302769 0.070590 0.292689
C12   C     C_R   0.119901 0.687808 0.491437 0.558313
C13   C     C_R   0.985632 0.649542 0.928864 0.283197
C14   C     C_R   0.973018 0.304074 0.121646 0.282742
C15   C     C_R   0.987483 0.651915 0.877973 0.273964
C16   C     C_R   0.998045 0.497933 0.592349 0.569097
C17   C     C_R   0.000361 0.499235 0.407442 0.580482
C18   C     C_R   0.891491 0.288406 0.962473 0.343733
C19   C     C_R   0.074502 0.666875 0.035277 0.344972
C20   C     C_R   0.812370 0.203553 0.514483 -0.005513
C21   C     C_R   0.187025 0.795855 0.491093 -0.010604
C22   C     C_R   0.783006 0.028391 0.551002 0.262686
C23   C     C_R   0.956961 0.472305 0.895920 -0.139445
C24   C     C_R   0.217653 0.963734 0.505893 0.258278
C25   C     C_R   0.848175 0.131835 0.543588 -0.215706
C26   C     C_R   0.151932 0.862301 0.501775 -0.217534
C27   C     C_R   0.710982 0.171510 0.492462 0.281800
C28   C     C_R   0.288045 0.831164 0.483490 0.277776
C29   C     C_R   0.639915 0.074534 0.510247 -0.070277
C30   C     C_R   0.359274 0.924931 0.498198 -0.076816
C31   C     C_R   0.677251 0.998749 0.534143 0.038889
C32   C     C_R   0.322873 0.995735 0.504197 0.041429
C33   C     C_R   0.534076 0.051426 0.505450 -0.062539
C34   C     C_R   0.007393 0.484108 0.102639 -0.144896
C35   C     C_R   0.465203 0.948172 0.509247 -0.075015
C36   C     C_R   0.502941 0.870926 0.529009 0.245480
C37   C     C_R   0.495605 0.126668 0.503050 0.248633
C38   C     C_R   0.608453 0.896065 0.540952 0.277594
C39   C     C_R   0.392872 0.095594 0.509455 0.264541
C40   C     C_R   0.933820 0.382605 0.828000 0.488165
C41   C     C_R   0.047109 0.576715 0.171691 0.450871
C42   C     C_R   0.687581 0.612537 0.399278 0.226356
C43   C     C_R   0.292497 0.347313 0.591020 0.241820
C44   C     C_R   0.778159 0.600952 0.418865 0.029106
C45   C     C_R   0.928415 0.379895 0.878545 0.013886
C46   C     C_R   0.206820 0.369921 0.573988 0.030490
C47   C     C_R   0.727989 0.539487 0.499580 0.373718
C48   C     C_R   0.283982 0.487865 0.505655 0.386681
C49   C     C_R   0.627752 0.535008 0.480480 -0.053184
C50   C     C_R   0.370347 0.462047 0.518686 -0.035490
C51   C     C_R   0.609762 0.574379 0.429317 0.004452
C52   C     C_R   0.376293 0.396465 0.564257 0.030623
C53   C     C_R   0.544329 0.489376 0.509226 0.011604
C54   C     C_R   0.450469 0.498921 0.488599 0.018465
C55   C     C_R   0.435762 0.535158 0.437147 -0.157291
C56   C     C_R   0.044431 0.577786 0.120300 0.006784
C57   C     C_R   0.547206 0.424854 0.555262 -0.157939
C58   C     C_R   0.513778 0.572714 0.408323 -0.121213
C59   C     C_R   0.464788 0.378887 0.581857 -0.123549
C60   C     C_R   0.973403 0.560351 0.810824 0.428756
C61   C     C_R   0.976652 0.395715 0.186387 0.436209
C62   C     C_R   0.066612 0.522784 0.730217 0.283955
C63   C     C_R   0.064218 0.449496 0.292911 0.271502
C64   C     C_R   0.076877 0.532860 0.679685 0.209404
C65   C     C_R   0.057472 0.447102 0.342904 0.200447
C66   C     C_R   0.893486 0.437528 0.661422 0.204124
C67   C     C_R   0.889455 0.287694 0.911125 0.229156
C68   C     C_R   0.948234 0.540500 0.314827 0.200579
C69   C     C_R   0.882838 0.435350 0.710734 0.266365
C70   C     C_R   0.944511 0.530218 0.265255 0.268541
C71   C     C_R   0.969507 0.475179 0.745320 0.163946
C72   C     C_R   0.005159 0.487919 0.254065 0.146608
C73   C     C_3   0.794393 0.290277 0.630680 -0.063618
C74   C     C_3   0.963102 0.697498 0.319455 -0.079527
C75   C     C_3   0.419485 0.755206 0.590991 -0.100302
C76   C     C_3   0.529542 0.286747 0.458637 -0.059795
C77   C     C_3   0.714332 0.757693 0.344169 -0.117392
C78   C     C_R   0.084126 0.668988 0.087009 0.232818
C79   C     C_3   0.236773 0.181276 0.626281 -0.114764
C80   C     C_3   0.740085 0.456102 0.712968 -0.072826
C81   C     C_3   0.789689 0.492097 0.218742 -0.080087
C82   C     C_3   0.049730 0.298532 0.391551 -0.061083
C83   C     C_3   0.183188 0.680573 0.638123 -0.128215
C84   C     C_3   0.223054 0.484845 0.279491 -0.095865
C85   C     C_3   0.202879 0.658393 0.760791 -0.057604
C86   C     C_3   0.071004 0.232307 0.177290 -0.091937
C87   C     C_3   0.095624 0.809099 0.847498 -0.082685
C88   C     C_3   0.823205 0.111583 0.989012 -0.030647
C89   C     C_R   0.974426 0.562959 0.861394 0.012335
C90   C     C_3   0.130952 0.842388 0.006672 -0.034561
Cu1   Cu    Cu3+1 0.081740 0.475690 0.513040 1.040574
Cu2   Cu    Cu3+1 0.918260 0.524310 0.486960 1.047241
H1    H     H_    0.073019 0.835374 0.506705 0.130014
H2    H     H_    0.861221 0.286092 0.620321 0.092030
H3    H     H_    0.727648 0.254475 0.603257 0.162989
H4    H     H_    0.987313 0.727362 0.281633 0.172138
H5    H     H_    0.030737 0.711336 0.348770 0.110084
H6    H     H_    0.921734 0.741175 0.324780 0.126311
H7    H     H_    0.376721 0.821462 0.444128 0.326237
H8    H     H_    0.626091 0.185058 0.429583 0.318346
H9    H     H_    0.895420 0.990965 0.585672 0.312444
H10   H     H_    0.106101 0.995668 0.513128 0.311238
H11   H     H_    0.389152 0.808774 0.596572 0.099876
H12   H     H_    0.927443 0.155909 0.559688 0.116116
H13   H     H_    0.489937 0.762329 0.617607 0.141205
H14   H     H_    0.361990 0.676785 0.599628 0.177150
H15   H     H_    0.597048 0.355745 0.448214 0.179602
H16   H     H_    0.473795 0.312106 0.465915 0.149270
H17   H     H_    0.497220 0.246021 0.425550 0.106412
H18   H     H_    0.350510 0.621636 0.470602 0.345186
H19   H     H_    0.731723 0.564804 0.565110 0.306818
H20   H     H_    0.797918 0.788109 0.356122 0.102862
H21   H     H_    0.677421 0.784758 0.365477 0.122645
H22   H     H_    0.701097 0.788792 0.304136 0.160753
H23   H     H_    0.497757 0.599196 0.368912 0.162958
H24   H     H_    0.262509 0.162803 0.596324 0.183419
H25   H     H_    0.154820 0.167134 0.616750 0.107435
H26   H     H_    0.245228 0.128740 0.660956 0.152352
H27   H     H_    0.726068 0.476840 0.671674 0.152290
H28   H     H_    0.784979 0.525730 0.730767 0.149475
H29   H     H_    0.665168 0.418690 0.726680 0.152793
H30   H     H_    0.750557 0.466144 0.252518 0.151805
H31   H     H_    0.792901 0.426594 0.206750 0.127314
H32   H     H_    0.743504 0.523142 0.188107 0.147565
H33   H     H_    0.889943 0.172509 0.892150 0.331103
H34   H     H_    0.470398 0.327861 0.616256 0.170065
H35   H     H_    0.090060 0.781385 0.111720 0.337475
H36   H     H_    0.030913 0.258656 0.358855 0.157504
H37   H     H_    0.978884 0.287058 0.404812 0.106645
H38   H     H_    0.092221 0.263284 0.422272 0.153031
H39   H     H_    0.260692 0.735987 0.649541 0.110692
H40   H     H_    0.129110 0.709489 0.644932 0.092856
H41   H     H_    0.175103 0.679903 0.597550 0.141591
H42   H     H_    0.258117 0.512736 0.316005 0.147191
H43   H     H_    0.222829 0.549285 0.249368 0.138484
H44   H     H_    0.271287 0.452216 0.270332 0.134217
H45   H     H_    0.142882 0.334473 0.594813 0.141185
H46   H     H_    0.271091 0.681910 0.742497 0.155718
H47   H     H_    0.229606 0.681342 0.798508 0.129313
H48   H     H_    0.155701 0.700763 0.739705 0.128502
H49   H     H_    0.068779 0.162838 0.203868 0.154943
H50   H     H_    0.108776 0.297476 0.198587 0.162527
H51   H     H_    0.117202 0.242542 0.148104 0.106929
H52   H     H_    0.101203 0.877044 0.819017 0.154475
H53   H     H_    0.145847 0.777081 0.839477 0.124157
H54   H     H_    0.123020 0.834703 0.884744 0.128389
H55   H     H_    0.977008 0.169129 0.083723 0.351244
H56   H     H_    0.835000 0.624445 0.394880 0.187572
H57   H     H_    0.947883 0.766246 0.914312 0.354194
H58   H     H_    0.897008 0.116808 0.981889 0.128360
H59   H     H_    0.759779 0.072988 0.960847 0.171884
H60   H     H_    0.807772 0.062563 0.025643 0.144965
H61   H     H_    0.197531 0.886307 0.031961 0.171381
H62   H     H_    0.058647 0.832507 0.017869 0.135850
H63   H     H_    0.136718 0.888911 0.969011 0.130166
H64   H     H_    0.590962 0.753305 0.555081 0.348025
H65   H     H_    0.418841 0.212316 0.539331 0.335455
H66   H     H_    0.362035 0.529631 0.417524 0.175746
H67   H     H_    0.609550 0.401886 0.569796 0.200734
H68   H     H_    0.778599 0.245774 0.668351 0.159051
N1    N     N_R   0.958850 0.472413 0.795977 -0.365419
N2    N     N_R   0.008846 0.486622 0.202774 -0.381279
N3    N     N_R   0.795430 0.560780 0.467350 -0.243754
N4    N     N_R   0.204570 0.439220 0.532650 -0.238670
O1    O     O_R   0.977900 0.338120 0.517190 -0.550868
O2    O     O_2   0.086879 0.664393 0.190754 -0.452408
O3    O     O_2   0.937272 0.308236 0.217746 -0.428769
O4    O     O_2   0.986642 0.644524 0.776464 -0.481570
O5    O     O_3   0.808148 0.391737 0.628551 -0.511363
O6    O     O_3   0.897526 0.593418 0.323964 -0.532596
O7    O     O_3   0.313061 0.776272 0.458351 -0.636405
O8    O     O_3   0.687180 0.229998 0.449303 -0.664292
O9    O     O_3   0.820659 0.957124 0.577034 -0.614245
O10   O     O_3   0.180630 0.030702 0.513019 -0.645288
O11   O     O_3   0.436746 0.770879 0.541153 -0.557279
O12   O     O_R   0.022100 0.661880 0.482810 -0.540728
O13   O     O_3   0.560505 0.228491 0.501965 -0.552660
O14   O     O_3   0.280953 0.567394 0.469139 -0.603547
O15   O     O_3   0.762443 0.532000 0.549867 -0.626477
O16   O     O_3   0.671642 0.650729 0.349257 -0.564854
O17   O     O_3   0.296635 0.281967 0.635247 -0.571781
O18   O     O_3   0.788004 0.387476 0.726294 -0.516609
O19   O     O_3   0.887380 0.569455 0.227112 -0.518858
O20   O     O_3   0.837790 0.198620 0.891549 -0.655657
O21   O     O_3   0.140407 0.759122 0.105254 -0.663063
O22   O     O_3   0.111657 0.402685 0.380206 -0.519718
O23   O     O_R   0.839850 0.379180 0.495160 -0.418746
O24   O     O_3   0.172472 0.583249 0.664914 -0.530814
O25   O     O_3   0.124419 0.408235 0.282111 -0.530523
O26   O     O_3   0.150807 0.551503 0.766482 -0.521412
O27   O     O_3   0.970330 0.219339 0.156521 -0.532768
O28   O     O_3   0.993357 0.738636 0.844116 -0.531051
O29   O     O_3   0.984795 0.226761 0.056122 -0.708543
O30   O     O_3   0.964197 0.720629 0.943796 -0.703919
O31   O     O_3   0.824347 0.206812 0.991475 -0.520081
O32   O     O_3   0.135177 0.749567 0.004080 -0.534867
O33   O     O_3   0.645594 0.821163 0.559179 -0.626636
O34   O     O_R   0.160150 0.620820 0.504840 -0.403615
O35   O     O_3   0.360507 0.162136 0.520934 -0.654498
O36   O     O_R   0.069030 0.479490 0.580750 -0.503546
O37   O     O_R   0.930970 0.520510 0.419250 -0.490113
O38   O     O_R   0.930970 0.520550 0.558720 -0.408979
O39   O     O_R   0.069030 0.479450 0.441280 -0.411091
O40   O     O_2   0.916223 0.297059 0.810978 -0.429847

loop_
_geom_bond_atom_site_label_1
_geom_bond_atom_site_label_2
_ccdc_geom_bond_type
H19   O15   S    
C15   O28   S    
C63   C65   A    
C84   H43   S    
C34   C56   A    
C23   C45   A    
C87   H54   S    
C27   C29   A    
C66   O5    S    
H9    O9    S    
H64   O33   S    
C21   C26   A    
C24   O10   S    
C80   H28   S    
Cu2   O23   S    
C47   C49   A    
C12   O34   A    
C3    C64   A    
Cu2   O12   S    
C59   H34   S    
C83   H39   S    
C73   H68   S    
C84   H42   S    
C86   O27   S    
C60   O4    S    
C30   C35   A    
C81   H31   S    
H35   O21   S    
C24   C26   A    
C5    C11   A    
C60   C89   A    
C4    C65   A    
C11   C14   A    
C16   O38   A    
C43   C52   A    
C57   C59   A    
C66   C69   A    
H8    O8    S    
C20   C25   A    
H18   O14   S    
C79   H26   S    
C29   C33   A    
C56   C78   A    
C17   O39   A    
C32   C39   A    
C69   C71   A    
C62   C64   A    
C44   H56   S    
C65   O22   S    
Cu1   O34   S    
C68   O6    S    
C55   H66   S    
C35   C36   A    
C42   O16   S    
C76   H17   S    
C49   C51   A    
C22   C25   A    
C45   C67   A    
C50   C52   A    
C23   C89   A    
C44   N3    A    
C80   O18   S    
C87   H52   S    
C90   H62   S    
C87   H53   S    
C85   H47   S    
C16   O36   A    
C2    C61   A    
C69   O18   S    
C12   O12   A    
C47   N3    A    
C2    C34   A    
C26   H1    S    
C48   C50   A    
C57   H67   S    
C80   H27   S    
C19   O32   S    
C76   H16   S    
C46   N4    A    
C79   H24   S    
H33   O20   S    
C75   H11   S    
C88   H60   S    
C88   O31   S    
C42   C44   A    
C73   H2    S    
C77   H21   S    
C48   O14   S    
C86   H51   S    
C74   H5    S    
C80   H29   S    
C1    O23   A    
C40   C45   A    
C37   C39   A    
C77   O16   S    
C74   O6    S    
C22   C31   A    
C81   H32   S    
C75   O11   S    
C61   N2    A    
C40   O40   S    
C74   H6    S    
C76   O13   S    
C78   O21   S    
Cu1   Cu2   S    
C4    C68   A    
C53   C57   A    
C85   O26   S    
C63   O25   S    
C12   C21   S    
C43   O17   S    
C33   C37   A    
C79   O17   S    
C61   O3    S    
C4    C17   S    
C77   H20   S    
C47   O15   S    
C24   C32   A    
C41   C56   A    
C5    C9    A    
C52   C59   A    
C74   H4    S    
H57   O30   S    
C15   C89   A    
C28   O7    S    
C1    O1    A    
C41   O2    S    
C62   O26   S    
C60   N1    A    
C38   O33   S    
C84   O25   S    
C51   C58   A    
C50   C54   A    
C90   H61   S    
C17   O37   A    
C85   H48   S    
C82   H36   S    
C64   O24   S    
C36   O11   S    
C46   H45   S    
Cu1   O36   S    
Cu2   N3    S    
C8    C10   A    
C21   C28   A    
C82   O22   S    
C75   H13   S    
C76   H15   S    
C7    C19   A    
C13   O30   S    
C13   C15   A    
C9    C34   A    
C88   H59   S    
C83   O24   S    
C3    C66   A    
C82   H38   S    
C73   H3    S    
C73   O5    S    
C82   H37   S    
C22   O9    S    
Cu2   O38   S    
C86   H50   S    
C2    C14   A    
C7    C9    A    
C39   O35   S    
C54   C55   A    
C84   H44   S    
C1    C20   S    
C72   N2    S    
C71   N1    S    
C18   O31   S    
C88   H58   S    
Cu1   O1    S    
C11   O29   S    
C6    C10   A    
C5    C8    A    
C25   H12   S    
C53   C54   A    
C6    C7    A    
C48   N4    A    
C20   C27   A    
C10   C23   A    
H10   O10   S    
C37   O13   S    
C42   C51   A    
C31   C38   A    
C81   H30   S    
C19   C78   A    
C28   C30   A    
C18   C67   A    
C40   N1    A    
C29   C31   A    
C6    C13   A    
C30   C32   A    
C58   H23   S    
C49   C53   A    
C79   H25   S    
C36   C38   A    
C33   C35   A    
C62   C71   A    
H55   O29   S    
Cu1   N4    S    
C43   C46   A    
C8    C18   A    
C83   H41   S    
C67   O20   S    
C3    C16   S    
C70   O19   S    
C83   H40   S    
C90   O32   S    
C63   C72   A    
C86   H49   S    
C75   H14   S    
C68   C70   A    
C55   C58   A    
C81   O19   S    
C14   O27   S    
C70   C72   A    
C85   H46   S    
H65   O35   S    
C90   H63   S    
C41   N2    A    
C27   O8    S    
Cu1   O39   S    
Cu2   O37   S    
C77   H22   S    
H7    O7    S    
C87   O28   S    
