data_mof_unit_1383.cif
_audit_creation_date              2012-12-10T22:11:04-0500
_audit_creation_method            fapswitch 2.2
_symmetry_space_group_name_H-M    P1
_symmetry_Int_Tables_number       1
_space_group_crystal_system       triclinic
_cell_length_a                    12.132327
_cell_length_b                    12.333517
_cell_length_c                    23.038947
_cell_angle_alpha                 91.007212
_cell_angle_beta                  90.461017
_cell_angle_gamma                 90.108412
_cell_volume                      3446.76444813

loop_
_atom_site_label
_atom_site_type_symbol
_atom_type_description
_atom_site_fract_x
_atom_site_fract_y
_atom_site_fract_z
_atom_type_partial_charge
C1    C     C_R   0.653717 0.997409 0.580790 0.884606
C2    C     C_R   0.345562 0.002125 0.419791 0.934662
C3    C     C_R   0.902381 0.813604 0.125338 -0.218987
C4    C     C_R   0.098705 0.188278 0.874017 -0.216581
C5    C     C_R   0.086575 0.837907 0.199349 -0.009482
C6    C     C_R   0.912542 0.160450 0.801621 -0.010106
C7    C     C_R   0.079238 0.752779 0.159299 -0.231422
C8    C     C_R   0.919307 0.245203 0.841899 -0.223683
C9    C     C_R   0.912709 0.188471 0.205521 -0.175493
C10   C     C_R   0.093279 0.817639 0.797814 -0.157951
C11   C     C_R   0.914684 0.269452 0.164870 -0.190122
C12   C     C_R   0.090690 0.736389 0.838263 -0.184362
C13   C     C_R   0.098195 0.934494 0.331979 -0.195469
C14   C     C_R   0.900866 0.069173 0.668997 -0.213208
C15   C     C_R   0.179563 0.930417 0.373669 -0.180209
C16   C     C_R   0.818401 0.072428 0.627629 -0.170325
C17   C     C_R   0.881140 0.098215 0.327364 -0.192774
C18   C     C_R   0.123981 0.899783 0.675472 -0.202348
C19   C     C_R   0.801349 0.094574 0.369445 -0.284355
C20   C     C_R   0.203290 0.903278 0.633138 -0.264939
C21   C     C_3   0.996685 0.013274 0.247394 -0.096581
C22   C     C_3   0.005216 0.987735 0.752509 -0.103018
C23   C     C_R   0.654214 0.001073 0.420449 0.938094
C24   C     C_R   0.345780 0.998920 0.579536 0.889391
C25   C     C_R   0.094888 0.017955 0.290588 0.017490
C26   C     C_R   0.908709 0.982913 0.708502 0.039153
C27   C     C_R   0.264864 0.005262 0.373414 -0.153463
C28   C     C_R   0.737649 0.992377 0.625811 -0.169312
C29   C     C_R   0.896525 0.011172 0.287982 0.093246
C30   C     C_R   0.104905 0.989825 0.712309 0.092332
C31   C     C_R   0.737761 0.001237 0.375714 -0.130874
C32   C     C_R   0.262343 0.998845 0.624296 -0.128249
C33   C     C_R   0.996579 0.109199 0.206458 0.161480
C34   C     C_R   0.005180 0.891818 0.793541 0.193533
C35   C     C_R   0.999274 0.272080 0.124346 -0.024103
C36   C     C_R   0.000847 0.727943 0.875267 -0.016127
C37   C     C_R   0.996039 0.912700 0.205307 -0.099409
C38   C     C_R   0.004638 0.087620 0.794807 -0.104005
C39   C     C_R   0.989712 0.742276 0.121808 -0.070177
C40   C     C_R   0.009948 0.257502 0.878482 -0.073346
C41   C     C_R   0.992265 0.659923 0.076407 0.885412
C42   C     C_R   0.007666 0.340036 0.923676 0.888287
C43   C     C_R   0.999216 0.353659 0.080961 0.859167
C44   C     C_R   0.000764 0.646506 0.918989 0.862184
C45   C     C_R   0.177158 0.101888 0.294747 0.441589
C46   C     C_R   0.835046 0.893253 0.700639 0.464108
C47   C     C_R   0.269275 0.086391 0.331261 -0.162377
C48   C     C_R   0.741886 0.905279 0.664785 -0.149249
C49   C     C_R   0.834871 0.915440 0.296393 -0.200304
C50   C     C_R   0.161876 0.087159 0.701538 -0.195763
C51   C     C_R   0.756315 0.909641 0.339929 0.496694
C52   C     C_R   0.239574 0.092650 0.657717 0.487031
C53   C     C_R   0.078729 0.111936 0.163337 -0.001847
C54   C     C_R   0.917182 0.883341 0.832906 -0.020740
C55   C     C_R   0.081401 0.193767 0.123576 -0.156414
C56   C     C_R   0.913842 0.800969 0.872454 -0.157947
C57   C     C_R   0.904113 0.898833 0.165417 0.009479
C58   C     C_R   0.097652 0.103425 0.833811 0.016735
H1    H     H_    0.848306 0.843009 0.270467 0.149045
H2    H     H_    0.145079 0.160839 0.725888 0.148053
H3    H     H_    0.142233 0.051093 0.160921 0.187187
H4    H     H_    0.850299 0.940386 0.832888 0.191642
H5    H     H_    0.842088 0.186781 0.233489 0.166627
H6    H     H_    0.167512 0.824067 0.772721 0.162843
H7    H     H_    0.037580 0.870061 0.331522 0.148594
H8    H     H_    0.957736 0.136782 0.671232 0.148855
H9    H     H_    0.932535 0.169167 0.326246 0.127044
H10   H     H_    0.076190 0.826390 0.679286 0.156222
H11   H     H_    0.145909 0.194230 0.091310 0.157166
H12   H     H_    0.844974 0.796438 0.901981 0.160070
H13   H     H_    0.834195 0.805678 0.094737 0.170147
H14   H     H_    0.167905 0.197794 0.903870 0.171190
H15   H     H_    0.147528 0.696388 0.155285 0.174752
H16   H     H_    0.850114 0.300351 0.846510 0.177862
H17   H     H_    0.849422 0.329323 0.164607 0.155967
H18   H     H_    0.159593 0.680892 0.841058 0.156619
H19   H     H_    0.176620 0.867294 0.405772 0.161746
H20   H     H_    0.816619 0.139240 0.597708 0.168842
H21   H     H_    0.791458 0.164414 0.398107 0.177844
H22   H     H_    0.216549 0.831337 0.606466 0.181028
O1    O     O_R   0.621380 0.090460 0.561410 -0.617027
O2    O     O_R   0.378620 0.909540 0.438590 -0.609680
O3    O     O_R   0.617150 0.909540 0.438590 -0.586208
O4    O     O_R   0.382850 0.090460 0.561410 -0.586042
O5    O     O_R   0.619720 0.093230 0.440890 -0.632911
O6    O     O_R   0.380280 0.906770 0.559110 -0.629148
O7    O     O_R   0.618800 0.906770 0.559110 -0.593751
O8    O     O_R   0.381200 0.093230 0.440890 -0.638035
O9    O     O_R   0.087590 0.627480 0.058790 -0.618171
O10   O     O_R   0.912410 0.372520 0.941210 -0.618652
O11   O     O_R   0.905660 0.383870 0.059980 -0.613322
O12   O     O_R   0.094340 0.616130 0.940020 -0.616347
O13   O     O_R   0.092570 0.390420 0.063230 -0.628469
O14   O     O_R   0.907430 0.609580 0.936770 -0.626032
O15   O     O_R   0.900680 0.620930 0.055550 -0.626710
O16   O     O_R   0.099320 0.379070 0.944450 -0.626611
Zn1   Zn    Zn3+2 0.501730 0.123520 0.501540 0.984473
Zn2   Zn    Zn3+2 0.498270 0.876480 0.498460 1.018437
Zn3   Zn    Zn3+2 0.125690 0.504390 0.002180 0.986399
Zn4   Zn    Zn3+2 0.874310 0.495610 0.997820 0.988678
C59   C     C_2   0.374698 0.145643 0.320984 0.992185
O17   O     O_2   0.374887 0.241407 0.308393 -0.622668
O18   O     O_R   0.474702 0.089843 0.324765 -0.794608
H23   H     H_    0.540686 0.137610 0.316567 0.348538
C60   C     C_2   0.644997 0.834685 0.675134 0.942143
O19   O     O_2   0.617083 0.765083 0.639524 -0.634836
O20   O     O_R   0.588864 0.845279 0.727637 -0.759204
H24   H     H_    0.525113 0.792433 0.730516 0.346471
C61   C     C_2   0.812147 0.976574 0.158396 0.899192
O21   O     O_2   0.734816 0.977628 0.192012 -0.609136
O22   O     O_R   0.810166 0.042555 0.109679 -0.788887
H25   H     H_    0.742731 0.090901 0.108427 0.352779
C62   C     C_2   0.192552 0.028853 0.839658 0.889737
O23   O     O_2   0.268341 0.030492 0.805112 -0.609817
O24   O     O_R   0.199611 0.963756 0.888615 -0.790143
H26   H     H_    0.268942 0.918011 0.889124 0.352079
C63   C     C_2   0.196573 0.846690 0.227386 0.908602
O25   O     O_2   0.227955 0.774918 0.259534 -0.616122
O26   O     O_R   0.267987 0.931035 0.213318 -0.808642
H27   H     H_    0.341597 0.926149 0.234245 0.371368
C64   C     C_2   0.802811 0.152188 0.772981 0.900770
O27   O     O_2   0.770294 0.226799 0.743046 -0.615959
O28   O     O_R   0.733083 0.064650 0.783545 -0.800723
H28   H     H_    0.659941 0.070279 0.762228 0.377372
O29   O     O_3   0.692683 0.817032 0.344788 -0.569849
C65   C     C_3   0.757180 0.734646 0.369939 0.087626
H29   H     H_    0.797436 0.763610 0.411088 0.126050
H30   H     H_    0.821477 0.705552 0.339243 0.124235
C66   C     C_3   0.683123 0.639234 0.384100 -0.741798
H31   H     H_    0.642810 0.607192 0.343867 0.260367
H32   H     H_    0.732891 0.573724 0.403778 0.186382
H33   H     H_    0.618708 0.665328 0.415333 0.256030
O30   O     O_3   0.297962 0.187824 0.650215 -0.575040
C67   C     C_3   0.229091 0.263699 0.622492 0.093098
H34   H     H_    0.162224 0.291510 0.651971 0.123797
H35   H     H_    0.191856 0.228645 0.581878 0.125292
C68   C     C_3   0.297386 0.361992 0.606292 -0.751249
H36   H     H_    0.364134 0.337160 0.576162 0.254686
H37   H     H_    0.244094 0.422427 0.584595 0.187413
H38   H     H_    0.334560 0.399969 0.645916 0.259848
O31   O     O_3   0.177269 0.190702 0.258821 -0.596169
C69   C     C_3   0.139930 0.283908 0.289510 0.112878
H39   H     H_    0.049122 0.283129 0.292335 0.116589
H40   H     H_    0.175058 0.291053 0.334279 0.142878
C70   C     C_3   0.171699 0.384846 0.256344 -0.702921
H41   H     H_    0.141879 0.458358 0.279848 0.194582
H42   H     H_    0.262564 0.390232 0.252080 0.289837
H43   H     H_    0.133869 0.382266 0.212324 0.239407
O32   O     O_3   0.851576 0.796027 0.728967 -0.615518
C71   C     C_3   0.869218 0.709983 0.688483 0.086175
H44   H     H_    0.911851 0.736409 0.648376 0.111338
H45   H     H_    0.789372 0.672183 0.676004 0.195664
C72   C     C_3   0.938638 0.622356 0.716598 -0.807283
H46   H     H_    0.902497 0.599287 0.758788 0.275670
H47   H     H_    0.941415 0.549508 0.687626 0.211199
H48   H     H_    0.024143 0.651638 0.723776 0.238532

loop_
_geom_bond_atom_site_label_1
_geom_bond_atom_site_label_2
_ccdc_geom_bond_type
C16   C28   A    
C41   O9    A    
C1    O7    A    
C65   H29   S    
C47   C59   S    
C5    C37   A    
C17   C29   A    
O22   H25   S    
C19   C31   A    
C67   C68   S    
C70   H41   S    
O32   C71   S    
O28   H28   S    
C39   C41   S    
C29   C49   A    
C68   H37   S    
C59   O17   D    
C23   O3    A    
O9    Zn3   S    
C2    O2    A    
C42   O16   A    
O4    Zn1   S    
C66   H31   S    
C61   O22   S    
C21   C33   S    
C18   H10   S    
O24   H26   S    
C22   C38   S    
O16   Zn3   S    
C24   O6    A    
C32   C52   A    
C43   O13   A    
C38   C58   A    
C53   H3    S    
C11   C35   A    
C57   C61   S    
C4    C40   A    
C49   C51   A    
O3    Zn2   S    
C1    C28   S    
C50   C52   A    
O20   H24   S    
C6    C38   A    
C2    O8    A    
C2    C27   S    
C18   C30   A    
O11   Zn4   S    
C12   C36   A    
C35   C43   S    
O13   Zn3   S    
C18   C20   A    
O8    Zn1   S    
C44   O12   A    
O7    Zn2   S    
C45   C47   A    
O29   C65   S    
C30   C50   A    
C68   H36   S    
C3    C39   A    
C59   O18   S    
C45   O31   S    
C52   O30   S    
O2    Zn2   S    
C69   C70   S    
C13   C25   A    
C41   O15   A    
O6    Zn2   S    
O10   Zn4   S    
C70   H42   S    
C46   C48   A    
C53   C55   A    
C33   C53   A    
C22   C34   S    
C68   H38   S    
C54   C56   A    
C17   H9    S    
C20   H22   S    
C35   C55   A    
C51   O29   S    
C44   O14   A    
C7    H15   S    
C61   O21   D    
C5    C7    A    
O15   Zn4   S    
C67   H35   S    
C54   H4    S    
C65   C66   S    
C21   C29   S    
C71   C72   S    
C43   O11   A    
C5    C63   S    
C42   O10   A    
C23   C31   S    
C3    H13   S    
C24   C32   S    
C36   C56   A    
C71   H45   S    
C58   C62   S    
C60   O20   S    
C15   C27   A    
C48   C60   S    
O14   Zn4   S    
C8    H16   S    
C14   H8    S    
C10   C34   A    
C14   C26   A    
C72   H48   S    
C19   H21   S    
C9    C11   A    
C64   O27   D    
C55   H11   S    
C10   C12   A    
C9    C33   A    
C3    C57   A    
C34   C54   A    
C56   H12   S    
C13   C15   A    
C12   H18   S    
C23   O5    A    
O30   C67   S    
C14   C16   A    
C36   C44   S    
C72   H47   S    
C25   C45   A    
C4    H14   S    
C70   H43   S    
C16   H20   S    
C62   O23   D    
C20   C32   A    
C27   C47   A    
C21   C25   S    
C28   C48   A    
C65   H30   S    
C22   C30   S    
C9    H5    S    
C10   H6    S    
C31   C51   A    
C6    C8    A    
O26   H27   S    
C67   H34   S    
C60   O19   D    
C49   H1    S    
C50   H2    S    
C66   H33   S    
C63   O26   S    
C24   O4    A    
C11   H17   S    
C63   O25   D    
C15   H19   S    
O1    Zn1   S    
C40   C42   S    
C17   C19   A    
C69   H40   S    
C13   H7    S    
C64   O28   S    
O5    Zn1   S    
C26   C46   A    
C46   O32   S    
C21   C37   S    
C22   C26   S    
C4    C58   A    
O18   H23   S    
C7    C39   A    
C69   H39   S    
C8    C40   A    
C6    C64   S    
C62   O24   S    
C72   H46   S    
O31   C69   S    
C1    O1    A    
C37   C57   A    
O12   Zn3   S    
C71   H44   S    
C66   H32   S    
