data_mof_unit_1192.cif
_audit_creation_date              2012-10-26T20:01:54-0400
_audit_creation_method            fapswitch 2.2
_symmetry_space_group_name_H-M    P1
_symmetry_Int_Tables_number       1
_space_group_crystal_system       triclinic
_cell_length_a                    11.6998
_cell_length_b                    10.835323
_cell_length_c                    9.624436
_cell_angle_alpha                 89.388276
_cell_angle_beta                  89.402167
_cell_angle_gamma                 92.876214
_cell_volume                      1218.42050272

loop_
_atom_site_label
_atom_site_type_symbol
_atom_type_description
_atom_site_fract_x
_atom_site_fract_y
_atom_site_fract_z
_atom_type_partial_charge
C1    C     C_R   0.509015 0.263123 0.502096 0.569744
C2    C     C_R   0.491288 0.872649 0.496663 0.047599
C3    C     C_R   0.676025 0.629366 0.142499 -0.081927
C4    C     C_R   0.284183 0.499700 0.500572 0.547733
C5    C     C_R   0.780842 0.653671 0.077175 -0.192778
C6    C     C_R   0.789218 0.640413 0.934992 -0.123743
C7    C     C_R   0.687997 0.624394 0.859537 0.063509
C8    C     C_R   0.589279 0.563166 0.924825 0.104546
C9    C     C_R   0.586971 0.563698 0.073871 0.138255
C10   C     C_R   0.416669 0.439110 0.075415 0.024532
C11   C     C_R   0.416372 0.439590 0.927789 0.010377
C12   C     C_R   0.441851 0.050423 0.879139 -0.044053
C13   C     C_R   0.494725 0.737532 0.498889 0.572504
C14   C     C_R   0.715788 0.499870 0.499430 0.587997
C15   C     C_1   0.162413 0.499973 0.501431 0.007193
C16   C     C_1   0.059890 0.500140 0.500776 -0.010876
C17   C     C_1   0.940050 0.500157 0.499357 -0.004025
C18   C     C_1   0.837534 0.500021 0.498616 0.038301
C19   C     C_R   0.511196 0.105015 0.770860 0.009967
C20   C     C_2   0.677855 0.729654 0.764057 0.287637
C21   C     C_2   0.608823 0.193045 0.805334 0.263673
C22   C     C_2   0.434325 0.112802 0.015393 0.143861
C23   C     C_R   0.379385 0.937370 0.854345 0.024323
C24   C     C_2   0.310304 0.870809 0.965176 0.263712
C25   C     C_R   0.392372 0.879852 0.725616 -0.109978
C26   C     C_R   0.460170 0.935823 0.618393 -0.064195
C27   C     C_R   0.499376 0.058932 0.633363 0.037478
C28   C     C_R   0.522283 0.129389 0.509256 0.022031
C29   C     C_R   0.542106 0.068927 0.384960 -0.116377
C30   C     C_R   0.533500 0.941078 0.379359 0.094540
Cu1   Cu    Cu3+1 0.499990 0.499990 0.640660 0.989317
Cu2   Cu    Cu3+1 0.500010 0.500010 0.359340 0.973829
H1    H     H_    0.567100 0.121014 0.292086 0.131416
H2    H     H_    0.510340 0.152545 0.063934 0.089270
H3    H     H_    0.315151 0.899377 0.072493 0.164178
H4    H     H_    0.651914 0.909917 0.230946 0.228056
H5    H     H_    0.516187 0.913090 0.172972 0.221634
H6    H     H_    0.867769 0.675431 0.884454 0.179105
H7    H     H_    0.348193 0.389174 0.874391 0.145010
H8    H     H_    0.347549 0.791619 0.708583 0.187934
H9    H     H_    0.348543 0.388473 0.131572 0.164329
H10   H     H_    0.667409 0.663993 0.245278 0.206849
H11   H     H_    0.852640 0.693070 0.134651 0.149587
H12   H     H_    0.611628 0.794023 0.782979 0.113126
H13   H     H_    0.606592 0.250769 0.896322 0.093101
N1    N     N_R   0.501070 0.501210 0.147910 -0.248555
N2    N     N_R   0.501110 0.501290 0.852040 -0.260650
N3    N     N_3   0.566812 0.882182 0.253700 -0.617002
O1    O     O_R   0.499990 0.319640 0.618810 -0.495380
O2    O     O_2   0.694331 0.201319 0.731236 -0.485049
O3    O     O_2   0.341922 0.124338 0.072602 -0.519780
O4    O     O_2   0.247528 0.780996 0.938081 -0.509083
O5    O     O_R   0.500000 0.319660 0.381240 -0.504224
O6    O     O_R   0.337190 0.500000 0.618790 -0.500576
O7    O     O_R   0.337200 0.500030 0.381210 -0.495833
O8    O     O_R   0.500000 0.680340 0.618760 -0.532779
O9    O     O_R   0.500010 0.680360 0.381190 -0.475982
O10   O     O_R   0.662800 0.499970 0.618790 -0.460695
O11   O     O_R   0.662810 0.500000 0.381210 -0.532188
O12   O     O_2   0.747917 0.751219 0.670795 -0.510521

loop_
_geom_bond_atom_site_label_1
_geom_bond_atom_site_label_2
_ccdc_geom_bond_type
C24   O4    D    
C1    C28   S    
C23   C24   S    
C6    H6    S    
C3    H10   S    
C10   N1    A    
C6    C7    A    
C3    C9    A    
C12   C22   S    
Cu1   O8    S    
C20   O12   D    
C19   C27   A    
C14   C18   S    
Cu2   O7    S    
C11   N2    A    
Cu1   Cu2   S    
C2    C30   A    
C13   O8    A    
C27   C28   A    
C3    C5    A    
C4    C15   S    
C17   C18   T    
C5    H11   S    
C8    N2    A    
C7    C8    A    
Cu1   O6    S    
Cu1   N2    S    
H5    N3    S    
C11   H7    S    
C14   O11   A    
C12   C23   A    
C26   C27   A    
C29   C30   A    
Cu2   N1    S    
Cu2   O9    S    
Cu1   O1    S    
C14   O10   A    
C12   C19   A    
C30   N3    S    
C28   C29   A    
C20   H12   S    
H4    N3    S    
C21   H13   S    
C23   C25   A    
C25   H8    S    
C5    C6    A    
C22   H2    S    
C24   H3    S    
C13   O9    A    
C10   C11   A    
C15   C16   T    
C29   H1    S    
Cu2   O5    S    
C9    N1    A    
Cu1   O10   S    
C8    C9    A    
C2    C26   A    
C7    C20   S    
C4    O7    A    
C2    C13   S    
C1    O5    A    
C21   O2    D    
Cu2   O11   S    
C19   C21   S    
C25   C26   A    
C4    O6    A    
C1    O1    A    
C16   C17   S    
C22   O3    D    
C10   H9    S    
