data_mof_unit_1300.cif
_audit_creation_date              2012-12-11T15:55:47-0500
_audit_creation_method            fapswitch 2.2
_symmetry_space_group_name_H-M    P1
_symmetry_Int_Tables_number       1
_space_group_crystal_system       triclinic
_cell_length_a                    6.959912
_cell_length_b                    14.537644
_cell_length_c                    16.10039
_cell_angle_alpha                 89.942512
_cell_angle_beta                  90.104061
_cell_angle_gamma                 90.117477
_cell_volume                      1629.04217465

loop_
_atom_site_label
_atom_site_type_symbol
_atom_type_description
_atom_site_fract_x
_atom_site_fract_y
_atom_site_fract_z
_atom_type_partial_charge
O1    O     O_R   0.505680 0.583900 0.413320 -0.543509
O2    O     O_R   0.176010 0.594950 0.586080 -0.548593
O3    O     O_R   0.005680 0.416100 0.586680 -0.533588
C1    C     C_R   0.345168 0.617051 0.615027 0.668346
O4    O     O_R   0.175960 0.594930 0.413930 -0.545415
O5    O     O_R   0.005640 0.416080 0.413300 -0.512173
C2    C     C_R   0.344992 0.617114 0.385058 0.694259
O6    O     O_R   0.505720 0.583920 0.586700 -0.546299
O7    O     O_3   0.339190 0.441320 0.500000 -0.339781
V1    V     V_3+5 0.064350 0.510890 0.500000 1.456874
O8    O     O_R   0.675920 0.405050 0.413920 -0.532490
C3    C     C_R   0.845337 0.380799 0.386726 0.762384
O9    O     O_R   0.675960 0.405070 0.586070 -0.544868
C4    C     C_R   0.844991 0.382518 0.614456 0.697897
V2    V     V_3+5 0.564340 0.489110 0.500000 1.468242
O10   O     O_3   0.839370 0.558680 0.500000 -0.384473
C5    C     C_R   0.030700 0.291953 0.720567 0.132184
C6    C     C_R   0.856949 0.310464 0.679659 -0.105478
C7    C     C_R   0.697174 0.255345 0.700858 -0.177722
H1    H     H_    0.561998 0.263280 0.668295 0.143392
C8    C     C_R   0.708431 0.191160 0.766502 -0.178126
H2    H     H_    0.581425 0.151700 0.782129 0.132862
C9    C     C_R   0.879636 0.180417 0.812865 -0.106903
C10   C     C_R   0.041866 0.228659 0.785269 0.096588
C11   C     C_3   0.179269 0.287393 0.832979 -0.387862
C12   C     C_3   0.167182 0.356520 0.762242 -0.425667
H3    H     H_    0.323072 0.255035 0.838898 0.179775
H4    H     H_    0.117286 0.313170 0.892151 0.191691
H5    H     H_    0.303932 0.363955 0.727356 0.174559
H6    H     H_    0.098222 0.422453 0.780344 0.169592
C13   C     C_R   0.047288 0.229185 0.216060 0.243408
C14   C     C_R   0.035879 0.275893 0.292193 0.245914
C15   C     C_R   0.858138 0.310954 0.318965 -0.162106
C16   C     C_R   0.693050 0.279530 0.278175 -0.130166
H7    H     H_    0.555764 0.307603 0.293605 0.216348
C17   C     C_R   0.704919 0.210024 0.218285 -0.136956
H8    H     H_    0.576162 0.176554 0.197096 0.205115
C18   C     C_R   0.881834 0.186929 0.182923 -0.159887
C19   C     C_R   0.188704 0.723834 0.717921 -0.154226
H9    H     H_    0.048435 0.704903 0.694207 0.115611
C20   C     C_R   0.199640 0.787413 0.783111 -0.147996
H10   H     H_    0.067298 0.815614 0.807384 0.117598
C21   C     C_R   0.378524 0.814254 0.816319 -0.042589
C22   C     C_R   0.546147 0.775636 0.782432 -0.151688
H11   H     H_    0.686417 0.794551 0.806154 0.116259
C23   C     C_R   0.535211 0.712063 0.717238 -0.148245
H12   H     H_    0.667553 0.683856 0.692969 0.116588
C24   C     C_R   0.356340 0.685300 0.683971 -0.041966
C25   C     C_R   0.188746 0.724414 0.282243 -0.145974
H13   H     H_    0.048468 0.705793 0.305964 0.115650
C26   C     C_R   0.199934 0.787994 0.217017 -0.140807
H14   H     H_    0.067682 0.816521 0.192703 0.117771
C27   C     C_R   0.378912 0.814402 0.183817 -0.045868
C28   C     C_R   0.546384 0.775445 0.217757 -0.147544
H15   H     H_    0.686657 0.794070 0.194033 0.116258
C29   C     C_R   0.535195 0.711863 0.282987 -0.141271
H16   H     H_    0.667441 0.683333 0.307304 0.117636
C30   C     C_R   0.356214 0.685463 0.316190 -0.046261
O11   O     O_R   0.229200 0.915950 0.913350 -0.545430
O12   O     O_R   0.559090 0.905000 0.086080 -0.546239
O13   O     O_R   0.729280 0.083880 0.086680 -0.539149
C31   C     C_R   0.390086 0.882772 0.114963 0.690214
O14   O     O_R   0.558920 0.904980 0.913920 -0.547204
O15   O     O_R   0.729110 0.083860 0.913300 -0.541569
C32   C     C_R   0.389732 0.882707 0.885106 0.672867
O16   O     O_R   0.229360 0.915970 0.086730 -0.542503
O17   O     O_3   0.395680 0.058580 0.000030 -0.348893
V3    V     V_3+5 0.670570 0.989070 0.999990 1.429282
O18   O     O_R   0.058820 0.094950 0.913870 -0.537701
C33   C     C_R   0.889865 0.116509 0.884741 0.700514
O19   O     O_R   0.058990 0.094970 0.086020 -0.512271
C34   C     C_R   0.890525 0.118600 0.113790 0.756892
V4    V     V_3+5 0.170560 0.010930 0.999930 1.472475
O20   O     O_3   0.895590 0.941310 0.999960 -0.382191
Br1   Br    Br    0.259552 0.258248 0.145425 -0.579964
Br2   Br    Br    0.241140 0.259703 0.370259 -0.555433

loop_
_geom_bond_atom_site_label_1
_geom_bond_atom_site_label_2
_ccdc_geom_bond_type
O14   C32   A    
V4    O20   S    
C4    C6    S    
C7    H1    S    
C1    O6    A    
C19   C20   A    
C27   C28   A    
C11   H4    S    
C5    C12   S    
O15   V3    S    
C17   H8    S    
C7    C8    A    
C16   H7    S    
O5    C3    A    
V3    O20   S    
V2    O10   S    
C29   H16   S    
O12   C31   A    
C6    C7    A    
C20   H10   S    
C28   H15   S    
O8    V2    S    
C25   C26   A    
C9    C10   A    
O18   V4    S    
O17   V4    S    
O15   C33   A    
O7    V1    S    
O11   V4    S    
C2    C30   S    
O9    C4    A    
C20   C21   A    
C9    C33   S    
C22   C23   A    
C15   C16   A    
C18   C34   S    
C8    C9    A    
C28   C29   A    
C5    C10   A    
C31   O16   A    
C26   H14   S    
C10   C11   S    
C19   H9    S    
O19   V4    S    
C11   C12   S    
O16   V4    S    
C25   C30   A    
O17   V3    S    
C26   C27   A    
O2    C1    A    
C21   C22   A    
O5    V1    S    
C27   C31   S    
C13   Br1   S    
C13   C14   A    
C21   C32   S    
C5    C6    A    
O3    C4    A    
O1    V2    S    
O13   C34   A    
C12   H6    S    
O6    V2    S    
O9    V2    S    
O2    V1    S    
C22   H11   S    
O4    C2    A    
C1    C24   S    
C23   H12   S    
O1    C2    A    
C14   Br2   S    
O8    C3    A    
C11   H3    S    
O14   V3    S    
C13   C18   A    
C14   C15   A    
C17   C18   A    
O7    V2    S    
O4    V1    S    
O3    V1    S    
V1    O10   S    
O11   C32   A    
O13   V3    S    
C29   C30   A    
C16   C17   A    
O18   C33   A    
C23   C24   A    
O19   C34   A    
O12   V3    S    
C12   H5    S    
C25   H13   S    
C3    C15   S    
C8    H2    S    
C19   C24   A    
