data_mof_unit_4086.cif
_audit_creation_date              2013-03-05T15:46:45-0500
_audit_creation_method            fapswitch 2.2
_symmetry_space_group_name_H-M    P1
_symmetry_Int_Tables_number       1
_space_group_crystal_system       triclinic
_cell_length_a                    10.28528
_cell_length_b                    10.663801
_cell_length_c                    12.227624
_cell_angle_alpha                 91.70824
_cell_angle_beta                  109.905059
_cell_angle_gamma                 95.520408
_cell_volume                      1252.35031198

loop_
_atom_site_label
_atom_site_type_symbol
_atom_site_description
_atom_site_fract_x
_atom_site_fract_y
_atom_site_fract_z
_atom_type_partial_charge
O1    O     O_R   0.936910 0.692950 0.509080 -0.568235
O2    O     O_R   0.138320 0.658600 0.480130 -0.574340
C1    C     C_R   0.048825 0.733004 0.489316 0.939816
O3    O     O_R   0.002900 0.525670 0.675280 -0.596770
O4    O     O_R   0.204310 0.491320 0.646330 -0.556524
C2    C     C_R   0.132534 0.505597 0.714687 0.926318
Zn1   Zn    Zn3+2 0.865520 0.522940 0.519330 1.141432
Zn2   Zn    Zn3+2 0.134480 0.477060 0.480670 1.076711
O5    O     O_R   0.861680 0.341400 0.519870 -0.542321
O6    O     O_R   0.063090 0.307050 0.490920 -0.577709
O7    O     O_R   0.795690 0.508680 0.353670 -0.568585
O8    O     O_R   0.997100 0.474330 0.324720 -0.618259
C3    C     C_R   0.945459 0.266636 0.501269 0.954764
C4    C     C_R   0.866933 0.491889 0.285300 0.968040
C5    C     C_R   0.729739 0.334824 0.988386 0.434424
H1    H     H_    0.929264 0.353158 0.123424 0.238948
H2    H     H_    0.503782 0.220659 0.817114 0.232625
C6    C     C_R   0.793488 0.477825 0.160019 -0.221864
C7    C     C_R   0.159280 0.578106 0.915941 -0.137891
C8    C     C_R   0.244127 0.602842 0.031976 -0.107186
C9    C     C_R   0.376823 0.563860 0.069923 -0.065922
C10   C     C_R   0.422756 0.493494 0.992887 0.092531
C11   C     C_R   0.324300 0.444253 0.885566 0.019968
C12   C     C_R   0.561729 0.466138 0.021122 -0.041718
C13   C     C_R   0.592807 0.367743 0.955848 -0.033144
C14   C     C_R   0.485701 0.302104 0.862625 -0.099848
C15   C     C_R   0.352313 0.338514 0.828066 0.365612
C16   C     C_R   0.671168 0.534088 0.112487 0.243169
C17   C     C_R   0.828268 0.387571 0.092496 -0.208579
C18   C     C_R   0.201677 0.503100 0.840726 -0.079042
H3    H     H_    0.063153 0.620976 0.884218 0.195511
H4    H     H_    0.442203 0.588250 0.159625 0.163616
H5    H     H_    0.210514 0.658617 0.090695 0.176147
H6    H     H_    0.848187 0.876521 0.430127 0.240591
C19   C     C_2   0.063507 0.864949 0.465711 -0.259712
C20   C     C_2   0.948688 0.924355 0.435771 -0.073789
C21   C     C_2   0.909044 0.131204 0.491453 0.151421
C22   C     C_2   0.954223 0.058382 0.422447 0.198999
H7    H     H_    0.164435 0.912580 0.472527 0.212884
N1    N     N_2   0.313640 0.446500 0.454900 -0.228052
C23   C     C_2   0.435907 0.500081 0.522512 0.268643
N2    N     N_2   0.686360 0.553430 0.545150 0.042969
C24   C     C_2   0.568744 0.479839 0.499490 0.362643
H8    H     H_    0.308924 0.397466 0.379620 0.201308
Cl1   Cl    Cl    0.826861 0.067234 0.586389 -0.397633
Cl2   Cl    Cl    0.565944 0.342985 0.414045 -0.549196
N3    N     N_R   0.447837 0.569887 0.628133 0.254531
O9    O     O_R   0.533411 0.539560 0.726893 -0.366605
O10   O     O_R   0.398233 0.677987 0.623583 -0.298117
Cl3   Cl    Cl    0.685504 0.707726 0.593710 -0.351812
Cl4   Cl    Cl    0.779570 0.220469 0.907863 -0.440506
N4    N     N_R   0.668435 0.666234 0.141106 0.207887
O11   O     O_R   0.751721 0.721906 0.239389 -0.401906
O12   O     O_R   0.603550 0.736829 0.059520 -0.296859
Cl5   Cl    Cl    0.219320 0.231871 0.730911 -0.563228
N5    N     N_R   0.000253 0.108628 0.331927 0.234518
O13   O     O_R   0.090134 0.054432 0.299017 -0.317503
O14   O     O_R   0.930941 0.190612 0.266412 -0.403171

loop_
_geom_bond_atom_site_label_1
_geom_bond_atom_site_label_2
_geom_bond_distance
_ccdc_geom_bond_type
O1    C1    1.291046 A    
O4    Zn2   1.900556 S    
C19   H7    1.086124 S    
C21   C22   1.352134 D    
C5    Cl4   1.763953 S    
C23   C24   1.519061 S    
C4    C6    1.454770 S    
C15   Cl5   1.757634 S    
C3    C21   1.447568 S    
C19   C20   1.339157 D    
C1    C19   1.448740 S    
Zn2   O8    1.946207 S    
C7    H3    1.083227 S    
C8    C9    1.392927 A    
C20   C22   1.441198 S    
O2    C1    1.301940 A    
C23   N3    1.433296 S    
C22   N5    1.442127 S    
N3    O10   1.299961 A    
C6    C17   1.398545 A    
C9    C10   1.415156 A    
C12   C13   1.424244 A    
Zn1   O7    1.900556 S    
C16   N4    1.447053 S    
C14   C15   1.388895 A    
N2    Cl3   1.734364 S    
O3    Zn1   1.946207 S    
H2    C14   1.082276 S    
Zn2   O6    1.913569 S    
N1    C23   1.310365 D    
C9    H4    1.081670 S    
O8    C4    1.293831 A    
N4    O12   1.302079 A    
C5    C17   1.390374 A    
H6    C20   1.086893 S    
C11   C15   1.414908 A    
N5    O14   1.298890 A    
O4    C2    1.304235 A    
C24   Cl2   1.761464 S    
C10   C12   1.413366 A    
C5    C13   1.409597 A    
N2    C24   1.312363 D    
C8    H5    1.082558 S    
C21   Cl1   1.769686 S    
C11   C18   1.409615 A    
C12   C16   1.406656 A    
N1    H8    1.029124 S    
C6    C16   1.395956 A    
N5    O13   1.301067 A    
H1    C17   1.082058 S    
O3    C2    1.295889 A    
Zn1   N2    2.026395 S    
O7    C4    1.304346 A    
Zn1   O5    1.932762 S    
O5    C3    1.297965 A    
C10   C11   1.405346 A    
Zn2   N1    2.026294 S    
C2    C18   1.463349 S    
C13   C14   1.397100 A    
O1    Zn1   1.913567 S    
C7    C18   1.404314 A    
O2    Zn2   1.932760 S    
C7    C8    1.390868 A    
N4    O11   1.299667 A    
N3    O9    1.300715 A    
O6    C3    1.293326 A    
