data_mof_unit_4975.cif
_audit_creation_date              2012-10-26T19:56:20-0400
_audit_creation_method            fapswitch 2.2
_symmetry_space_group_name_H-M    P1
_symmetry_Int_Tables_number       1
_space_group_crystal_system       triclinic
_cell_length_a                    11.020285
_cell_length_b                    10.658673
_cell_length_c                    9.509231
_cell_angle_alpha                 90.207997
_cell_angle_beta                  91.015367
_cell_angle_gamma                 89.586844
_cell_volume                      1116.75834708

loop_
_atom_site_label
_atom_site_type_symbol
_atom_type_description
_atom_site_fract_x
_atom_site_fract_y
_atom_site_fract_z
_atom_type_partial_charge
C1    C     C_R   0.500253 0.260149 0.499481 0.607889
C2    C     C_3   0.418774 0.045651 0.592041 -0.100314
C3    C     C_3   0.501212 0.876793 0.504713 0.017524
C4    C     C_3   0.501889 0.123814 0.498296 0.019217
C5    C     C_3   0.528973 0.962041 0.632042 -0.002596
C6    C     C_3   0.473712 0.038526 0.371411 -0.017014
C7    C     C_3   0.486786 0.612375 0.049720 0.015167
C8    C     C_3   0.513673 0.387719 0.949642 0.004611
C9    C     C_3   0.400459 0.545485 0.946085 0.000984
C10   C     C_3   0.601067 0.455645 0.052144 -0.011472
C11   C     C_3   0.586747 0.567951 0.950605 -0.002087
C12   C     C_R   0.500633 0.740058 0.500992 0.572623
C13   C     C_3   0.412558 0.432860 0.047647 0.003368
C14   C     C_R   0.262035 0.501820 0.498839 0.566697
C15   C     C_R   0.737247 0.500960 0.501649 0.569231
C16   C     C_R   0.115884 0.765365 0.139030 -0.076472
C17   C     C_R   0.858595 0.628687 0.994907 -0.165213
C18   C     C_R   0.091738 0.695113 0.258183 -0.120814
C19   C     C_R   0.881489 0.552310 0.878023 -0.105795
C20   C     C_R   0.093942 0.563574 0.252177 0.043997
C21   C     C_R   0.889680 0.605623 0.744266 0.038657
C22   C     C_R   0.114445 0.502291 0.126653 -0.103294
C23   C     C_R   0.870844 0.499497 0.505372 0.022061
C24   C     C_R   0.872338 0.735338 0.728033 -0.123120
C25   C     C_R   0.136022 0.572111 0.007636 -0.165804
C26   C     C_R   0.849664 0.811394 0.844729 -0.070442
C27   C     C_R   0.139252 0.704590 0.011666 0.025496
C28   C     C_R   0.842078 0.758549 0.979248 0.043329
C29   C     C_R   0.931974 0.473679 0.381009 -0.132513
C30   C     C_R   0.066197 0.523374 0.622332 -0.125083
C31   C     C_2   0.163832 0.779065 0.884118 0.263905
C32   C     C_2   0.816720 0.836767 0.104006 0.208689
C33   C     C_2   0.736729 0.084006 0.579866 0.220463
C34   C     C_R   0.126936 0.501281 0.497884 0.015471
C35   C     C_2   0.266635 0.914519 0.432987 0.241481
C36   C     C_2   0.554443 0.925512 0.781571 0.230534
C37   C     C_2   0.443399 0.078609 0.224070 0.244796
C38   C     C_R   0.939839 0.532966 0.626272 -0.007734
C39   C     C_R   0.056645 0.493450 0.374091 -0.018268
C40   C     C_3   0.611518 0.041510 0.539543 -0.041113
C41   C     C_3   0.391849 0.959399 0.464632 0.028153
C42   C     C_3   0.584704 0.955334 0.411260 -0.208856
Cu1   Cu    Cu3+1 0.500030 0.499990 0.643150 0.999078
Cu2   Cu    Cu3+1 0.499970 0.500010 0.356850 0.977595
H1    H     H_    0.330193 0.596429 0.886731 0.124264
H2    H     H_    0.897255 0.452766 0.892690 0.136582
H3    H     H_    0.111259 0.400830 0.120198 0.134945
H4    H     H_    0.882209 0.778313 0.625828 0.104866
H5    H     H_    0.151506 0.518468 0.914987 0.088680
H6    H     H_    0.841076 0.911672 0.830324 0.150601
H7    H     H_    0.881069 0.457795 0.284343 0.125773
H8    H     H_    0.118736 0.551722 0.710675 0.107692
H9    H     H_    0.652681 0.916928 0.337741 0.140113
H10   H     H_    0.350612 0.084011 0.665692 0.165992
H11   H     H_    0.185916 0.733423 0.786144 0.142026
H12   H     H_    0.686181 0.416892 0.099237 0.114069
H13   H     H_    0.812433 0.793633 0.207047 0.089944
H14   H     H_    0.807573 0.014909 0.599437 0.098552
H15   H     H_    0.219684 0.944567 0.338043 0.130434
H16   H     H_    0.633397 0.962082 0.836679 0.111917
H17   H     H_    0.506693 0.059800 0.140391 0.139047
H18   H     H_    0.474856 0.707773 0.094894 0.149575
H19   H     H_    0.525127 0.292354 0.904226 0.132300
H20   H     H_    0.646498 0.635062 0.898854 0.151259
H21   H     H_    0.339411 0.374633 0.091325 0.158293
H22   H     H_    0.112021 0.866676 0.145041 0.169301
H23   H     H_    0.852666 0.586549 0.097449 0.097919
H24   H     H_    0.066272 0.742707 0.353942 0.151434
N1    N     N_3   0.500090 0.499970 0.858290 -0.248842
N2    N     N_3   0.499910 0.500030 0.141710 -0.249482
O1    O     O_R   0.500060 0.316850 0.620870 -0.499957
O2    O     O_2   0.800577 0.949840 0.093598 -0.526369
O3    O     O_2   0.759976 0.195422 0.589982 -0.488181
O4    O     O_2   0.215394 0.848307 0.517462 -0.527398
O5    O     O_2   0.483044 0.860139 0.844281 -0.495254
O6    O     O_2   0.348410 0.133926 0.197989 -0.520778
O7    O     O_R   0.499940 0.683150 0.379130 -0.525848
O8    O     O_R   0.500000 0.316860 0.379090 -0.474983
O9    O     O_R   0.500000 0.683140 0.620910 -0.462862
O10   O     O_R   0.319670 0.500010 0.620890 -0.524237
O11   O     O_R   0.680330 0.499990 0.379110 -0.529854
O12   O     O_R   0.319620 0.500010 0.379110 -0.486081
O13   O     O_R   0.680380 0.499990 0.620890 -0.481961
O14   O     O_2   0.160653 0.893602 0.887083 -0.456505

loop_
_geom_bond_atom_site_label_1
_geom_bond_atom_site_label_2
_ccdc_geom_bond_type
C5    C36   S    
C35   O4    D    
C9    H1    S    
C33   H14   S    
Cu1   O13   S    
C7    N2    S    
C19   H2    S    
C3    C42   S    
C13   H21   S    
C7    C11   S    
C8    N1    S    
C1    O1    A    
C23   C29   A    
Cu2   O7    S    
C19   C21   A    
C9    N1    S    
Cu2   O12   S    
C26   H6    S    
C42   H9    S    
C13   N2    S    
C2    C41   S    
Cu1   O9    S    
C12   O9    A    
C30   C38   A    
C35   H15   S    
C9    C13   S    
C3    C12   S    
C21   C38   S    
C4    C40   S    
C6    C41   S    
Cu2   N2    S    
C14   O10   A    
C10   H12   S    
C16   C27   A    
C40   C42   S    
C22   H3    S    
Cu1   N1    S    
C1    O8    A    
C32   H13   S    
C15   O11   A    
C33   C40   S    
C17   H23   S    
C30   C34   A    
C27   C31   S    
C34   C39   A    
C24   H4    S    
C28   C32   S    
C4    C6    S    
C11   H20   S    
C2    H10   S    
C20   C39   S    
C15   O13   A    
C3    C5    S    
Cu1   O10   S    
C22   C25   A    
C31   O14   D    
C2    C4    S    
Cu1   Cu2   S    
C7    H18   S    
C36   O5    D    
C12   O7    A    
C29   C39   A    
C6    C37   S    
C16   C18   A    
C10   N2    S    
C33   O3    D    
C37   O6    D    
C20   C22   A    
Cu2   O11   S    
C21   C24   A    
C2    C5    S    
C16   H22   S    
C14   O12   A    
C29   H7    S    
C7    C9    S    
C30   H8    S    
C3    C41   S    
Cu1   O1    S    
C17   C28   A    
C24   C26   A    
C36   H16   S    
C14   C34   S    
C37   H17   S    
C11   N1    S    
C25   C27   A    
C23   C38   A    
C26   C28   A    
C1    C4    S    
Cu2   O8    S    
C15   C23   S    
C17   C19   A    
C18   C20   A    
C35   C41   S    
C25   H5    S    
C10   C11   S    
C8    H19   S    
C8    C13   S    
C8    C10   S    
C6    C42   S    
C5    C40   S    
C31   H11   S    
C18   H24   S    
C32   O2    D    
