data_mof_unit_3319.cif
_audit_creation_date              2013-03-05T16:12:06-0500
_audit_creation_method            fapswitch 2.2
_symmetry_space_group_name_H-M    P1
_symmetry_Int_Tables_number       1
_space_group_crystal_system       triclinic
_cell_length_a                    9.818243
_cell_length_b                    10.685947
_cell_length_c                    16.80665
_cell_angle_alpha                 90.245881
_cell_angle_beta                  83.79253
_cell_angle_gamma                 89.263928
_cell_volume                      1752.79530385

loop_
_atom_site_label
_atom_site_type_symbol
_atom_site_description
_atom_site_fract_x
_atom_site_fract_y
_atom_site_fract_z
_atom_type_partial_charge
O1    O     O_R   0.385380 0.683250 0.500010 -0.596267
O2    O     O_R   0.614620 0.316750 0.499990 -0.595401
O3    O     O_R   0.614710 0.683220 0.500000 -0.626287
O4    O     O_R   0.385290 0.316780 0.500000 -0.630095
C1    C     C_R   0.499148 0.739987 0.499158 0.899003
C2    C     C_R   0.500932 0.260030 0.500465 0.887990
O5    O     O_R   0.371780 0.500040 0.615800 -0.589800
O6    O     O_R   0.628220 0.499960 0.384200 -0.593982
O7    O     O_R   0.601110 0.500010 0.615800 -0.624100
O8    O     O_R   0.398890 0.499990 0.384200 -0.623717
C3    C     C_R   0.479249 0.496047 0.653289 0.889248
C4    C     C_R   0.520756 0.496817 0.346840 0.891729
Zn1   Zn    Zn3+2 0.346870 0.500020 0.500000 0.953319
Zn2   Zn    Zn3+2 0.653130 0.499980 0.500000 0.956281
C5    C     C_R   0.463388 0.476767 0.739530 -0.098128
C6    C     C_R   0.538275 0.466942 0.262052 -0.089873
C7    C     C_R   0.569941 0.514280 0.782424 -0.268729
C8    C     C_R   0.446314 0.382367 0.234548 -0.272940
C9    C     C_R   0.565823 0.488247 0.862803 -0.219500
C10   C     C_R   0.464444 0.340193 0.156582 -0.223563
C11   C     C_R   0.454007 0.425543 0.902373 0.126913
C12   C     C_R   0.573785 0.383349 0.104253 0.124981
C13   C     C_R   0.340818 0.394671 0.861847 0.181653
C14   C     C_R   0.673099 0.461949 0.131794 0.170409
C15   C     C_R   0.347889 0.415178 0.778652 0.136176
C16   C     C_R   0.653863 0.507025 0.211455 0.149276
C17   C     C_2   0.454190 0.396652 0.987165 -0.200233
C18   C     C_2   0.569841 0.365979 0.018424 -0.213049
H1    H     H_    0.658145 0.562408 0.753377 0.165954
H2    H     H_    0.360524 0.347434 0.273862 0.162692
H3    H     H_    0.665513 0.352218 0.980274 0.176838
H4    H     H_    0.359525 0.412204 0.025825 0.177766
H5    H     H_    0.389696 0.277409 0.135945 0.157505
H6    H     H_    0.650507 0.518185 0.894108 0.162367
C19   C     C_R   0.590220 0.932672 0.542970 -0.303825
C20   C     C_R   0.409761 0.067437 0.456743 -0.302552
H7    H     H_    0.658991 0.879887 0.576979 0.158409
H8    H     H_    0.340942 0.120255 0.422775 0.157345
C21   C     C_R   0.595056 0.061294 0.543242 0.208361
C22   C     C_R   0.404778 0.938821 0.456574 0.210266
C23   C     C_R   0.503166 0.127718 0.500153 -0.095388
C24   C     C_R   0.496879 0.872353 0.499506 -0.093696
C25   C     C_R   0.938728 0.426378 0.447427 -0.077519
C26   C     C_R   0.061268 0.573520 0.552626 -0.076537
H9    H     H_    0.892556 0.367670 0.405421 0.121164
H10   H     H_    0.107436 0.632167 0.594663 0.120988
C27   C     C_R   0.082754 0.426239 0.447534 -0.067607
C28   C     C_R   0.917246 0.573646 0.552529 -0.069417
H11   H     H_    0.146037 0.367207 0.405683 0.117182
H12   H     H_    0.853962 0.632590 0.594433 0.118959
N1    N     N_R   0.142790 0.500030 0.500020 -0.070246
N2    N     N_R   0.857210 0.499970 0.499980 -0.071306
N3    N     N_2   0.746844 0.593852 0.240300 -0.291353
H13   H     H_    0.845799 0.589975 0.212919 0.221359
C29   C     C_3   0.694528 0.720833 0.251685 -0.758417
H14   H     H_    0.669010 0.760331 0.194055 0.229366
H15   H     H_    0.773326 0.780072 0.275274 0.233502
H16   H     H_    0.601503 0.724225 0.295489 0.232756
N4    N     N_2   0.242809 0.370479 0.733939 -0.292255
H17   H     H_    0.144499 0.380392 0.761771 0.223880
C30   C     C_3   0.269844 0.247654 0.698611 -0.743663
H18   H     H_    0.265656 0.175089 0.745874 0.209293
H19   H     H_    0.372408 0.243779 0.663625 0.239335
H20   H     H_    0.191568 0.226717 0.657613 0.240876
N5    N     N_2   0.224967 0.336532 0.904211 -0.318074
H21   H     H_    0.186780 0.262163 0.874769 0.230967
C31   C     C_3   0.118646 0.422948 0.937263 -0.842333
H22   H     H_    0.070783 0.471052 0.888638 0.234292
H23   H     H_    0.160991 0.494331 0.975661 0.247184
H24   H     H_    0.038278 0.370760 0.974488 0.250885
N6    N     N_2   0.787988 0.497786 0.077964 -0.326555
H25   H     H_    0.882173 0.483716 0.098447 0.212669
C32   C     C_3   0.774454 0.616151 0.037956 -0.815611
H26   H     H_    0.804845 0.693968 0.075970 0.242665
H27   H     H_    0.667563 0.632243 0.023767 0.252784
H28   H     H_    0.843426 0.615511 0.981043 0.239056
N7    N     N_2   0.687172 0.123246 0.589602 -0.291359
H29   H     H_    0.680252 0.092558 0.647999 0.213416
C33   C     C_3   0.827626 0.123723 0.553099 -0.741457
H30   H     H_    0.871710 0.027266 0.550718 0.216175
H31   H     H_    0.889677 0.183714 0.589031 0.234151
H32   H     H_    0.833378 0.161934 0.491476 0.248606
N8    N     N_2   0.311976 0.876935 0.410657 -0.292476
H33   H     H_    0.318120 0.907696 0.352293 0.212310
C34   C     C_3   0.171903 0.876639 0.447787 -0.742105
H34   H     H_    0.127955 0.973153 0.450348 0.215840
H35   H     H_    0.166929 0.838462 0.509396 0.247994
H36   H     H_    0.109233 0.816710 0.412199 0.237281

loop_
_geom_bond_atom_site_label_1
_geom_bond_atom_site_label_2
_geom_bond_distance
_ccdc_geom_bond_type
C29   H14   1.110095 S    
C7    H1    1.083955 S    
C32   H26   1.109834 S    
N3    C29   1.449225 S    
C1    C24   1.414317 S    
C21   C23   1.404088 A    
N7    H29   1.031656 S    
O5    C3    1.286465 A    
O1    C1    1.276519 A    
C21   N7    1.423612 S    
C9    C11   1.400471 A    
C14   C16   1.413379 A    
C34   H34   1.111699 S    
C25   N2    1.365326 A    
C5    C15   1.418820 A    
O4    Zn1   1.989332 S    
C30   H19   1.110030 S    
C19   C24   1.394588 A    
Zn1   N1    2.003670 S    
C3    C5    1.456747 S    
Zn2   N2    2.003670 S    
C4    C6    1.450448 S    
N5    C31   1.447910 S    
C2    C23   1.413744 S    
C8    H2    1.084086 S    
C28   H12   1.081798 S    
C11   C17   1.459603 S    
N4    H17   1.030049 S    
C12   C18   1.458340 S    
C32   H27   1.112511 S    
C22   N8    1.423458 S    
C20   C23   1.394317 A    
O2    C2    1.276268 A    
C26   H10   1.081714 S    
N7    C33   1.447528 S    
C11   C13   1.406747 A    
C6    C16   1.414716 A    
N4    C30   1.447728 S    
C34   H35   1.110922 S    
C31   H22   1.110569 S    
C20   C22   1.375877 A    
O4    C2    1.281104 A    
C33   H31   1.110444 S    
C27   N1    1.365937 A    
N3    H13   1.029339 S    
C9    H6    1.081887 S    
C31   H23   1.110457 S    
C30   H20   1.110442 S    
C19   C21   1.375883 A    
O7    Zn2   1.957963 S    
O7    C3    1.291819 A    
N8    H33   1.031674 S    
C28   N2    1.365945 A    
O6    C4    1.285545 A    
C25   H9    1.081757 S    
O3    Zn2   1.989332 S    
O8    C4    1.289712 A    
C10   H5    1.083839 S    
C26   N1    1.365250 A    
N8    C34   1.447531 S    
C10   C12   1.396651 A    
C29   H15   1.110493 S    
C32   H28   1.110544 S    
C12   C14   1.409181 A    
O1    Zn1   1.998925 S    
C16   N3    1.429302 S    
N6    C32   1.446349 S    
C34   H36   1.110352 S    
C5    C7    1.395082 A    
O6    Zn2   1.987582 S    
C19   H7    1.084998 S    
C17   H4    1.085438 S    
C18   H3    1.086486 S    
O3    C1    1.281170 A    
O8    Zn1   1.957963 S    
C33   H32   1.110903 S    
C27   H11   1.081813 S    
C31   H24   1.110220 S    
C13   N5    1.426032 S    
C20   H8    1.085078 S    
N6    H25   1.030520 S    
C22   C24   1.404219 A    
C7    C9    1.376825 A    
C8    C10   1.376316 A    
C13   C15   1.410641 A    
C30   H18   1.110404 S    
O2    Zn2   1.998925 S    
C33   H30   1.111661 S    
O5    Zn1   1.987582 S    
C6    C8    1.397610 A    
N5    H21   1.030224 S    
C29   H16   1.109518 S    
C17   C18   1.339294 D    
C15   N4    1.426365 S    
C25   C27   1.414260 A    
C26   C28   1.414213 A    
C14   N6    1.425096 S    
