data_mof_unit_438.cif
_audit_creation_date              2012-12-10T20:25:38-0500
_audit_creation_method            fapswitch 2.2
_symmetry_space_group_name_H-M    P1
_symmetry_Int_Tables_number       1
_space_group_crystal_system       triclinic
_cell_length_a                    8.587227
_cell_length_b                    10.648325
_cell_length_c                    9.874149
_cell_angle_alpha                 89.674077
_cell_angle_beta                  98.469095
_cell_angle_gamma                 90.177382
_cell_volume                      893.02570948

loop_
_atom_site_label
_atom_site_type_symbol
_atom_type_description
_atom_site_fract_x
_atom_site_fract_y
_atom_site_fract_z
_atom_type_partial_charge
C1    C     C_R   0.513834 0.260361 0.501934 0.905767
C2    C     C_R   0.589429 0.933778 0.395738 -0.271215
C3    C     C_R   0.535338 0.871469 0.505281 -0.129142
C4    C     C_R   0.525978 0.935643 0.625592 0.139400
C5    C     C_3   0.403661 0.930541 0.718353 -0.457074
C6    C     C_3   0.412528 0.072608 0.721190 -0.471579
C7    C     C_R   0.363513 0.481562 0.054110 0.208925
C8    C     C_R   0.632235 0.529230 0.088547 -0.097885
C9    C     C_R   0.632293 0.529097 0.944787 -0.137396
C10   C     C_R   0.363198 0.481952 0.911599 0.214093
C11   C     C_3   0.259593 0.368656 0.894673 -0.508194
C12   C     C_R   0.201251 0.500047 0.464203 0.962516
C13   C     C_3   0.260526 0.368514 0.048448 -0.485105
C14   C     C_R   0.505286 0.740208 0.500393 0.881567
C15   C     C_R   0.798713 0.501241 0.535675 0.981917
C16   C     C_2   0.036155 0.498483 0.444830 -0.351374
C17   C     C_2   0.963651 0.505517 0.554495 -0.386733
C18   C     C_R   0.533746 0.063243 0.627261 0.128983
C19   C     C_R   0.552530 0.129496 0.508542 -0.190650
C20   C     C_R   0.603391 0.064343 0.397642 -0.050885
H1    H     H_    0.974792 0.489940 0.340752 0.180681
H2    H     H_    0.739795 0.550788 0.904578 0.151239
H3    H     H_    0.141621 0.388951 0.836669 0.199423
H4    H     H_    0.319321 0.286313 0.857997 0.216434
H5    H     H_    0.143652 0.390044 0.078284 0.202902
H6    H     H_    0.321420 0.285831 0.101204 0.230524
H7    H     H_    0.024953 0.515609 0.658174 0.165908
H8    H     H_    0.616815 0.881621 0.308283 0.201826
H9    H     H_    0.288705 0.893862 0.666880 0.199265
H10   H     H_    0.448461 0.886090 0.818640 0.220017
H11   H     H_    0.302065 0.118731 0.672583 0.203768
H12   H     H_    0.463827 0.109196 0.823289 0.216206
H13   H     H_    0.739692 0.551261 0.155805 0.146921
N1    N     N_R   0.498950 0.499140 0.142680 -0.103680
N2    N     N_R   0.498950 0.499180 0.857030 -0.108160
O1    O     O_R   0.500020 0.316790 0.614690 -0.618331
O2    O     O_R   0.500000 0.316760 0.385350 -0.597465
O3    O     O_R   0.271760 0.500010 0.587850 -0.614523
O4    O     O_R   0.271740 0.499970 0.358500 -0.626441
O5    O     O_R   0.500000 0.683240 0.614650 -0.618916
O6    O     O_R   0.499980 0.683210 0.385310 -0.623866
O7    O     O_R   0.728260 0.500030 0.641500 -0.641275
O8    O     O_R   0.728240 0.499990 0.412150 -0.600297
Zn1   Zn    Zn3+2 0.500010 0.500020 0.653130 0.942396
Zn2   Zn    Zn3+2 0.499990 0.499980 0.346870 0.971624
C21   C     C_2   0.667339 0.126998 0.282845 0.937745
O9    O     O_2   0.754792 0.217834 0.304646 -0.627131
O10   O     O_R   0.632379 0.078934 0.150289 -0.828836
H14   H     H_    0.683047 0.129300 0.080924 0.336110

loop_
_geom_bond_atom_site_label_1
_geom_bond_atom_site_label_2
_ccdc_geom_bond_type
C8    C9    A    
C7    C10   A    
C6    H12   S    
O3    Zn1   S    
C16   H1    S    
O2    Zn2   S    
O8    Zn2   S    
C19   C20   A    
C1    O2    A    
O4    Zn2   S    
C4    C18   A    
C12   O4    A    
C7    C13   S    
C2    C3    A    
C15   O8    A    
N1    Zn2   S    
C8    N1    A    
N2    Zn1   S    
C11   C13   S    
C13   H5    S    
C10   N2    A    
C3    C14   S    
O7    Zn1   S    
C14   O6    A    
C11   H3    S    
O10   H14   S    
C6    H11   S    
C5    H9    S    
C8    H13   S    
C12   O3    A    
C5    C6    S    
C6    C18   S    
C7    N1    A    
C21   O10   S    
C13   H6    S    
O1    Zn1   S    
C1    C19   S    
C10   C11   S    
C14   O5    A    
C3    C4    A    
C17   H7    S    
C16   C17   D    
C11   H4    S    
O5    Zn1   S    
C1    O1    A    
C15   C17   S    
C9    H2    S    
C5    H10   S    
C9    N2    A    
O6    Zn2   S    
C21   O9    D    
C18   C19   A    
C2    H8    S    
C2    C20   A    
C20   C21   S    
C12   C16   S    
C15   O7    A    
C4    C5    S    
