data_mof_unit_2929.cif
_audit_creation_date              2012-12-10T18:10:46-0500
_audit_creation_method            fapswitch 2.2
_symmetry_space_group_name_H-M    P1
_symmetry_Int_Tables_number       1
_space_group_crystal_system       triclinic
_cell_length_a                    12.60763
_cell_length_b                    13.113447
_cell_length_c                    15.739783
_cell_angle_alpha                 91.110234
_cell_angle_beta                  102.352028
_cell_angle_gamma                 83.601677
_cell_volume                      2526.15223109

loop_
_atom_site_label
_atom_site_type_symbol
_atom_type_description
_atom_site_fract_x
_atom_site_fract_y
_atom_site_fract_z
_atom_type_partial_charge
C1    C     C_R   0.440847 0.689979 0.480243 0.864156
C2    C     C_3   0.382709 0.550204 0.028554 -0.389799
C3    C     C_3   0.496898 0.509009 0.081896 0.365269
C4    C     C_3   0.527987 0.398899 0.051381 -0.413473
C5    C     C_3   0.527971 0.399009 0.953520 -0.392785
C6    C     C_1   0.495776 0.507488 0.173338 -0.134967
C7    C     C_1   0.500831 0.508647 0.825897 -0.124745
C8    C     C_1   0.501201 0.505512 0.750599 -0.202808
C9    C     C_R   0.730883 0.058033 0.488289 -0.210566
C10   C     C_R   0.593894 0.199022 0.500595 -0.058870
C11   C     C_R   0.296071 0.832792 0.430125 -0.210637
C12   C     C_R   0.500510 0.501247 0.661518 0.921784
C13   C     C_R   0.263516 0.934648 0.405928 -0.127152
C14   C     C_R   0.341649 0.002243 0.408118 -0.192721
C15   C     C_R   0.454152 0.966907 0.430836 0.072203
C16   C     C_R   0.485430 0.860637 0.435196 0.090384
C17   C     C_R   0.536914 0.033049 0.452527 0.075650
C18   C     C_R   0.648137 0.994041 0.460679 0.180237
C19   C     C_R   0.674563 0.891203 0.442408 -0.256726
C20   C     C_R   0.593827 0.825032 0.429029 -0.172505
C21   C     C_R   0.512111 0.134780 0.474345 -0.251694
C22   C     C_R   0.703916 0.160150 0.509029 -0.223748
C23   C     C_R   0.559936 0.308259 0.508654 0.848703
C24   C     C_R   0.407291 0.795109 0.447140 -0.120133
C25   C     C_R   0.098862 0.319586 0.411289 0.452601
C26   C     C_R   0.800087 0.633632 0.600183 0.654384
C27   C     C_R   0.902178 0.671237 0.610688 -0.379420
C28   C     C_R   0.980915 0.622976 0.569492 -0.255906
C29   C     C_R   0.958984 0.537515 0.515554 0.057953
C30   C     C_R   0.852807 0.506086 0.501896 0.085650
C31   C     C_R   0.039174 0.480197 0.477352 -0.116355
C32   C     C_R   0.013267 0.388801 0.431160 -0.067735
C33   C     C_R   0.903843 0.368040 0.406691 0.419970
C34   C     C_R   0.498981 0.500633 0.338300 0.883645
C35   C     C_R   0.825988 0.425150 0.444855 -0.324745
C36   C     C_R   0.146331 0.507034 0.486641 -0.054607
C37   C     C_R   0.201520 0.352480 0.419785 -0.118643
C38   C     C_3   0.384558 0.551669 0.930748 -0.394755
C39   C     C_3   0.584394 0.577933 0.967382 -0.402914
C40   C     C_3   0.581785 0.578729 0.065141 -0.393699
C41   C     C_1   0.496279 0.504480 0.248817 -0.184544
C42   C     C_3   0.499483 0.509658 0.917144 0.366194
H1    H     H_    0.358458 0.629158 0.049990 0.168035
H2    H     H_    0.320482 0.500796 0.039415 0.170955
H3    H     H_    0.610770 0.368862 0.088183 0.171762
H4    H     H_    0.768418 0.209303 0.528492 0.164716
H5    H     H_    0.758165 0.860917 0.442458 0.149253
H6    H     H_    0.816082 0.029046 0.494179 0.134062
H7    H     H_    0.428642 0.164540 0.473301 0.148293
H8    H     H_    0.234103 0.783499 0.434872 0.156783
H9    H     H_    0.312867 0.081198 0.390255 0.144221
H10   H     H_    0.177581 0.962040 0.388756 0.149232
H11   H     H_    0.362762 0.631574 0.905258 0.167316
H12   H     H_    0.617759 0.746533 0.413186 0.179791
H13   H     H_    0.267070 0.301549 0.402520 0.152253
H14   H     H_    0.172474 0.575863 0.518870 0.138278
H15   H     H_    0.058407 0.653870 0.582058 0.156747
H16   H     H_    0.921866 0.738145 0.649369 0.155112
H17   H     H_    0.745841 0.402445 0.431331 0.219935
H18   H     H_    0.667639 0.547938 0.959062 0.177880
H19   H     H_    0.566547 0.657713 0.941231 0.166337
H20   H     H_    0.560489 0.658678 0.085874 0.169380
H21   H     H_    0.467365 0.348677 0.918616 0.169856
H22   H     H_    0.468918 0.346839 0.063757 0.176273
N1    N     N_R   0.222200 0.444690 0.455710 -0.125273
N2    N     N_R   0.776960 0.554780 0.543830 -0.155036
O1    O     O_R   0.366740 0.627160 0.478850 -0.625127
O2    O     O_R   0.544830 0.662520 0.507140 -0.571114
O3    O     O_R   0.410920 0.482310 0.608710 -0.608281
O4    O     O_R   0.589010 0.517670 0.637000 -0.580234
O5    O     O_R   0.455170 0.337480 0.492860 -0.623127
O6    O     O_R   0.633260 0.372840 0.521150 -0.643323
O7    O     O_R   0.410990 0.482330 0.363000 -0.600959
O8    O     O_R   0.589080 0.517690 0.391290 -0.650280
Zn1   Zn    Zn3+2 0.381090 0.476390 0.481110 0.938758
Zn2   Zn    Zn3+2 0.618910 0.523610 0.518890 0.955372
H23   H     H_    0.322034 0.504227 0.894293 0.169817
O9    O     O_3   0.878811 0.283749 0.353906 -0.622168
C43   C     C_3   0.782106 0.302218 0.288640 0.075120
H24   H     H_    0.804096 0.281931 0.225267 0.171508
H25   H     H_    0.744925 0.383682 0.282474 0.118506
C44   C     C_3   0.699653 0.231563 0.304928 -0.326271
H26   H     H_    0.742364 0.153789 0.323204 0.250347
H27   H     H_    0.663248 0.263046 0.359110 0.212234
C45   C     C_3   0.607379 0.221610 0.226251 -0.988146
H28   H     H_    0.555613 0.295741 0.213163 0.268331
H29   H     H_    0.555563 0.163533 0.240190 0.274553
H30   H     H_    0.640257 0.196760 0.168207 0.263107
O10   O     O_3   0.087612 0.217697 0.389986 -0.619599
C46   C     C_3   0.073229 0.162882 0.463171 0.130468
H31   H     H_    0.056769 0.084297 0.440899 0.159638
H32   H     H_    0.000205 0.195537 0.487538 0.151912
C47   C     C_3   0.174059 0.155885 0.538812 -0.432552
H33   H     H_    0.249574 0.136858 0.514029 0.233541
H34   H     H_    0.179201 0.231249 0.572134 0.215315
C48   C     C_3   0.167877 0.074709 0.605199 -0.936176
H35   H     H_    0.092930 0.092698 0.631528 0.257331
H36   H     H_    0.240316 0.073231 0.659753 0.269281
H37   H     H_    0.167122 0.997635 0.574630 0.264652
O11   O     O_3   0.717148 0.679623 0.638515 -0.608851
C49   C     C_3   0.753205 0.706653 0.726845 0.070110
H38   H     H_    0.680506 0.744115 0.749096 0.169772
H39   H     H_    0.810951 0.765753 0.734915 0.121473
C50   C     C_3   0.799183 0.612815 0.785838 -0.372197
H40   H     H_    0.736028 0.559053 0.780599 0.242240
H41   H     H_    0.871648 0.571754 0.765658 0.211152
C51   C     C_3   0.833266 0.644919 0.880579 -0.979837
H42   H     H_    0.899879 0.695281 0.887986 0.269166
H43   H     H_    0.863304 0.575738 0.922037 0.264146
H44   H     H_    0.762741 0.686701 0.902984 0.260216
H45   H     H_    0.664406 0.551323 0.103922 0.165596
H46   H     H_    0.609801 0.366712 0.943333 0.166288

loop_
_geom_bond_atom_site_label_1
_geom_bond_atom_site_label_2
_ccdc_geom_bond_type
C12   O3    A    
C47   H33   S    
O7    Zn1   S    
C19   C20   A    
O6    Zn2   S    
C3    C6    S    
C38   H23   S    
C21   H7    S    
C7    C8    T    
C28   H15   S    
C10   C22   A    
C26   C27   A    
C49   H38   S    
O8    Zn2   S    
C30   C35   A    
C28   C29   A    
C38   C42   S    
C33   C35   A    
C19   H5    S    
C9    C22   A    
C15   C16   A    
C48   H37   S    
C11   C24   A    
C1    O2    A    
C40   H20   S    
C5    H21   S    
C35   H17   S    
C18   C19   A    
C7    C42   S    
C25   C37   A    
C14   H9    S    
C2    H2    S    
C6    C41   T    
C48   H36   S    
C51   H42   S    
C39   C42   S    
C16   C20   A    
C25   C32   A    
C16   C24   A    
C13   C14   A    
C51   H43   S    
C34   C41   S    
C50   H41   S    
C50   H40   S    
C40   H45   S    
C4    H3    S    
C45   H29   S    
C10   C21   A    
C39   H19   S    
C26   N2    A    
C23   O5    A    
C20   H12   S    
C39   C40   S    
C43   H25   S    
C36   N1    A    
C45   H28   S    
C17   C21   A    
C37   N1    A    
C29   C30   A    
C36   H14   S    
C13   H10   S    
C2    C38   S    
C46   H32   S    
C31   C32   A    
C14   C15   A    
C2    H1    S    
C8    C12   S    
N2    Zn2   S    
C48   H35   S    
C17   C18   A    
C30   N2    A    
C34   O8    A    
C22   H4    S    
C3    C40   S    
C47   C48   S    
C44   H27   S    
O4    Zn2   S    
C51   H44   S    
O1    Zn1   S    
C3    C4    S    
C5    C42   S    
C46   C47   S    
C45   H30   S    
C15   C17   A    
C12   O4    A    
O9    C43   S    
C23   O6    A    
C4    C5    S    
C27   H16   S    
C43   C44   S    
C5    H46   S    
C10   C23   S    
O2    Zn2   S    
C44   C45   S    
C4    H22   S    
C25   O10   S    
N1    Zn1   S    
C32   C33   A    
C2    C3    S    
C29   C31   A    
C11   H8    S    
C1    C24   S    
O5    Zn1   S    
C11   C13   A    
C46   H31   S    
C47   H34   S    
C38   H11   S    
C39   H18   S    
O11   C49   S    
C1    O1    A    
O3    Zn1   S    
C33   O9    S    
C34   O7    A    
C43   H24   S    
C37   H13   S    
C9    C18   A    
C9    H6    S    
C49   H39   S    
C44   H26   S    
C27   C28   A    
C31   C36   A    
C49   C50   S    
O10   C46   S    
C50   C51   S    
C26   O11   S    
