data_mof_unit_527.cif
_audit_creation_date              2012-12-11T14:15:33-0500
_audit_creation_method            fapswitch 2.2
_symmetry_space_group_name_H-M    P1
_symmetry_Int_Tables_number       1
_space_group_crystal_system       triclinic
_cell_length_a                    11.170299
_cell_length_b                    12.699745
_cell_length_c                    23.572619
_cell_angle_alpha                 90.453367
_cell_angle_beta                  96.549534
_cell_angle_gamma                 68.555203
_cell_volume                      3090.12704424

loop_
_atom_site_label
_atom_site_type_symbol
_atom_type_description
_atom_site_fract_x
_atom_site_fract_y
_atom_site_fract_z
_atom_type_partial_charge
C1    C     C_R   0.149189 0.616858 0.428779 0.545689
C2    C     C_R   0.599645 0.601283 0.320375 -0.125534
C3    C     C_R   0.723814 0.724105 0.320150 -0.121163
C4    C     C_R   0.692178 0.742397 0.261673 -0.002057
C5    C     C_R   0.613549 0.689497 0.232841 0.027866
C6    C     C_R   0.587985 0.701298 0.174596 -0.163036
C7    C     C_R   0.718162 0.818987 0.171644 0.221791
C8    C     C_R   0.743298 0.807486 0.231294 -0.131222
C9    C     C_1   0.235682 0.161842 0.123083 0.018284
C10   C     C_2   0.181378 0.232249 0.226645 -0.114130
C11   C     C_2   0.156349 0.164578 0.263210 -0.113739
C12   C     C_R   0.747861 0.605681 0.405102 0.544374
C13   C     C_1   0.133326 0.198703 0.320844 -0.041358
C14   C     C_1   0.210483 0.196531 0.169814 -0.029719
C15   C     C_1   0.116729 0.232125 0.368506 0.002682
C16   C     C_1   0.168020 0.748372 0.123466 0.063092
C17   C     C_2   0.148802 0.678810 0.226840 -0.099784
C18   C     C_2   0.226727 0.690524 0.272180 -0.136885
C19   C     C_1   0.212848 0.659150 0.329237 -0.048771
C20   C     C_1   0.157726 0.716095 0.170150 0.020001
C21   C     C_1   0.192345 0.636821 0.376067 -0.005115
C22   C     C_1   0.628468 0.756145 0.864933 0.001779
C23   C     C_R   0.101276 0.282502 0.423346 0.545163
C24   C     C_2   0.700875 0.707402 0.761661 -0.124929
C25   C     C_2   0.613297 0.703260 0.718609 -0.122930
C26   C     C_1   0.651943 0.669363 0.662815 -0.048416
C27   C     C_1   0.664323 0.735428 0.818280 -0.044005
C28   C     C_1   0.690743 0.639545 0.617374 -0.005023
C29   C     C_R   0.195905 0.178937 0.854384 0.016616
C30   C     C_R   0.104763 0.239909 0.642943 0.021980
C31   C     C_R   0.043152 0.137815 0.712802 -0.130450
C32   C     C_R   0.041325 0.168004 0.655919 -0.132056
C33   C     C_R   0.163489 0.286706 0.686316 -0.115205
C34   C     C_R   0.146844 0.615255 0.591723 0.543007
C35   C     C_R   0.165265 0.257950 0.742751 0.042575
C36   C     C_R   0.106723 0.181227 0.756275 0.042982
C37   C     C_R   0.119763 0.144294 0.812650 -0.123846
C38   C     C_R   0.246680 0.260334 0.841399 -0.125208
C39   C     C_R   0.229779 0.301113 0.785608 -0.131914
C40   C     C_R   0.127729 0.743761 0.853753 0.011956
C41   C     C_R   0.178112 0.631651 0.651752 0.012364
C42   C     C_R   0.308917 0.569347 0.742732 -0.152678
C43   C     C_R   0.293368 0.561708 0.683520 -0.147564
C44   C     C_R   0.078483 0.707906 0.679316 -0.120354
C45   C     C_R   0.749982 0.602192 0.566130 0.543626
C46   C     C_R   0.091556 0.713817 0.737802 0.039072
C47   C     C_R   0.208068 0.645109 0.769989 0.041381
C48   C     C_R   0.223925 0.658252 0.828414 -0.126684
C49   C     C_R   0.008003 0.804364 0.822322 -0.131575
C50   C     C_R   0.990000 0.789384 0.764281 -0.154911
C51   C     C_R   0.265814 0.109765 0.069497 0.536501
C52   C     C_R   0.595667 0.776454 0.082278 0.583089
C53   C     C_R   0.189777 0.787734 0.069848 0.554790
C54   C     C_R   0.241039 0.114676 0.907829 0.536282
C55   C     C_R   0.573732 0.776471 0.918090 0.552629
C56   C     C_R   0.099397 0.280255 0.585410 0.538838
C57   C     C_R   0.164042 0.785877 0.907682 0.545993
C58   C     C_R   0.640760 0.763604 0.143137 0.007110
C59   C     C_R   0.683378 0.648723 0.348877 0.017430
C60   C     C_R   0.564146 0.622219 0.262275 -0.133339
Cr1   Cr    Cr6+3 0.189770 0.415650 0.511620 1.029079
Cr2   Cr    Cr6+3 0.930400 0.667320 0.496770 1.020137
Cr3   Cr    Cr6+3 0.879870 0.417010 0.491650 1.031799
Cr4   Cr    Cr6+3 0.149500 0.973980 0.985330 1.063234
Cr5   Cr    Cr6+3 0.457000 0.976510 0.994660 1.109678
Cr6   Cr    Cr6+3 0.411170 0.724270 0.995270 1.023090
H1    H     H_    0.523882 0.661997 0.153864 0.145553
H2    H     H_    0.076128 0.642744 0.232174 0.143088
H3    H     H_    0.512838 0.723151 0.725343 0.142042
H4    H     H_    0.801572 0.685592 0.755011 0.141964
H5    H     H_    0.081333 0.080639 0.822976 0.127159
H6    H     H_    0.304861 0.287671 0.873812 0.128578
H7    H     H_    0.997305 0.079421 0.722735 0.111038
H8    H     H_    0.273524 0.360937 0.775500 0.113843
H9    H     H_    0.992186 0.134784 0.622267 0.117918
H10   H     H_    0.207691 0.346356 0.676081 0.129671
H11   H     H_    0.316057 0.609716 0.852794 0.129985
H12   H     H_    0.932213 0.869196 0.841617 0.141917
H13   H     H_    0.398882 0.516181 0.767111 0.110798
H14   H     H_    0.899428 0.840908 0.739711 0.107078
H15   H     H_    0.369669 0.500644 0.662766 0.128988
H16   H     H_    0.987291 0.760673 0.655550 0.134885
H17   H     H_    0.503362 0.581546 0.239950 0.112790
H18   H     H_    0.803996 0.847607 0.254085 0.134397
H19   H     H_    0.567380 0.543713 0.342348 0.136969
H20   H     H_    0.788993 0.760905 0.342163 0.135034
H21   H     H_    0.155770 0.082366 0.250415 0.146484
H22   H     H_    0.182717 0.314130 0.239643 0.135868
H23   H     H_    0.296891 0.729324 0.266981 0.135191
O1    O     O_R   0.196340 0.303200 0.448500 -0.505338
O2    O     O_R   0.811960 0.658090 0.547150 -0.499540
O3    O     O_R   0.757930 0.506140 0.547110 -0.505756
O4    O     O_R   0.988670 0.321620 0.556040 -0.497966
O5    O     O_3   0.000020 0.499990 0.500010 -0.250947
O6    O     O_R   0.113660 0.883270 0.047820 -0.451973
O7    O     O_R   0.186930 0.068530 0.043990 -0.496567
O8    O     O_R   0.377770 0.089040 0.054220 -0.478348
O9    O     O_R   0.562800 0.872960 0.056970 -0.428715
O10   O     O_R   0.555390 0.700940 0.062700 -0.534051
O11   O     O_R   0.295020 0.731920 0.049950 -0.522674
O12   O     O_R   0.199310 0.519670 0.454880 -0.491750
O13   O     O_R   0.094290 0.884230 0.921550 -0.514439
O14   O     O_R   0.168980 0.069410 0.926940 -0.507429
O15   O     O_R   0.358400 0.089990 0.927950 -0.512525
O16   O     O_R   0.544850 0.873850 0.939920 -0.483364
O17   O     O_R   0.536020 0.701900 0.936430 -0.510124
O18   O     O_R   0.277070 0.732810 0.932890 -0.508329
O19   O     O_3   0.339220 0.891590 0.991750 -0.273098
O20   O     O_R   0.045660 0.691380 0.441680 -0.510502
O21   O     O_R   0.811930 0.659460 0.430950 -0.509355
O22   O     O_R   0.757900 0.507620 0.421760 -0.512769
O23   O     O_R   0.988630 0.322990 0.439840 -0.493210
O24   O     O_R   0.196380 0.301720 0.573850 -0.518977
O25   O     O_R   0.199350 0.518300 0.571080 -0.503544
O26   O     O_R   0.045700 0.689900 0.567030 -0.523180
S1    S     S_3+6 0.785642 0.900746 0.134869 0.014313
O27   O     O_2   0.843661 0.838214 0.084269 -0.259342
O28   O     O_2   0.680942 0.011380 0.114106 -0.266139
O29   O     O_3   0.901644 0.926971 0.177958 -0.531468
H24   H     H_    0.854961 0.993721 0.199592 0.343508

loop_
_geom_bond_atom_site_label_1
_geom_bond_atom_site_label_2
_ccdc_geom_bond_type
C48   H11   S    
Cr4   O14   S    
C1    C21   S    
C53   O6    A    
C6    C58   A    
Cr1   O12   S    
C35   C36   A    
C9    C51   S    
C24   C27   S    
Cr6   O18   S    
C4    C8    A    
C32   H9    S    
C12   O21   A    
C24   H4    S    
C7    C8    A    
C37   H5    S    
S1    O27   D    
Cr4   O13   S    
C57   O13   A    
Cr3   O5    S    
C10   H22   S    
C55   O16   A    
C54   O15   A    
C36   C37   A    
C19   C21   T    
Cr5   O9    S    
C44   H16   S    
C38   C39   A    
C60   H17   S    
C2    C60   A    
C31   H7    S    
C29   C54   S    
C40   C49   A    
C2    C59   A    
C17   C20   S    
C49   H12   S    
C2    H19   S    
C18   C19   S    
C39   H8    S    
Cr6   O11   S    
Cr3   O23   S    
C45   O3    A    
C16   C53   S    
C1    O20   A    
C12   C59   S    
C31   C32   A    
C11   H21   S    
C29   C38   A    
C56   O24   A    
Cr5   O19   S    
C5    C60   A    
C51   O7    A    
C15   C23   S    
C42   H13   S    
C3    H20   S    
C41   C43   A    
C34   C41   S    
Cr6   O17   S    
Cr5   O16   S    
C44   C46   A    
Cr4   O19   S    
C51   O8    A    
C53   O11   A    
C56   O4    A    
C38   H6    S    
C28   C45   S    
C55   O17   A    
C54   O14   A    
C24   C25   D    
Cr4   O7    S    
C7    S1    S    
C10   C14   S    
Cr1   O5    S    
C25   C26   S    
C30   C56   S    
Cr6   O10   S    
Cr3   O3    S    
C35   C39   A    
C9    C14   T    
C23   O23   A    
C33   H10   S    
C47   C48   A    
Cr2   O21   S    
C16   C20   T    
Cr2   O2    S    
C17   C18   D    
C23   O1    A    
C52   C58   S    
C6    H1    S    
C57   O18   A    
C22   C27   T    
C13   C15   T    
Cr1   O24   S    
C43   H15   S    
C41   C44   A    
C25   H3    S    
C42   C43   A    
C3    C4    A    
C1    O12   A    
Cr1   O1    S    
C40   C48   A    
C46   C50   A    
C46   C47   A    
C17   H2    S    
C40   C57   S    
C7    C58   A    
C30   C33   A    
C8    H18   S    
C18   H23   S    
Cr4   O6    S    
Cr6   O19   S    
C4    C5    A    
C50   H14   S    
O29   H24   S    
C22   C55   S    
C34   O25   A    
Cr3   O4    S    
C52   O10   A    
C26   C28   T    
S1    O29   S    
Cr2   O5    S    
C34   O26   A    
Cr5   O8    S    
Cr2   O26   S    
C30   C32   A    
C11   C13   S    
C5    C6    A    
Cr2   O20   S    
C52   O9    A    
C33   C35   A    
S1    O28   D    
C42   C47   A    
Cr3   O22   S    
C45   O2    A    
C10   C11   D    
C49   C50   A    
C29   C37   A    
Cr1   O25   S    
C31   C36   A    
Cr5   O15   S    
C12   O22   A    
C3    C59   A    
