data_mof_unit_2565.cif
_audit_creation_date              2012-12-11T15:39:22-0500
_audit_creation_method            fapswitch 2.2
_symmetry_space_group_name_H-M    P1
_symmetry_Int_Tables_number       1
_space_group_crystal_system       triclinic
_cell_length_a                    14.292001
_cell_length_b                    14.817573
_cell_length_c                    33.222185
_cell_angle_alpha                 98.063432
_cell_angle_beta                  90.562592
_cell_angle_gamma                 118.654638
_cell_volume                      6088.7395285

loop_
_atom_site_label
_atom_site_type_symbol
_atom_type_description
_atom_site_fract_x
_atom_site_fract_y
_atom_site_fract_z
_atom_type_partial_charge
C1    C     C_R   0.616675 0.910066 0.436850 0.552806
C2    C     C_R   0.711688 0.436470 0.949438 0.539279
C3    C     C_R   0.529771 0.772129 0.768908 -0.150265
C4    C     C_R   0.538046 0.787199 0.728322 -0.127713
C5    C     C_R   0.626427 0.793565 0.708175 0.020046
C6    C     C_R   0.705129 0.781972 0.728638 -0.060239
C7    C     C_R   0.697789 0.767738 0.769537 0.295263
C8    C     C_R   0.609678 0.763034 0.789686 0.073760
C9    C     C_R   0.553260 0.746434 0.636007 -0.177706
C10   C     C_R   0.551694 0.772159 0.597442 -0.146715
C11   C     C_R   0.719265 0.932007 0.617355 -0.095971
C12   C     C_3   0.414407 0.262937 0.399164 -0.099787
C13   C     C_R   0.709657 0.739704 0.950535 0.548016
C14   C     C_3   0.872519 0.289253 0.445979 -0.067634
C15   C     C_3   0.283646 0.720998 0.281879 -0.109788
C16   C     C_3   0.125323 0.631733 0.384165 -0.054812
C17   C     C_3   0.442005 0.630459 0.378050 -0.106122
C18   C     C_3   0.930270 0.353539 0.352358 -0.140740
C19   C     C_3   0.883455 0.348041 0.717617 -0.094286
C20   C     C_3   0.861609 0.317037 0.601878 -0.098054
C21   C     C_3   0.256327 0.945581 0.965226 -0.098114
C22   C     C_3   0.801631 0.151508 0.267610 -0.104258
C23   C     C_3   0.357013 0.000281 0.859015 -0.115432
C24   C     C_R   0.818369 0.397502 0.156027 -0.070669
C25   C     C_3   0.930666 0.597780 0.793948 -0.108871
C26   C     C_3   0.612445 0.137720 0.191664 -0.110976
C27   C     C_3   0.658238 0.932292 0.961566 -0.114097
C28   C     C_3   0.902710 0.983920 0.674778 -0.124448
C29   C     C_3   0.866827 0.849730 0.800395 -0.114020
C30   C     C_3   0.601427 0.969480 0.857224 -0.103669
C31   C     C_3   0.662452 0.525454 0.323873 -0.124125
C32   C     C_3   0.467987 0.126097 0.301684 -0.108376
C33   C     C_R   0.815989 0.421642 0.117077 -0.132656
C34   C     C_R   0.736222 0.284578 0.232632 0.270554
C35   C     C_R   0.735309 0.267510 0.273498 0.240922
C36   C     C_R   0.734472 0.341997 0.304772 0.074334
C37   C     C_R   0.747653 0.437529 0.296518 0.265055
C38   C     C_R   0.758487 0.457338 0.256466 -0.166190
C39   C     C_R   0.748716 0.380169 0.224511 -0.053281
C40   C     C_R   0.742693 0.397486 0.182451 0.063381
C41   C     C_R   0.591433 0.258170 0.349295 0.235471
C42   C     C_R   0.593391 0.204268 0.456219 0.602235
C43   C     C_R   0.556186 0.236726 0.387856 0.208139
C44   C     C_R   0.741644 0.312627 0.416147 0.226394
C45   C     C_R   0.777453 0.342660 0.378386 0.272207
C46   C     C_R   0.701692 0.312856 0.344812 0.032831
C47   C     C_R   0.630860 0.257089 0.420560 -0.049424
C48   C     C_R   0.241205 0.875954 0.393427 -0.023897
C49   C     C_R   0.227290 0.956812 0.381773 -0.167891
C50   C     C_R   0.202600 0.955943 0.340962 -0.189040
C51   C     C_R   0.723388 0.904615 0.656005 0.297370
C52   C     C_R   0.192287 0.874779 0.311048 -0.005694
C53   C     C_R   0.198794 0.789822 0.322250 0.303968
C54   C     C_R   0.294821 0.892231 0.434375 0.561059
C55   C     C_R   0.218616 0.788058 0.363682 0.277284
C56   C     C_R   0.195045 0.810427 0.164261 -0.112452
C57   C     C_R   0.167060 0.787147 0.122261 -0.129355
C58   C     C_R   0.092150 0.904198 0.129330 -0.127609
C59   C     C_R   0.119599 0.926820 0.171444 -0.118814
C60   C     C_R   0.167467 0.876920 0.189074 0.032962
C61   C     C_1   0.176862 0.883107 0.232558 -0.025354
C62   C     C_R   0.636288 0.814058 0.665912 0.039253
C63   C     C_1   0.182888 0.881662 0.268597 0.001919
C64   C     C_R   0.110957 0.830151 0.104637 0.017715
C65   C     C_R   0.638106 0.877699 0.395272 0.026039
C66   C     C_R   0.613887 0.905970 0.551941 0.546144
C67   C     C_R   0.556208 0.795002 0.367530 0.261194
C68   C     C_R   0.571214 0.786209 0.325731 -0.109717
C69   C     C_R   0.667345 0.855589 0.311830 0.001175
C70   C     C_R   0.752013 0.929951 0.339579 -0.127044
C71   C     C_R   0.737667 0.940940 0.381012 -0.175857
C72   C     C_R   0.781382 0.923833 0.174700 -0.111587
C73   C     C_R   0.631888 0.867506 0.588338 -0.027260
C74   C     C_R   0.795219 0.909422 0.133191 -0.121359
C75   C     C_R   0.620031 0.755142 0.121704 -0.131271
C76   C     C_R   0.606226 0.770019 0.163119 -0.119142
C77   C     C_R   0.688502 0.851961 0.189819 0.035189
C78   C     C_R   0.589836 0.198912 0.571255 0.555331
C79   C     C_1   0.681816 0.855426 0.232908 -0.041613
C80   C     C_1   0.675981 0.855491 0.268943 -0.032866
C81   C     C_R   0.716611 0.822094 0.106666 0.018838
C82   C     C_R   0.622755 0.246271 0.614952 -0.029679
C83   C     C_R   0.553662 0.270900 0.637972 -0.196941
C84   C     C_R   0.052322 0.781508 0.063860 0.530965
C85   C     C_R   0.565999 0.287643 0.680467 -0.186375
C86   C     C_R   0.647259 0.279864 0.700747 -0.007023
C87   C     C_R   0.723254 0.264510 0.678485 0.312259
C88   C     C_R   0.712128 0.249387 0.635610 0.287249
C89   C     C_R   0.753838 0.328309 0.846202 -0.116377
C90   C     C_R   0.290342 0.887897 0.548942 0.538991
C91   C     C_R   0.768004 0.362509 0.888260 -0.129900
C92   C     C_R   0.586267 0.334624 0.887005 -0.135605
C93   C     C_R   0.572327 0.300367 0.844930 -0.131404
C94   C     C_R   0.657487 0.301173 0.824324 0.024290
C95   C     C_R   0.744077 0.486393 0.065988 0.546774
C96   C     C_1   0.651362 0.288454 0.780645 -0.024402
C97   C     C_1   0.648892 0.283312 0.744176 0.004682
C98   C     C_R   0.686103 0.371011 0.908748 0.013020
C99   C     C_R   0.076467 0.756801 0.910783 -0.067505
C100  C     C_R   0.149185 0.860176 0.906229 0.277187
C101  C     C_R   0.186068 0.881515 0.867832 0.252923
C102  C     C_R   0.737148 0.444897 0.104135 0.019116
C103  C     C_R   0.146783 0.799778 0.834013 -0.028243
C104  C     C_R   0.076493 0.696601 0.839263 0.220656
C105  C     C_R   0.045435 0.675488 0.877896 -0.170494
C106  C     C_R   0.743201 0.789569 0.066393 0.528361
C107  C     C_R   0.211072 0.770918 0.766940 -0.084756
C108  C     C_R   0.214922 0.778626 0.725739 -0.117423
C109  C     C_R   0.174046 0.836498 0.709402 0.030829
C110  C     C_R   0.133925 0.890570 0.735340 -0.125746
C111  C     C_R   0.131527 0.883900 0.776720 -0.094434
C112  C     C_R   0.167301 0.821747 0.792384 0.067554
C113  C     C_R   0.213992 0.941047 0.653254 -0.124092
C114  C     C_R   0.658378 0.439557 0.130117 -0.128566
C115  C     C_R   0.240196 0.952974 0.613441 -0.128178
C116  C     C_R   0.187505 0.769268 0.597139 -0.126363
C117  C     C_R   0.022685 0.732395 0.947976 0.557352
C118  C     C_R   0.160195 0.757146 0.636849 -0.124490
C119  C     C_R   0.179033 0.844171 0.665750 0.032446
C120  C     C_R   0.232995 0.868422 0.585822 0.024985
C121  C     C_R   0.655911 0.743981 0.913425 -0.024785
C122  C     C_R   0.601077 0.652567 0.884618 -0.190172
C123  C     C_R   0.576941 0.658031 0.844669 -0.159328
C124  C     C_R   0.605858 0.754630 0.833210 0.010694
C125  C     C_R   0.648891 0.845500 0.862870 0.298645
C126  C     C_R   0.661636 0.416668 0.169108 -0.134403
C127  C     C_R   0.673535 0.840372 0.903324 0.289431
Cr1   Cr    Cr6+3 0.424820 0.846020 0.489780 1.051524
Cr2   Cr    Cr6+3 0.657880 0.078580 0.505700 1.034866
Cr3   Cr    Cr6+3 0.417280 0.075360 0.504550 1.016527
Cr4   Cr    Cr6+3 0.903360 0.812540 0.006510 1.067486
Cr5   Cr    Cr6+3 0.914630 0.587050 0.006280 1.011028
Cr6   Cr    Cr6+3 0.673560 0.582680 0.008540 1.009267
H1    H     H_    0.597010 0.457573 0.121053 0.131671
H2    H     H_    0.521556 0.339946 0.901849 0.139366
H3    H     H_    0.239955 0.723514 0.778875 0.123193
H4    H     H_    0.102504 0.936107 0.723511 0.090378
H5    H     H_    0.586195 0.578010 0.891885 0.148652
H6    H     H_    0.476481 0.795809 0.712787 0.121097
H7    H     H_    0.543673 0.587993 0.821917 0.135186
H8    H     H_    0.483592 0.720346 0.575685 0.137866
H9    H     H_    0.770409 0.531580 0.249946 0.138383
H10   H     H_    0.424225 0.302734 0.372249 0.138190
H11   H     H_    0.458151 0.321288 0.427014 0.114132
H12   H     H_    0.881128 0.382394 0.166064 0.133346
H13   H     H_    0.328041 0.223670 0.404041 0.112450
H14   H     H_    0.828814 0.210691 0.426533 0.103730
H15   H     H_    0.890196 0.277075 0.476735 0.118774
H16   H     H_    0.950395 0.337057 0.434058 0.132361
H17   H     H_    0.182665 0.729985 0.104051 0.122570
H18   H     H_    0.330143 0.717212 0.307977 0.181046
H19   H     H_    0.330534 0.795830 0.270251 0.095956
H20   H     H_    0.270905 0.656902 0.256982 0.124998
H21   H     H_    0.065249 0.598352 0.357172 0.177283
H22   H     H_    0.097160 0.666550 0.409887 0.122795
H23   H     H_    0.232291 0.771563 0.177673 0.110628
H24   H     H_    0.132457 0.566963 0.394307 0.138252
H25   H     H_    0.241248 0.023919 0.403924 0.168663
H26   H     H_    0.048321 0.938019 0.116750 0.125864
H27   H     H_    0.877624 0.425247 0.097608 0.123451
H28   H     H_    0.870622 0.962013 0.122557 0.123396
H29   H     H_    0.845468 0.987540 0.195258 0.096057
H30   H     H_    0.802749 0.003536 0.401537 0.125471
H31   H     H_    0.366294 0.582833 0.391407 0.146350
H32   H     H_    0.507903 0.629960 0.396043 0.091733
H33   H     H_    0.434202 0.592830 0.345878 0.088640
H34   H     H_    0.097794 0.978302 0.190439 0.104658
H35   H     H_    0.533902 0.714286 0.174635 0.101191
H36   H     H_    0.506054 0.728321 0.303946 0.092084
H37   H     H_    0.886823 0.267591 0.352007 0.110291
H38   H     H_    0.013325 0.382634 0.365366 0.104674
H39   H     H_    0.935463 0.370924 0.320820 0.135623
H40   H     H_    0.864929 0.364194 0.749281 0.129314
H41   H     H_    0.899275 0.414223 0.701343 0.078052
H42   H     H_    0.958636 0.343652 0.719668 0.153223
H43   H     H_    0.826193 0.348700 0.581608 0.109586
H44   H     H_    0.909975 0.377636 0.628495 0.100239
H45   H     H_    0.197313 0.021490 0.332510 0.131184
H46   H     H_    0.916724 0.297573 0.584135 0.129245
H47   H     H_    0.485534 0.270489 0.623203 0.145888
H48   H     H_    0.497400 0.279422 0.828169 0.118428
H49   H     H_    0.508424 0.301242 0.697517 0.129195
H50   H     H_    0.327360 0.952567 0.949574 0.094484
H51   H     H_    0.223287 0.876402 0.980899 0.101393
H52   H     H_    0.284036 0.015561 0.989096 0.142324
H53   H     H_    0.989434 0.596027 0.881350 0.150665
H54   H     H_    0.130071 0.680918 0.645582 0.099745
H55   H     H_    0.878112 0.221938 0.263945 0.099180
H56   H     H_    0.827437 0.982905 0.329036 0.106820
H57   H     H_    0.769829 0.097364 0.238143 0.180125
H58   H     H_    0.820696 0.110627 0.289119 0.112257
H59   H     H_    0.249873 0.739285 0.706659 0.098209
H60   H     H_    0.363324 0.962698 0.828576 0.111835
H61   H     H_    0.385123 0.972365 0.883446 0.083747
H62   H     H_    0.412078 0.085225 0.861567 0.150275
H63   H     H_    0.098386 0.924174 0.796251 0.124426
H64   H     H_    0.229084 0.009356 0.674929 0.104691
H65   H     H_    0.274692 0.030353 0.605468 0.129265
H66   H     H_    0.930545 0.670307 0.788648 0.152586
H67   H     H_    0.557977 0.687447 0.101976 0.119647
H68   H     H_    0.873562 0.560676 0.816690 0.131250
H69   H     H_    0.901815 0.543253 0.764584 0.124212
H70   H     H_    0.179587 0.702557 0.576166 0.124347
H71   H     H_    0.568323 0.178027 0.183133 0.117735
H72   H     H_    0.577227 0.096259 0.217660 0.139628
H73   H     H_    0.601683 0.077982 0.165164 0.137640
H74   H     H_    0.654775 0.881833 0.983892 0.120219
H75   H     H_    0.575793 0.908041 0.948665 0.068446
H76   H     H_    0.691675 0.012866 0.978534 0.145065
H77   H     H_    0.931987 0.032528 0.650345 0.121707
H78   H     H_    0.845822 0.389862 0.904046 0.134813
H79   H     H_    0.898794 0.906959 0.665133 0.092576
H80   H     H_    0.962358 0.024598 0.701695 0.140534
H81   H     H_    0.461721 0.768443 0.784177 0.098891
H82   H     H_    0.771948 0.783899 0.712925 0.115512
H83   H     H_    0.849649 0.909006 0.818032 0.179437
H84   H     H_    0.908021 0.878511 0.772979 0.108040
H85   H     H_    0.922107 0.839195 0.820459 0.138098
H86   H     H_    0.487063 0.675632 0.643144 0.113757
H87   H     H_    0.598769 0.993240 0.890205 0.130070
H88   H     H_    0.521160 0.905978 0.843679 0.072303
H89   H     H_    0.820300 0.329408 0.830428 0.128456
H90   H     H_    0.620721 0.037763 0.842076 0.154016
H91   H     H_    0.602048 0.415705 0.189222 0.104045
H92   H     H_    0.780415 0.006758 0.611152 0.164925
H93   H     H_    0.586569 0.449779 0.320062 0.137574
H94   H     H_    0.666976 0.567298 0.298073 0.110837
H95   H     H_    0.660516 0.574201 0.352087 0.134353
H96   H     H_    0.412911 0.080803 0.323343 0.174706
H97   H     H_    0.526632 0.098099 0.295147 0.156978
H98   H     H_    0.419459 0.109804 0.272654 0.118947
O1    O     O_R   0.318160 0.824460 0.443680 -0.444700
O2    O     O_R   0.668160 0.499860 0.053480 -0.517010
O3    O     O_R   0.689170 0.693840 0.050110 -0.503638
O4    O     O_R   0.525040 0.857250 0.449830 -0.441378
O5    O     O_R   0.803860 0.812940 0.962540 -0.456538
O6    O     O_R   0.982950 0.787950 0.964120 -0.450908
O7    O     O_R   0.007050 0.649970 0.960540 -0.531134
O8    O     O_R   0.807910 0.482370 0.965590 -0.502479
O9    O     O_R   0.643310 0.460980 0.963840 -0.515895
O10   O     O_R   0.666140 0.657800 0.967020 -0.514736
O11   O     O_3   0.830520 0.660760 0.007110 -0.246473
O12   O     O_R   0.645130 0.163230 0.552140 -0.449687
O13   O     O_R   0.684760 0.998800 0.456360 -0.546136
O14   O     O_R   0.647540 0.166310 0.470260 -0.488003
O15   O     O_R   0.500960 0.181750 0.467450 -0.479287
O16   O     O_R   0.331100 0.981120 0.457080 -0.503262
O17   O     O_R   0.315560 0.821140 0.532010 -0.523545
O18   O     O_R   0.522630 0.854180 0.531710 -0.507161
O19   O     O_R   0.682160 0.995480 0.544690 -0.497036
O20   O     O_3   0.447692 0.186962 0.392460 -0.544998
O21   O     O_3   0.813837 0.343847 0.450091 -0.537906
O22   O     O_3   0.182913 0.706851 0.292732 -0.552647
O23   O     O_R   0.498360 0.178430 0.555780 -0.532095
O24   O     O_3   0.226447 0.704695 0.374034 -0.526208
O25   O     O_3   0.456954 0.732304 0.380269 -0.514131
O26   O     O_3   0.885646 0.407861 0.376038 -0.544155
O27   O     O_3   0.801228 0.250871 0.697487 -0.514750
O28   O     O_3   0.782527 0.225627 0.614509 -0.516476
O29   O     O_3   0.177858 0.942229 0.938029 -0.511041
O30   O     O_3   0.722592 0.174429 0.283438 -0.599459
O31   O     O_3   0.252088 0.984047 0.863157 -0.531405
O32   O     O_3   0.034273 0.616670 0.806117 -0.573801
O33   O     O_3   0.722879 0.207801 0.200559 -0.576633
O34   O     O_R   0.328690 0.978040 0.538950 -0.508788
O35   O     O_3   0.726240 0.932252 0.930998 -0.517701
O36   O     O_3   0.803388 0.972956 0.686165 -0.535131
O37   O     O_3   0.773385 0.752713 0.789438 -0.591050
O38   O     O_3   0.682174 0.941411 0.851002 -0.536090
O39   O     O_3   0.753100 0.511949 0.328204 -0.540076
O40   O     O_3   0.518468 0.234272 0.316390 -0.580156
O41   O     O_3   0.499990 0.999990 0.500010 -0.255176
O42   O     O_R   0.828710 0.851830 0.052170 -0.521184
O43   O     O_R   0.005980 0.823990 0.047210 -0.501529
O44   O     O_R   0.031900 0.688850 0.050170 -0.517819
O45   O     O_R   0.830940 0.518420 0.048680 -0.498479

loop_
_geom_bond_atom_site_label_1
_geom_bond_atom_site_label_2
_ccdc_geom_bond_type
C48   C55   A    
C87   C88   A    
C66   O19   A    
C17   O25   S    
C85   H49   S    
C29   O37   S    
C127  O35   S    
C84   O43   A    
C21   H51   S    
C41   C43   A    
C107  C112  A    
C111  C112  A    
C56   H23   S    
C19   O27   S    
C15   H18   S    
Cr3   O15   S    
C92   C98   A    
C123  C124  A    
C42   O14   A    
Cr2   O14   S    
C67   O25   S    
C56   C57   A    
C3    H81   S    
C48   C54   S    
C32   H98   S    
C30   O38   S    
C37   C38   A    
C28   O36   S    
C71   H30   S    
C83   H47   S    
C25   H66   S    
C92   C93   A    
C36   C37   A    
C1    O13   A    
Cr5   O8    S    
C1    O4    A    
Cr4   O42   S    
C25   H68   S    
C17   H33   S    
C5    C6    A    
C25   O32   S    
C16   O24   S    
C126  H91   S    
C2    O8    A    
C27   O35   S    
C26   O33   S    
C22   O30   S    
C28   H77   S    
Cr5   O45   S    
C14   H15   S    
C27   H76   S    
C13   C121  S    
C108  C109  A    
C14   H16   S    
C27   H75   S    
C12   H13   S    
C89   C94   A    
C61   C63   T    
C86   C97   S    
Cr5   O7    S    
C118  C119  A    
C64   C84   S    
C18   O26   S    
C88   O28   S    
Cr6   O10   S    
C113  C119  A    
Cr3   O34   S    
C93   H48   S    
C34   C39   A    
C44   O21   S    
C42   O15   A    
C6    H82   S    
C35   C36   A    
C55   O24   S    
C68   C69   A    
C65   C67   A    
C90   O17   A    
C1    C65   S    
C41   C46   A    
C36   C46   S    
C70   C71   A    
C104  O32   S    
C89   C91   A    
C9    C10   A    
C115  C120  A    
C95   C102  S    
C111  H63   S    
C42   C47   S    
C9    C62   A    
C9    H86   S    
Cr1   O4    S    
C29   H84   S    
C66   O18   A    
C117  O6    A    
C59   C60   A    
Cr1   O1    S    
C24   C40   A    
C31   H95   S    
C57   H17   S    
C38   H9    S    
C118  H54   S    
C26   H73   S    
C51   C62   A    
C53   O22   S    
C31   O39   S    
C34   C35   A    
C87   O27   S    
C54   O1    A    
C104  C105  A    
C24   C33   A    
C20   H46   S    
C19   H42   S    
Cr1   O41   S    
C53   C55   A    
C58   C64   A    
C99   C105  A    
C115  H65   S    
C32   H97   S    
C18   H37   S    
C33   C102  A    
C78   O23   A    
C7    C8    A    
C90   O34   A    
C76   C77   A    
C122  H5    S    
Cr4   O43   S    
C72   C74   A    
C3    C8    A    
C11   C73   A    
C39   C40   S    
C86   C87   A    
C75   C81   A    
C29   H83   S    
Cr2   O12   S    
C23   O31   S    
C58   C59   A    
C85   C86   A    
Cr5   O44   S    
C14   H14   S    
Cr4   O11   S    
C75   H67   S    
C95   O45   A    
C116  C120  A    
C51   O36   S    
C60   C61   S    
C10   H8    S    
C90   C120  S    
C105  H53   S    
C26   H71   S    
C75   C76   A    
C19   H40   S    
C72   C77   A    
C102  C114  A    
C17   H31   S    
C43   O20   S    
Cr6   O11   S    
C99   C117  S    
Cr3   O41   S    
C68   H36   S    
C78   C82   S    
C50   C52   A    
C99   C100  A    
C11   H92   S    
C40   C126  A    
C96   C97   T    
C23   H60   S    
C16   H22   S    
C114  H1    S    
C77   C79   S    
C110  C111  A    
C93   C94   A    
Cr6   O2    S    
C54   O16   A    
C67   C68   A    
C94   C96   S    
C12   O20   S    
C121  C122  A    
C6    C7    A    
Cr1   O17   S    
C108  H59   S    
C13   O5    A    
C72   H29   S    
Cr3   O23   S    
C91   H78   S    
C29   H85   S    
Cr6   O9    S    
C117  O7    A    
C49   C50   A    
C16   H21   S    
C30   H88   S    
C101  O31   S    
C100  O29   S    
C45   C46   A    
C92   H2    S    
C22   H57   S    
C37   O39   S    
C107  C108  A    
C23   H62   S    
C3    C4    A    
C18   H38   S    
C89   H89   S    
C116  H70   S    
C59   H34   S    
C52   C53   A    
C109  C119  S    
C57   C64   A    
C30   H87   S    
C106  O42   A    
C15   O22   S    
Cr5   O11   S    
C28   H80   S    
C21   H50   S    
C32   H96   S    
C48   C49   A    
C84   O44   A    
C106  O3    A    
C33   H27   S    
C83   C85   A    
C16   H24   S    
C25   H69   S    
C110  H4    S    
C8    C124  S    
C44   C45   A    
C78   O12   A    
C4    C5    A    
C69   C80   S    
C52   C63   S    
C74   H28   S    
Cr3   O16   S    
C44   C47   A    
C21   O29   S    
C121  C127  A    
C20   H44   S    
Cr2   O13   S    
C18   H39   S    
Cr4   O5    S    
C28   H79   S    
C95   O2    A    
C58   H26   S    
Cr1   O18   S    
C12   H10   S    
C34   O33   S    
C24   H12   S    
C35   O30   S    
C122  C123  A    
C19   H41   S    
C20   O28   S    
Cr2   O41   S    
C17   H32   S    
C109  C110  A    
C56   C60   A    
C4    H6    S    
C66   C73   S    
C21   H52   S    
C2    O9    A    
C38   C39   A    
C15   H19   S    
Cr4   O6    S    
C82   C88   A    
C123  H7    S    
C23   H61   S    
C100  C101  A    
C10   C73   A    
C116  C118  A    
C5    C62   S    
C41   O40   S    
C27   H74   S    
Cr6   O3    S    
C91   C98   A    
C22   H55   S    
C7    O37   S    
C49   H25   S    
C69   C70   A    
C15   H20   S    
C31   H94   S    
C11   C51   A    
C50   H45   S    
C30   H90   S    
C79   C80   T    
C26   H72   S    
C12   H11   S    
C45   O26   S    
C65   C71   A    
C14   O21   S    
C2    C98   S    
C101  C103  A    
C82   C83   A    
Cr2   O19   S    
C31   H93   S    
C125  O38   S    
C103  C104  A    
C125  C127  A    
C114  C126  A    
C113  H64   S    
C103  C112  S    
C32   O40   S    
C13   O10   A    
C74   C81   A    
C22   H58   S    
C81   C106  S    
C43   C47   A    
C20   H43   S    
C70   H56   S    
C124  C125  A    
C113  C115  A    
C107  H3    S    
C76   H35   S    
