data_mof_unit_4142.cif
_audit_creation_date              2013-03-05T16:13:55-0500
_audit_creation_method            fapswitch 2.2
_symmetry_space_group_name_H-M    P1
_symmetry_Int_Tables_number       1
_space_group_crystal_system       triclinic
_cell_length_a                    10.806604
_cell_length_b                    9.93568
_cell_length_c                    17.537396
_cell_angle_alpha                 88.356522
_cell_angle_beta                  93.359614
_cell_angle_gamma                 87.105091
_cell_volume                      1876.42640342

loop_
_atom_site_label
_atom_site_type_symbol
_atom_site_description
_atom_site_fract_x
_atom_site_fract_y
_atom_site_fract_z
_atom_type_partial_charge
O1    O     O_R   0.316770 0.614620 0.500000 -0.565152
O2    O     O_R   0.683230 0.385380 0.500000 -0.605719
O3    O     O_R   0.683230 0.614620 0.500000 -0.560980
O4    O     O_R   0.316770 0.385380 0.500000 -0.576936
C1    C     C_R   0.260284 0.503420 0.503620 0.983555
C2    C     C_R   0.739940 0.496838 0.498892 0.918970
O5    O     O_R   0.500010 0.614710 0.389120 -0.542335
O6    O     O_R   0.499990 0.385290 0.610880 -0.548064
O7    O     O_R   0.499990 0.614710 0.610880 -0.634985
O8    O     O_R   0.500010 0.385290 0.389120 -0.572351
C3    C     C_R   0.073940 0.396600 0.542839 0.233560
C4    C     C_R   0.927020 0.605587 0.465472 0.246378
C5    C     C_R   0.946226 0.387140 0.534886 0.157096
C6    C     C_R   0.053087 0.620015 0.478335 0.176777
C7    C     C_R   0.508671 0.500603 0.353837 0.994848
C8    C     C_R   0.499209 0.498262 0.645725 1.015362
Zn1   Zn    Zn3+2 0.500000 0.653120 0.500000 1.105882
Zn2   Zn    Zn3+2 0.500000 0.346880 0.500000 1.118608
C9    C     C_R   0.872996 0.492170 0.496546 -0.368086
C10   C     C_R   0.127750 0.510099 0.511201 -0.341250
N1    N     N_R   0.500000 0.857200 0.500000 -0.211239
N2    N     N_R   0.500000 0.142800 0.500000 -0.222108
C11   C     C_R   0.386868 0.521279 0.842179 0.221266
C12   C     C_R   0.554627 0.361310 0.159751 0.234156
C13   C     C_R   0.491605 0.601476 0.144827 0.173998
C14   C     C_R   0.602916 0.428400 0.849679 0.212244
C15   C     C_R   0.390335 0.535662 0.762626 0.380763
C16   C     C_R   0.568633 0.375115 0.238898 0.392424
C17   C     C_R   0.505470 0.613991 0.224179 0.374738
C18   C     C_R   0.604896 0.442018 0.770274 0.377413
C19   C     C_R   0.498306 0.493134 0.727635 -0.284205
C20   C     C_R   0.528539 0.497815 0.271469 -0.333791
C21   C     C_R   0.556718 0.064693 0.559350 0.234222
C22   C     C_R   0.437472 0.936504 0.441883 0.195286
C23   C     C_R   0.434423 0.080240 0.443966 0.250523
C24   C     C_R   0.560784 0.921448 0.557735 0.263313
C25   C     C_R   0.494217 0.469795 0.885014 -0.259450
C26   C     C_R   0.512925 0.474282 0.113652 -0.267650
C27   C     C_1   0.494514 0.461777 0.965624 0.259178
C28   C     C_1   0.500433 0.463273 0.033390 0.266327
N3    N     N_R   0.273966 0.555808 0.878557 0.233751
O9    O     O_R   0.275902 0.628992 0.938924 -0.308307
O10   O     O_R   0.167601 0.521478 0.848539 -0.264806
N4    N     N_R   0.579666 0.232107 0.126872 0.259401
O11   O     O_R   0.676713 0.156338 0.150726 -0.319679
O12   O     O_R   0.501846 0.186301 0.075693 -0.297537
N5    N     N_R   0.451900 0.717328 0.096758 0.240128
O13   O     O_R   0.359750 0.796879 0.115173 -0.221152
O14   O     O_R   0.513090 0.749221 0.037689 -0.323212
N6    N     N_R   0.710859 0.371781 0.893643 0.240068
O15   O     O_R   0.772219 0.266514 0.869948 -0.207588
O16   O     O_R   0.754171 0.431331 0.953943 -0.338750
O17   O     O_3   0.285342 0.580254 0.718092 -0.576898
C29   C     C_3   0.275647 0.722394 0.717276 -0.070826
H1    H     H_    0.264604 0.761389 0.775443 0.193672
H2    H     H_    0.191752 0.757166 0.681151 0.221884
H3    H     H_    0.356846 0.766507 0.691831 0.184576
O18   O     O_3   0.613506 0.264817 0.284177 -0.542609
C30   C     C_3   0.737877 0.284583 0.308705 -0.082556
H4    H     H_    0.797428 0.294011 0.259358 0.185847
H5    H     H_    0.774160 0.195424 0.344201 0.221081
H6    H     H_    0.745647 0.374492 0.344619 0.124525
O19   O     O_3   0.494826 0.739066 0.256080 -0.537702
C31   C     C_3   0.596955 0.815626 0.238287 0.063016
H7    H     H_    0.571078 0.884266 0.188257 0.221530
H8    H     H_    0.682561 0.753626 0.227087 0.140834
H9    H     H_    0.620270 0.879499 0.287440 0.200339
O20   O     O_3   0.710608 0.403784 0.733675 -0.537891
C32   C     C_3   0.788969 0.513138 0.733541 -0.072232
H10   H     H_    0.824784 0.534714 0.792438 0.204045
H11   H     H_    0.740958 0.605064 0.706065 0.172023
H12   H     H_    0.869999 0.486935 0.699935 0.209837
N7    N     N_R   0.596500 0.125383 0.628755 0.263816
O21   O     O_R   0.514223 0.147485 0.678828 -0.294262
O22   O     O_R   0.712028 0.108109 0.653314 -0.196648
N8    N     N_R   0.375068 0.877300 0.377285 0.275823
O23   O     O_R   0.313626 0.770344 0.385491 -0.268050
O24   O     O_R   0.364846 0.939797 0.310884 -0.245520
N9    N     N_R   0.346262 0.159072 0.394857 0.264709
O25   O     O_R   0.374773 0.197881 0.326958 -0.278484
O26   O     O_R   0.230168 0.164565 0.410860 -0.293490
N10   N     N_R   0.629650 0.844271 0.617310 0.244217
O27   O     O_R   0.743747 0.804291 0.607171 -0.326989
O28   O     O_R   0.591371 0.844198 0.686275 -0.367729
N11   N     N_R   0.148364 0.292827 0.585656 0.261974
O29   O     O_R   0.222257 0.324162 0.642931 -0.304005
O30   O     O_R   0.140147 0.166728 0.568863 -0.244755
N12   N     N_R   0.853457 0.706289 0.420119 0.260753
O31   O     O_R   0.792676 0.672167 0.358076 -0.445000
O32   O     O_R   0.837649 0.828215 0.444363 -0.275108
N13   N     N_R   0.892053 0.273408 0.569082 0.261240
O33   O     O_R   0.854004 0.177989 0.525599 -0.289484
O34   O     O_R   0.913214 0.247945 0.641993 -0.242385
N14   N     N_R   0.102533 0.747498 0.459778 0.276793
O35   O     O_R   0.149092 0.818525 0.514625 -0.309725
O36   O     O_R   0.074627 0.806120 0.393166 -0.235087

loop_
_geom_bond_atom_site_label_1
_geom_bond_atom_site_label_2
_geom_bond_distance
_ccdc_geom_bond_type
C17   O19   1.379680 S    
O2    Zn2   2.035584 S    
N3    O10   1.301410 A    
N7    O21   1.301064 A    
O3    C2    1.294488 A    
C7    C20   1.473622 S    
N5    O14   1.301310 A    
N1    C24   1.365883 A    
O17   C29   1.410452 S    
C8    C19   1.436548 S    
C2    C9    1.439320 S    
O1    C1    1.290729 A    
O7    C8    1.293511 A    
N8    O24   1.300126 A    
C17   C20   1.405040 A    
O8    C7    1.296636 A    
C14   N6    1.440511 S    
C18   C19   1.400761 A    
C21   C24   1.422843 A    
C22   C23   1.428401 A    
N3    O9    1.301171 A    
C32   H11   1.110469 S    
C24   N10   1.427835 S    
O20   C32   1.410888 S    
O5    Zn1   1.992359 S    
N6    O16   1.301274 A    
C11   C15   1.401255 A    
C13   N5    1.439367 S    
C3    N11   1.440429 S    
O4    Zn2   1.997647 S    
O5    C7    1.308923 A    
C30   H4    1.112912 S    
O6    C8    1.293209 A    
C5    N13   1.431213 S    
N7    O22   1.297961 A    
O2    C2    1.292680 A    
N4    O12   1.301373 A    
N11   O30   1.301410 A    
C13   C17   1.400682 A    
C29   H2    1.109581 S    
C3    C10   1.409206 A    
C30   H5    1.109359 S    
C4    N12   1.437212 S    
C15   C19   1.401969 A    
C31   H9    1.109669 S    
C6    C10   1.412900 A    
C16   C20   1.419801 A    
N8    O23   1.290182 A    
N13   O33   1.301347 A    
C1    C10   1.444511 S    
C5    C9    1.407591 A    
N1    C22   1.391285 A    
O18   C30   1.411999 S    
N11   O29   1.300970 A    
O6    Zn2   1.992358 S    
O19   C31   1.416204 S    
C31   H8    1.115604 S    
C32   H12   1.108234 S    
N2    C23   1.360932 A    
C13   C26   1.405009 A    
N13   O34   1.301014 A    
C12   C26   1.403839 A    
N5    O13   1.301353 A    
N6    O15   1.301319 A    
N14   O36   1.302613 A    
C21   N7    1.427212 S    
C4    C6    1.383113 A    
C14   C18   1.396753 A    
N10   O28   1.300979 A    
C12   N4    1.441977 S    
C27   C28   1.186976 T    
N4    O11   1.300912 A    
N9    O26   1.300363 A    
O7    Zn1   1.970879 S    
N2    C21   1.375543 A    
C29   H1    1.112309 S    
C30   H6    1.111485 S    
Zn2   N2    2.027674 S    
C12   C16   1.398827 A    
N12   O32   1.301783 A    
O4    C1    1.299466 A    
C15   O17   1.385329 S    
C14   C25   1.408606 A    
C16   O18   1.384905 S    
O1    Zn1   2.035585 S    
C11   N3    1.440434 S    
C31   H7    1.109411 S    
C25   C27   1.413449 S    
C11   C25   1.409841 A    
C26   C28   1.414050 S    
C3    C5    1.387224 A    
O8    Zn2   1.970880 S    
C4    C9    1.405771 A    
C23   N9    1.432714 S    
O3    Zn1   1.997646 S    
N14   O35   1.301699 A    
C32   H10   1.112139 S    
N9    O25   1.300090 A    
N12   O31   1.300073 A    
N10   O27   1.299986 A    
C6    N14   1.435585 S    
C18   O20   1.384716 S    
C22   N8    1.439783 S    
C29   H3    1.111181 S    
Zn1   N1    2.027674 S    
