data_mof_unit_735.cif
_audit_creation_date              2012-12-11T17:37:52-0500
_audit_creation_method            fapswitch 2.2
_symmetry_space_group_name_H-M    P1
_symmetry_Int_Tables_number       1
_space_group_crystal_system       triclinic
_cell_length_a                    12.957051
_cell_length_b                    13.038231
_cell_length_c                    15.311123
_cell_angle_alpha                 115.939728
_cell_angle_beta                  64.270525
_cell_angle_gamma                 96.603844
_cell_volume                      2086.43583617

loop_
_atom_site_label
_atom_site_type_symbol
_atom_type_description
_atom_site_fract_x
_atom_site_fract_y
_atom_site_fract_z
_atom_type_partial_charge
C1    C     C_R   0.024064 0.833659 0.028231 -0.129321
C2    C     C_R   0.320036 0.536439 0.780419 -0.154918
C3    C     C_R   0.245178 0.478304 0.105953 -0.156432
C4    C     C_R   0.702021 0.405736 0.208826 -0.148599
C5    C     C_R   0.986565 0.303130 0.697626 -0.167213
C6    C     C_R   0.337806 0.538213 0.073230 0.166976
C7    C     C_R   0.931527 0.207758 0.696388 0.061299
C8    C     C_R   0.325504 0.469742 0.678925 0.056717
C9    C     C_R   0.081273 0.145555 0.975116 0.037823
C10   C     C_R   0.369066 0.840437 0.265338 -0.176613
C11   C     C_R   0.251642 0.863873 0.334728 0.497372
C12   C     C_R   0.705477 0.436697 0.305514 0.057565
C13   C     C_R   0.185963 0.948320 0.341593 -0.010670
C14   C     C_R   0.239256 0.007414 0.277813 -0.248355
C15   C     C_R   0.355845 0.981002 0.206458 -0.095420
C16   C     C_R   0.739236 0.579190 0.948601 -0.156074
C17   C     C_R   0.420834 0.897903 0.200557 -0.169126
C18   C     C_R   0.046893 0.081322 0.516561 -0.213619
C19   C     C_R   0.936600 0.116936 0.599989 0.057260
C20   C     C_R   0.840113 0.060366 0.591963 0.024989
C21   C     C_R   0.858937 0.961625 0.498264 -0.254626
C22   C     C_R   0.970659 0.925069 0.415733 0.099262
C23   C     C_R   0.637605 0.561524 0.021930 0.154278
C24   C     C_R   0.065392 0.985479 0.423809 0.087858
C25   C     C_R   0.646326 0.032255 0.716390 -0.163839
C26   C     C_R   0.535225 0.075106 0.798030 -0.113611
C27   C     C_R   0.497950 0.190561 0.841362 -0.085931
C28   C     C_R   0.961274 0.718190 0.315468 -0.069848
C29   C     C_R   0.571476 0.263334 0.802754 -0.108352
C30   C     C_R   0.682448 0.220851 0.721003 -0.137719
C31   C     C_R   0.721388 0.104989 0.677670 0.126447
C32   C     C_R   0.921760 0.258706 0.359318 -0.113172
C33   C     C_R   0.817104 0.290221 0.367434 -0.137849
C34   C     C_R   0.986903 0.825280 0.320665 0.058580
C35   C     C_R   0.739827 0.377767 0.462727 0.121060
C36   C     C_R   0.769456 0.433173 0.549785 -0.170963
C37   C     C_R   0.873807 0.401191 0.541528 -0.130153
C38   C     C_R   0.949688 0.313589 0.446544 -0.099385
C39   C     C_R   0.528780 0.420148 0.565561 -0.238490
C40   C     C_R   0.662006 0.481985 0.048017 -0.105262
C41   C     C_R   0.422043 0.455877 0.581530 0.063436
C42   C     C_R   0.409004 0.481131 0.506129 0.016705
C43   C     C_R   0.503995 0.463089 0.412257 -0.229515
C44   C     C_R   0.611868 0.429905 0.396355 0.061034
C45   C     C_R   0.323347 0.577107 0.009124 -0.132014
C46   C     C_R   0.626493 0.409345 0.473715 0.020537
C47   C     C_R   0.250595 0.481312 0.453474 -0.200425
C48   C     C_R   0.148011 0.530428 0.472674 -0.074507
C49   C     C_R   0.094885 0.632920 0.563790 -0.007732
C50   C     C_R   0.145595 0.687917 0.634650 -0.086689
C51   C     C_R   0.248901 0.639853 0.615128 -0.118787
C52   C     C_R   0.046595 0.818100 0.218670 -0.139052
C53   C     C_R   0.301132 0.534860 0.525406 0.120861
C54   C     C_2   0.432824 0.558133 0.101529 -0.174374
C55   C     C_2   0.524364 0.601697 0.049299 -0.250238
C56   C     C_R   0.906715 0.200243 0.790168 -0.108390
C57   C     C_2   0.894221 0.963052 0.022211 -0.205874
C58   C     C_2   0.874081 0.052337 0.116262 -0.166773
C59   C     C_R   0.800462 0.494977 0.306021 -0.131710
C60   C     C_R   0.927712 0.748011 0.928781 -0.152898
C61   C     C_R   0.950488 0.853401 0.991650 0.140858
C62   C     C_R   0.216826 0.444968 0.686187 -0.111990
C63   C     C_R   0.095554 0.251217 0.047300 -0.131018
C64   C     C_R   0.996896 0.167577 0.950403 -0.079439
Cl1   Cl    Cl    0.190591 0.789840 0.415153 -0.721621
H1    H     H_    0.067028 0.897696 0.070465 0.087477
H2    H     H_    0.420620 0.778533 0.262616 0.166022
H3    H     H_    0.644514 0.349747 0.179350 0.094629
H4    H     H_    0.190376 0.074230 0.283853 0.123260
H5    H     H_    0.396236 0.026303 0.157033 0.112053
H6    H     H_    0.120439 0.125795 0.525678 0.140313
H7    H     H_    0.787070 0.914750 0.488098 0.134290
H8    H     H_    0.674240 0.942866 0.684439 0.110006
H9    H     H_    0.478082 0.018804 0.827947 0.106190
H10   H     H_    0.412031 0.223577 0.904661 0.106042
H11   H     H_    0.542423 0.352641 0.836013 0.118078
H12   H     H_    0.856735 0.138652 0.816926 0.093550
H13   H     H_    0.737773 0.278259 0.691247 0.118951
H14   H     H_    0.030398 0.288700 0.440302 0.097720
H15   H     H_    0.746677 0.627670 0.904872 0.088296
H16   H     H_    0.981281 0.191565 0.285601 0.096882
H17   H     H_    0.795602 0.246301 0.300060 0.124812
H18   H     H_    0.711943 0.501521 0.624059 0.104137
H19   H     H_    0.895757 0.444633 0.608849 0.104106
H20   H     H_    0.535517 0.401623 0.625547 0.132904
H21   H     H_    0.494994 0.485103 0.355054 0.136976
H22   H     H_    0.289885 0.400944 0.383397 0.110456
H23   H     H_    0.191647 0.397699 0.621577 0.103553
H24   H     H_    0.109508 0.488877 0.417037 0.115345
H25   H     H_    0.015023 0.670299 0.578870 0.110646
H26   H     H_    0.104896 0.767847 0.704691 0.110370
H27   H     H_    0.922597 0.693428 0.380849 0.104623
H28   H     H_    0.287379 0.683488 0.670589 0.111052
H29   H     H_    0.435580 0.516265 0.148057 0.131266
H30   H     H_    0.520339 0.648142 0.006893 0.130859
H31   H     H_    0.858877 0.968727 0.971758 0.127630
H32   H     H_    0.902357 0.048802 0.172039 0.130325
H33   H     H_    0.604179 0.443020 0.097992 0.085869
H34   H     H_    0.155297 0.266355 0.082643 0.091747
H35   H     H_    0.087334 0.885266 0.196603 0.100555
H36   H     H_    0.832921 0.523698 0.366305 0.104754
H37   H     H_    0.883572 0.733025 0.879296 0.086340
H38   H     H_    0.368963 0.639913 0.982024 0.088534
H39   H     H_    0.965416 0.104969 0.895290 0.092513
H40   H     H_    0.389409 0.574428 0.801594 0.097115
H41   H     H_    0.223409 0.448725 0.167239 0.103073
H42   H     H_    0.011107 0.337703 0.639513 0.094899
H43   H     H_    0.511613 0.878819 0.146593 0.131278
N1    N     N_R   0.037320 0.720000 0.995830 -0.043937
N2    N     N_R   0.824900 0.517970 0.936430 -0.040122
N3    N     N_R   0.003190 0.648180 0.211390 -0.043708
N4    N     N_R   0.774330 0.457010 0.995830 -0.046453
N5    N     N_R   0.053760 0.709130 0.151980 -0.038579
N6    N     N_R   0.853840 0.498830 0.211390 -0.042447
N7    N     N_R   0.974250 0.667320 0.936430 -0.038940
N8    N     N_R   0.225670 0.542990 0.004170 -0.043096
N9    N     N_R   0.946240 0.290870 0.848020 -0.043619
N10   N     N_R   0.146160 0.501170 0.788610 -0.042912
N11   N     N_R   0.025750 0.332680 0.063570 -0.039886
N12   N     N_R   0.962680 0.280000 0.004170 -0.045899
N13   N     N_R   0.209230 0.553860 0.848010 -0.040588
N14   N     N_R   0.175100 0.482030 0.063570 -0.042853
N15   N     N_R   0.996810 0.351820 0.788610 -0.035896
N16   N     N_R   0.790770 0.446140 0.151990 -0.039177
Ni1   Ni    Ni4+2 0.130310 0.630310 0.000000 0.213390
Ni2   Ni    Ni4+2 0.869690 0.369690 0.000000 0.211347
Ni3   Ni    Ni4+2 0.985660 0.509480 0.863750 0.208550
Ni4   Ni    Ni4+2 0.014340 0.490520 0.136250 0.223017

loop_
_geom_bond_atom_site_label_1
_geom_bond_atom_site_label_2
_ccdc_geom_bond_type
C25   C31   A    
C6    C45   A    
C27   C29   A    
C9    C64   A    
C56   N9    A    
C19   C20   A    
C49   H25   S    
C3    C6    A    
C16   N2    A    
C39   C41   A    
C29   H11   S    
C52   N5    A    
C32   H16   S    
C26   C27   A    
C29   C30   A    
N8    N14   A    
C18   C24   A    
C30   H13   S    
N16   Ni2   S    
C36   C37   A    
C42   C53   S    
C40   H33   S    
C30   C31   A    
C60   H37   S    
N5    Ni1   S    
C38   H14   S    
C10   C17   A    
C23   C40   A    
N7    Ni3   S    
C4    N16   A    
C15   C17   A    
C18   C19   A    
C41   C42   A    
C26   H9    S    
C63   H34   S    
C45   H38   S    
C1    N1    A    
C12   C59   A    
C35   C36   A    
C57   H31   S    
C37   H19   S    
C32   C38   A    
C4    C12   A    
C33   H17   S    
N4    Ni2   S    
C3    N14   A    
N2    Ni3   S    
C47   C53   A    
N6    N16   A    
N11   Ni4   S    
C28   C34   A    
C3    H41   S    
C13   C14   A    
C58   H32   S    
C7    C56   A    
C6    C54   S    
C27   H10   S    
C44   C46   A    
C1    H1    S    
C28   N3    A    
C22   C34   S    
C62   N10   A    
C21   H7    S    
C59   H36   S    
C8    C41   S    
C40   N4    A    
C17   H43   S    
C5    C7    A    
C25   C26   A    
C10   H2    S    
C62   H23   S    
C52   H35   S    
C56   H12   S    
C13   C24   S    
C60   C61   A    
C16   H15   S    
N10   N13   A    
C47   H22   S    
C43   C44   A    
N13   Ni1   S    
C37   C38   A    
N6    Ni4   S    
N15   Ni3   S    
C47   C48   A    
C50   C51   A    
N3    N5    A    
C57   C61   S    
C5    H42   S    
N12   Ni2   S    
C51   H28   S    
C39   C46   A    
C55   H30   S    
C48   C49   A    
C49   C50   A    
C16   C23   A    
C7    C19   S    
N8    Ni1   S    
C14   H4    S    
C22   C24   A    
C42   C43   A    
C39   H20   S    
C4    H3    S    
N9    Ni2   S    
C2    N13   A    
N1    Ni1   S    
C18   H6    S    
C64   H39   S    
C15   H5    S    
C54   C55   D    
C9    C63   A    
C43   H21   S    
C2    C8    A    
C1    C61   A    
N11   N12   A    
C23   C55   S    
C5    N15   A    
C2    H40   S    
C34   C52   A    
C64   N12   A    
C48   H24   S    
C32   C33   A    
N9    N15   A    
C12   C44   S    
C11   C13   A    
C45   N8    A    
C57   C58   D    
C59   N6    A    
C33   C35   A    
C25   H8    S    
N14   Ni4   S    
N2    N4    A    
C54   H29   S    
C10   C11   A    
N1    N7    A    
C28   H27   S    
C50   H26   S    
C20   C21   A    
C63   N11   A    
N10   Ni3   S    
N3    Ni4   S    
C14   C15   A    
C60   N7    A    
C36   H18   S    
C51   C53   A    
C21   C22   A    
C35   C46   S    
C11   Cl1   S    
C8    C62   A    
C20   C31   S    
