data_mof_unit_1669.cif
_audit_creation_date              2012-12-11T15:43:51-0500
_audit_creation_method            fapswitch 2.2
_symmetry_space_group_name_H-M    P1
_symmetry_Int_Tables_number       1
_space_group_crystal_system       triclinic
_cell_length_a                    14.538025
_cell_length_b                    16.138929
_cell_length_c                    6.928602
_cell_angle_alpha                 89.45008
_cell_angle_beta                  98.768648
_cell_angle_gamma                 90.030137
_cell_volume                      1606.56974174

loop_
_atom_site_label
_atom_site_type_symbol
_atom_type_description
_atom_site_fract_x
_atom_site_fract_y
_atom_site_fract_z
_atom_type_partial_charge
O1    O     O_R   0.831700 0.662810 0.581550 -0.513219
O2    O     O_R   0.168300 0.337190 0.418450 -0.514768
O3    O     O_R   0.168300 0.162810 0.418450 -0.508592
O4    O     O_R   0.831700 0.837190 0.581550 -0.512849
O5    O     O_R   0.842890 0.834390 0.255500 -0.547196
O6    O     O_R   0.157110 0.165610 0.744500 -0.542988
O7    O     O_R   0.157110 0.334390 0.744500 -0.542217
O8    O     O_R   0.842890 0.665610 0.255500 -0.546883
O9    O     O_R   0.661690 0.835580 0.024130 -0.561244
O10   O     O_R   0.338310 0.164420 0.975870 -0.558804
O11   O     O_R   0.338310 0.335580 0.975870 -0.563060
O12   O     O_R   0.661690 0.664420 0.024130 -0.547470
C1    C     C_R   0.866326 0.863953 0.431508 0.756815
C2    C     C_R   0.133684 0.136039 0.568495 0.770722
C3    C     C_R   0.133927 0.364088 0.567792 0.756077
C4    C     C_R   0.866171 0.635989 0.432247 0.768684
C5    C     C_R   0.063889 0.067395 0.533658 -0.262674
C6    C     C_R   0.936140 0.932582 0.466344 -0.256260
C7    C     C_R   0.935843 0.567262 0.467285 -0.260606
C8    C     C_R   0.064392 0.432919 0.532764 -0.259438
H1    H     H_    0.925591 0.968179 0.162287 0.220736
H2    H     H_    0.074445 0.031795 0.837714 0.220575
H3    H     H_    0.076215 0.466634 0.836892 0.223603
H4    H     H_    0.924116 0.533608 0.163133 0.219906
C9    C     C_R   0.958130 0.980900 0.310190 -0.269939
C10   C     C_R   0.041906 0.019071 0.689810 -0.268235
C11   C     C_R   0.042951 0.480127 0.689302 -0.245775
C12   C     C_R   0.957355 0.520104 0.310735 -0.260235
O13   O     O_3   0.687240 0.750000 0.366320 -0.357913
O14   O     O_3   0.312760 0.250000 0.633680 -0.371310
V1    V     V_3+5 0.757720 0.750000 0.115230 1.628402
V2    V     V_3+5 0.242280 0.250000 0.884770 1.594161
O15   O     O_R   0.650500 0.664000 0.690740 -0.506496
O16   O     O_R   0.349500 0.336000 0.309260 -0.526441
O17   O     O_R   0.349500 0.164000 0.309260 -0.499356
O18   O     O_R   0.650500 0.836000 0.690740 -0.503448
C13   C     C_R   0.626383 0.637890 0.854872 0.647503
C14   C     C_R   0.374001 0.362671 0.145364 0.633461
C15   C     C_R   0.374775 0.138419 0.147587 0.650014
C16   C     C_R   0.625196 0.861906 0.852366 0.656756
C17   C     C_R   0.020739 0.047355 0.342514 0.647870
C18   C     C_R   0.979300 0.952614 0.657485 0.651771
C19   C     C_R   0.979861 0.546369 0.657820 0.653315
C20   C     C_R   0.020439 0.453864 0.342213 0.653046
V3    V     V_3+5 0.735670 0.750000 0.607790 1.758824
V4    V     V_3+5 0.264330 0.250000 0.392210 1.701025
O19   O     O_3   0.806150 0.750000 0.906560 -0.348959
O20   O     O_3   0.193850 0.250000 0.093440 -0.337983
H5    H     H_    0.393184 0.013831 0.920029 0.162658
H6    H     H_    0.598557 0.971686 0.113586 0.168359
H7    H     H_    0.617480 0.492513 0.021780 0.133606
H8    H     H_    0.426143 0.442663 0.842579 0.159015
C21   C     C_2   0.545247 0.920707 0.842803 0.326904
C22   C     C_2   0.456753 0.082584 0.157577 0.321329
C23   C     C_2   0.450205 0.425267 0.149004 0.248174
C24   C     C_2   0.542221 0.586605 0.854077 0.369248
C25   C     C_2   0.539600 0.970791 0.997315 -0.113606
C26   C     C_2   0.457285 0.023470 0.019696 -0.116597
C27   C     C_2   0.468988 0.459416 0.978590 -0.090021
C28   C     C_2   0.548852 0.514592 0.957922 -0.112438
F1    F     F_    0.037490 0.092723 0.185631 -0.668922
F2    F     F_    0.962551 0.907243 0.814365 -0.669516
F3    F     F_    0.963514 0.590693 0.814596 -0.668222
F4    F     F_    0.036808 0.409569 0.185409 -0.667971
S1    S     S_3+6 0.558878 0.108778 0.321088 0.060997
O21   O     O_2   0.539121 0.177490 0.453918 -0.283227
O22   O     O_2   0.594945 0.034612 0.442096 -0.314238
O23   O     O_3   0.640535 0.140482 0.189197 -0.495987
H9    H     H_    0.696774 0.150570 0.286527 0.374476
S2    S     S_3+6 0.452755 0.914586 0.642934 0.058658
O24   O     O_2   0.422282 0.000134 0.573161 -0.330245
O25   O     O_2   0.481947 0.867279 0.476474 -0.289956
O26   O     O_3   0.362522 0.865817 0.719646 -0.476967
H10   H     H_    0.312092 0.867434 0.606085 0.363798
S3    S     S_3+6 0.435389 0.640925 0.791207 0.099322
O27   O     O_2   0.351833 0.585829 0.788733 -0.335906
O28   O     O_2   0.431531 0.707962 0.938818 -0.287560
O29   O     O_3   0.433419 0.685332 0.570038 -0.430542
H11   H     H_    0.369645 0.707883 0.535227 0.397875
S4    S     S_3+6 0.507018 0.457314 0.380368 0.044270
O30   O     O_2   0.536077 0.382976 0.507370 -0.307790
O31   O     O_2   0.590604 0.510879 0.369296 -0.322510
O32   O     O_3   0.428602 0.511924 0.479697 -0.455975
H12   H     H_    0.377751 0.472678 0.494420 0.330595

loop_
_geom_bond_atom_site_label_1
_geom_bond_atom_site_label_2
_ccdc_geom_bond_type
O6    V2    S    
C23   C27   D    
O15   V3    S    
O26   H10   S    
C17   F1    S    
C19   F3    S    
C22   S1    S    
O2    V4    S    
C1    C6    S    
C5    C10   A    
O8    V1    S    
C6    C18   A    
C15   C22   S    
O4    C1    A    
O12   C13   A    
C13   C24   S    
C14   C23   S    
O23   H9    S    
S1    O22   D    
S2    O24   D    
O16   V4    S    
H3    C11   S    
C18   F2    S    
O5    C1    A    
O7    C3    A    
C27   C28   S    
O8    C4    A    
C24   S3    S    
V1    O19   S    
V2    O20   S    
C2    C5    S    
C6    C9    A    
S4    O32   S    
C21   S2    S    
C8    C20   A    
C7    C19   A    
O4    V3    S    
V3    O19   S    
C3    C8    S    
V4    O20   S    
O18   C16   A    
S4    O31   D    
C9    C17   A    
C21   C25   D    
O29   H11   S    
C12   C20   A    
O9    C16   A    
O15   C13   A    
H5    C26   S    
C24   C28   D    
O13   V3    S    
O10   C15   A    
O11   C14   A    
O17   C15   A    
S3    O27   D    
C7    C12   A    
H8    C27   S    
O10   V2    S    
O6    C2    A    
O32   H12   S    
S1    O23   S    
S2    O26   S    
O18   V3    S    
O1    C4    A    
O2    C3    A    
S3    O28   D    
O3    C2    A    
O11   V2    S    
S1    O21   D    
O12   V1    S    
C20   F4    S    
C10   C18   A    
C22   C26   D    
H1    C9    S    
O7    V2    S    
O16   C14   A    
H6    C25   S    
O14   V4    S    
H4    C12   S    
S4    O30   D    
C8    C11   A    
O3    V4    S    
O13   V1    S    
O14   V2    S    
C23   S4    S    
O1    V3    S    
C25   C26   S    
C4    C7    S    
S3    O29   S    
C5    C17   A    
O9    V1    S    
C11   C19   A    
C16   C21   S    
H2    C10   S    
S2    O25   D    
H7    C28   S    
O17   V4    S    
O5    V1    S    
