data_mof_unit_244.cif
_audit_creation_date              2012-12-11T15:13:47-0500
_audit_creation_method            fapswitch 2.2
_symmetry_space_group_name_H-M    P1
_symmetry_Int_Tables_number       1
_space_group_crystal_system       triclinic
_cell_length_a                    6.950608
_cell_length_b                    13.663563
_cell_length_c                    19.968958
_cell_angle_alpha                 103.908268
_cell_angle_beta                  90.323378
_cell_angle_gamma                 90.588076
_cell_volume                      1840.69152246

loop_
_atom_site_label
_atom_site_type_symbol
_atom_type_description
_atom_site_fract_x
_atom_site_fract_y
_atom_site_fract_z
_atom_type_partial_charge
O1    O     O_R   0.506780 0.600060 0.449950 -0.537187
O2    O     O_R   0.179840 0.597110 0.589410 -0.518019
O3    O     O_R   0.004570 0.399940 0.550050 -0.544838
C1    C     C_R   0.348822 0.616306 0.617663 0.728129
O4    O     O_R   0.177380 0.612160 0.452890 -0.529429
O5    O     O_R   0.002100 0.415100 0.412560 -0.546193
C2    C     C_R   0.346339 0.637942 0.435622 0.722186
O6    O     O_R   0.509250 0.584900 0.587440 -0.540253
O7    O     O_3   0.337570 0.435330 0.486930 -0.383686
V1    V     V_3+5 0.064650 0.512000 0.502430 1.495999
O8    O     O_R   0.672090 0.402890 0.410590 -0.548053
C3    C     C_R   0.839959 0.381085 0.383047 0.662346
O9    O     O_R   0.674540 0.387840 0.547110 -0.545658
C4    C     C_R   0.842921 0.363607 0.564998 0.709137
V2    V     V_3+5 0.564040 0.488000 0.497570 1.446858
O10   O     O_3   0.840990 0.564670 0.513070 -0.345520
C5    C     C_R   0.873345 0.113664 0.607192 0.275589
H1    H     H_    0.867998 0.165809 0.514199 0.133748
H2    H     H_    0.870374 0.989085 0.692170 0.226436
C6    C     C_R   0.851178 0.287847 0.604402 -0.075122
C7    C     C_R   0.850296 0.319264 0.935783 -0.173363
C8    C     C_R   0.842448 0.395719 0.900900 -0.122348
C9    C     C_R   0.844940 0.372901 0.828998 -0.162979
C10   C     C_R   0.855584 0.271698 0.789806 0.098494
C11   C     C_R   0.864666 0.194020 0.826114 0.075642
C12   C     C_R   0.857561 0.244849 0.715997 0.039885
C13   C     C_R   0.868025 0.141308 0.680181 0.079804
C14   C     C_R   0.872704 0.067574 0.717710 -0.160672
C15   C     C_R   0.875003 0.093016 0.789057 -0.237559
C16   C     C_R   0.848735 0.317193 0.676254 -0.228477
C17   C     C_R   0.864013 0.187151 0.570101 -0.203950
C18   C     C_R   0.861235 0.218700 0.899052 -0.072754
H3    H     H_    0.839767 0.396882 0.699150 0.102183
H4    H     H_    0.847861 0.338517 0.991684 0.099511
H5    H     H_    0.838261 0.436393 0.805969 0.104798
H6    H     H_    0.834148 0.473499 0.929814 0.123257
H7    H     H_    0.881306 0.031918 0.814894 0.134098
C19   C     C_3   0.780924 0.159595 0.251378 -0.143730
C20   C     C_3   0.956264 0.210489 0.294840 -0.137969
H8    H     H_    0.038428 0.178314 0.332164 0.105151
H9    H     H_    0.719274 0.084573 0.251951 0.111546
C21   C     C_3   0.847475 0.310903 0.312379 -0.001191
C22   C     C_3   0.671920 0.260783 0.269723 -0.118407
C23   C     C_3   0.756678 0.289238 0.205236 -0.139612
C24   C     C_3   0.932048 0.340150 0.248679 -0.140348
C25   C     C_3   0.041013 0.238936 0.230348 -0.120020
C26   C     C_3   0.865457 0.188858 0.187698 -0.004479
H10   H     H_    0.519592 0.269929 0.286264 0.105479
H11   H     H_    0.674425 0.321063 0.167783 0.103140
H12   H     H_    0.994269 0.415070 0.247988 0.101751
H13   H     H_    0.193330 0.229679 0.213801 0.105895
C27   C     C_3   0.528919 0.750926 0.722063 -0.150292
C28   C     C_3   0.390420 0.839874 0.745794 0.135091
H14   H     H_    0.670672 0.753648 0.697854 0.185343
C29   C     C_3   0.354090 0.808424 0.813524 -0.054814
C30   C     C_3   0.491849 0.718727 0.790431 -0.152361
C31   C     C_3   0.319256 0.651561 0.756296 -0.191658
C32   C     C_3   0.181403 0.741861 0.780238 -0.182212
C33   C     C_3   0.220053 0.773446 0.712183 0.298411
C34   C     C_3   0.356847 0.684571 0.688827 -0.082042
H15   H     H_    0.604110 0.696071 0.823315 0.117150
H16   H     H_    0.291029 0.572965 0.760084 0.123618
H17   H     H_    0.038003 0.738870 0.803929 0.127311
C35   C     C_R   0.416836 0.895184 0.397210 0.175875
H18   H     H_    0.419282 0.018991 0.308331 0.126791
C36   C     C_R   0.358804 0.719620 0.399730 -0.069110
C37   C     C_R   0.354108 0.681680 0.068090 0.118190
C38   C     C_R   0.386497 0.607391 0.103985 -0.127719
C39   C     C_R   0.420751 0.632123 0.175334 0.135251
C40   C     C_R   0.394075 0.733621 0.214303 0.083251
C41   C     C_R   0.379719 0.810120 0.177027 -0.003916
C42   C     C_R   0.386568 0.762958 0.288338 0.061607
C43   C     C_R   0.406202 0.866349 0.323591 0.091148
C44   C     C_R   0.409295 0.939211 0.284441 -0.194578
C45   C     C_R   0.389083 0.911951 0.213232 -0.184001
C46   C     C_R   0.346884 0.693170 0.327991 -0.288161
C47   C     C_R   0.394054 0.820504 0.435492 0.155534
C48   C     C_R   0.360872 0.783759 0.104014 -0.093860
H19   H     H_    0.302014 0.616989 0.303877 0.136813
H20   H     H_    0.398356 0.529488 0.075351 0.129348
H21   H     H_    0.383470 0.972290 0.186695 0.113513
O11   O     O_R   0.203580 0.914920 0.912610 -0.539824
O12   O     O_R   0.535710 0.887810 0.047120 -0.542412
O13   O     O_R   0.710730 0.084950 0.087430 -0.541527
C49   C     C_R   0.367064 0.862016 0.064528 0.717566
O14   O     O_R   0.533010 0.902850 0.910600 -0.543595
O15   O     O_R   0.708010 0.100090 0.949930 -0.538641
C50   C     C_R   0.363409 0.879902 0.883592 0.708351
O16   O     O_R   0.206300 0.899780 0.050100 -0.540394
O17   O     O_3   0.375170 0.064580 0.013100 -0.372304
V3    V     V_3+5 0.648200 0.988020 0.997570 1.415975
O18   O     O_R   0.038030 0.112330 0.952840 -0.539955
C51   C     C_R   0.869232 0.140437 0.937807 0.688070
O19   O     O_R   0.040730 0.097300 0.089360 -0.545570
C52   C     C_R   0.872893 0.118852 0.116980 0.675609
V4    V     V_3+5 0.148780 0.012220 0.002360 1.418934
O20   O     O_3   0.871930 0.935430 0.986900 -0.370877
C53   C     C_3   0.424508 0.947301 0.739624 -0.729596
H22   H     H_    0.462933 0.947282 0.685742 0.239817
H23   H     H_    0.292234 0.991956 0.754253 0.222212
H24   H     H_    0.542754 0.981805 0.775013 0.202356
Br1   Br    Br    0.028320 0.806787 0.651631 -0.598250
C54   C     C_3   0.400908 0.848478 0.513791 -0.660955
H25   H     H_    0.365864 0.785141 0.537479 0.201346
H26   H     H_    0.546827 0.875444 0.531843 0.245672
H27   H     H_    0.295475 0.908239 0.534235 0.259705
C55   C     C_3   0.453492 0.005043 0.433708 -0.738880
H28   H     H_    0.330089 0.051333 0.424640 0.199914
H29   H     H_    0.474005 0.018964 0.490167 0.238756
H30   H     H_    0.587072 0.032488 0.413580 0.204556
C56   C     C_3   0.326300 0.651415 0.990782 -0.796199
H31   H     H_    0.322722 0.568177 0.970851 0.208423
H32   H     H_    0.187973 0.681408 0.976609 0.206726
H33   H     H_    0.446009 0.682195 0.965098 0.198771
C57   C     C_3   0.517503 0.551490 0.203447 -0.824819
H34   H     H_    0.601342 0.583669 0.251223 0.222941
H35   H     H_    0.409480 0.495416 0.212047 0.199894
H36   H     H_    0.624158 0.510900 0.165843 0.206163
Br2   Br    Br    0.900851 0.978153 0.553657 -0.606726

loop_
_geom_bond_atom_site_label_1
_geom_bond_atom_site_label_2
_ccdc_geom_bond_type
C23   H11   S    
C38   H20   S    
C29   C30   S    
O15   V3    S    
C35   C47   A    
C56   H31   S    
C46   H19   S    
C42   C46   A    
C28   C33   S    
C31   H16   S    
C6    C16   A    
C24   C25   S    
C23   C24   S    
C12   C13   A    
C14   C15   A    
C10   C12   A    
O14   V3    S    
O5    C3    A    
C19   C20   S    
O14   C50   A    
V2    O10   S    
O18   V4    S    
C30   C31   S    
C43   C44   A    
C29   C50   S    
C3    C21   S    
C27   C34   S    
O8    V2    S    
C38   C39   A    
C57   H35   S    
C35   C43   A    
C40   C41   A    
O1    V2    S    
O13   V3    S    
C56   H33   S    
C22   H10   S    
C23   C26   S    
C1    O6    A    
C11   C18   A    
C18   C51   S    
C33   C34   S    
O9    C4    A    
C55   H29   S    
O19   C52   A    
C37   C48   A    
C27   H14   S    
C20   C21   S    
C31   C32   S    
C28   C29   S    
C11   C15   A    
C7    C18   A    
O11   V4    S    
C44   C45   A    
C37   C38   A    
C5    C13   A    
C4    C6    S    
C10   C11   A    
C19   H9    S    
C56   H32   S    
C20   H8    S    
O4    C2    A    
C49   O16   A    
C45   H21   S    
C31   C34   S    
C7    H4    S    
C32   C33   S    
C25   H13   S    
H18   C44   S    
O13   C52   A    
O2    C1    A    
C22   C23   S    
C55   H28   S    
C57   H36   S    
C36   C46   A    
V4    O20   S    
C1    C34   S    
C54   H26   S    
V3    O20   S    
O19   V4    S    
H2    C14   S    
C19   C26   S    
O3    C4    A    
C20   C25   S    
C48   C49   S    
C37   C56   S    
O12   C49   A    
C12   C16   A    
O6    V2    S    
C53   H23   S    
O9    V2    S    
C5    C17   A    
C55   H30   S    
C47   C54   S    
C21   C22   S    
O2    V1    S    
C54   H25   S    
O12   V3    S    
C27   C28   S    
C35   C55   S    
O7    V1    S    
C32   H17   S    
C36   C47   A    
C25   C26   S    
C39   C57   S    
C16   H3    S    
O1    C2    A    
C33   Br1   S    
C8    C9    A    
C42   C43   A    
O5    V1    S    
O8    C3    A    
O17   V4    S    
C28   C53   S    
C53   H24   S    
C8    H6    S    
C9    H5    S    
O16   V4    S    
O7    V2    S    
O4    V1    S    
O3    V1    S    
V1    O10   S    
C2    C36   S    
C41   C45   A    
O17   V3    S    
C24   H12   S    
O11   C50   A    
O15   C51   A    
O18   C51   A    
C54   H27   S    
C39   C40   A    
C5    Br2   S    
C9    C10   A    
C27   C30   S    
C19   C22   S    
C53   H22   S    
C29   C32   S    
C15   H7    S    
C13   C14   A    
C26   C52   S    
C30   H15   S    
C40   C42   A    
H1    C17   S    
C7    C8    A    
C21   C24   S    
C41   C48   A    
C57   H34   S    
C6    C17   A    
