data_mof_unit_1879.cif
_audit_creation_date              2012-10-26T19:18:47-0400
_audit_creation_method            fapswitch 2.2
_symmetry_space_group_name_H-M    P1
_symmetry_Int_Tables_number       1
_space_group_crystal_system       triclinic
_cell_length_a                    9.688309
_cell_length_b                    10.93658
_cell_length_c                    15.478281
_cell_angle_alpha                 89.919226
_cell_angle_beta                  73.891424
_cell_angle_gamma                 90.020069
_cell_volume                      1575.63814248

loop_
_atom_site_label
_atom_site_type_symbol
_atom_type_description
_atom_site_fract_x
_atom_site_fract_y
_atom_site_fract_z
_atom_type_partial_charge
C1    C     C_R   0.000569 0.265347 0.498813 0.553034
C2    C     C_R   0.233530 0.570162 0.047676 0.019883
C3    C     C_R   0.326064 0.513127 0.092138 0.059387
C4    C     C_R   0.916848 0.500234 0.672356 0.547146
C5    C     C_R   0.090543 0.594831 0.094256 -0.160089
C6    C     C_R   0.040407 0.568048 0.185421 -0.165426
C7    C     C_R   0.264668 0.463537 0.179031 0.125928
C8    C     C_2   0.887725 0.933022 0.497837 -0.160501
C9    C     C_2   0.999988 0.866642 0.505472 -0.117316
C10   C     C_2   0.885911 0.066945 0.501866 -0.159683
C11   C     C_2   0.004955 0.133418 0.494086 -0.119769
C12   C     C_R   0.673472 0.515291 0.909334 0.031425
C13   C     C_2   0.397943 0.432844 0.554248 -0.022551
C14   C     C_2   0.554694 0.429487 0.551913 -0.020562
C15   C     C_R   0.999664 0.734670 0.501015 0.560698
C16   C     C_R   0.083028 0.497291 0.327743 0.541884
C17   C     C_R   0.870568 0.500541 0.771219 -0.003912
C18   C     C_R   0.128095 0.505599 0.229182 0.009247
C19   C     C_R   0.918928 0.473898 0.915340 -0.139854
C20   C     C_R   0.967990 0.480651 0.821839 -0.139547
C21   C     C_R   0.724904 0.518109 0.815165 -0.134797
C22   C     C_3   0.336067 0.250664 0.156669 -0.315038
C23   C     C_R   0.772333 0.488847 0.959324 0.049109
C24   C     C_R   0.525862 0.534015 0.954839 0.020216
C25   C     C_R   0.475963 0.507672 0.048215 0.035483
C26   C     C_R   0.577982 0.485607 0.096311 -0.120307
C27   C     C_R   0.723751 0.477416 0.052553 -0.149560
C28   C     C_R   0.427721 0.582525 0.911017 -0.143752
C29   C     C_R   0.285106 0.603281 0.957537 -0.141479
Cu1   Cu    Cu3+1 0.138640 0.500020 0.499980 0.930686
Cu2   Cu    Cu3+1 0.861360 0.499980 0.500020 0.928780
H1    H     H_    0.798590 0.460319 0.091852 0.112927
H2    H     H_    0.623414 0.562376 0.460703 0.201820
H3    H     H_    0.933650 0.597972 0.222031 0.131734
H4    H     H_    0.214629 0.645455 0.922599 0.113266
H5    H     H_    0.995295 0.454960 0.953194 0.114534
H6    H     H_    0.081204 0.467128 0.789187 0.125489
H7    H     H_    0.652034 0.529064 0.774341 0.123024
H8    H     H_    0.547428 0.479806 0.168814 0.157692
H9    H     H_    0.459858 0.612761 0.842000 0.107456
H10   H     H_    0.295726 0.340939 0.277191 0.276618
H11   H     H_    0.225612 0.218755 0.160431 0.143821
H12   H     H_    0.019816 0.640809 0.061348 0.117114
H13   H     H_    0.392524 0.177577 0.183354 0.143400
H14   H     H_    0.396071 0.266777 0.085324 0.166139
H15   H     H_    0.791918 0.888322 0.489773 0.148488
H16   H     H_    0.094834 0.907647 0.517127 0.101462
H17   H     H_    0.782866 0.111559 0.510196 0.147751
H18   H     H_    0.110208 0.092528 0.482160 0.100150
H19   H     H_    0.324712 0.375243 0.603330 0.133123
H20   H     H_    0.415180 0.550275 0.452224 0.207016
H21   H     H_    0.586170 0.365615 0.596658 0.135390
N1    N     N_2   0.346430 0.498660 0.500980 -0.346623
N2    N     N_2   0.652550 0.498630 0.501000 -0.347370
N3    N     N_2   0.329911 0.360636 0.209658 -0.538736
O1    O     O_R   0.117050 0.321960 0.499980 -0.499957
O2    O     O_R   0.882890 0.321920 0.500020 -0.491251
O3    O     O_R   0.052910 0.500040 0.629810 -0.496084
O4    O     O_R   0.818750 0.499990 0.629840 -0.501082
O5    O     O_R   0.117110 0.678080 0.499980 -0.491788
O6    O     O_R   0.882950 0.678040 0.500020 -0.495226
O7    O     O_R   0.181250 0.500010 0.370160 -0.501778
O8    O     O_R   0.947090 0.499960 0.370190 -0.497282

loop_
_geom_bond_atom_site_label_1
_geom_bond_atom_site_label_2
_ccdc_geom_bond_type
C19   C23   A    
C14   H21   S    
C22   N3    S    
C11   H18   S    
C16   O8    A    
C23   C27   A    
C24   C28   A    
C15   O5    A    
Cu2   O6    S    
C3    C7    A    
C19   C20   A    
C1    C11   S    
C7    N3    S    
Cu1   Cu2   S    
C7    C18   A    
Cu2   O2    S    
C2    C3    A    
C15   O6    A    
C25   C26   A    
C13   C14   S    
C20   H6    S    
C12   C23   A    
C26   C27   A    
C22   H11   S    
C16   O7    A    
C2    C29   A    
H10   N3    S    
C4    C17   S    
Cu1   O3    S    
C4    O4    A    
C8    C10   S    
C28   C29   A    
C14   N2    D    
C1    O1    A    
C9    H16   S    
C13   N1    D    
C19   H5    S    
Cu1   O7    S    
Cu2   N2    S    
C10   H17   S    
C5    C6    A    
C6    C18   A    
Cu1   N1    S    
C8    H15   S    
C26   H8    S    
C2    C5    A    
C10   C11   D    
C28   H9    S    
C4    O3    A    
C13   H19   S    
Cu2   O8    S    
C3    C25   A    
C17   C20   A    
C24   C25   A    
C16   C18   S    
C22   H14   S    
Cu2   O4    S    
H2    N2    S    
C29   H4    S    
C5    H12   S    
C22   H13   S    
C12   C24   A    
C27   H1    S    
C9    C15   S    
Cu1   O1    S    
C12   C21   A    
C17   C21   A    
C21   H7    S    
C6    H3    S    
Cu1   O5    S    
C8    C9    D    
H20   N1    S    
C1    O2    A    
