data_mof_unit_2267.cif
_audit_creation_date              2012-12-10T16:49:26-0500
_audit_creation_method            fapswitch 2.2
_symmetry_space_group_name_H-M    P1
_symmetry_Int_Tables_number       1
_space_group_crystal_system       triclinic
_cell_length_a                    19.309198
_cell_length_b                    8.688431
_cell_length_c                    7.517197
_cell_angle_alpha                 103.303065
_cell_angle_beta                  94.997352
_cell_angle_gamma                 93.524192
_cell_volume                      1218.29952403

loop_
_atom_site_label
_atom_site_type_symbol
_atom_type_description
_atom_site_fract_x
_atom_site_fract_y
_atom_site_fract_z
_atom_type_partial_charge
C1    C     C_R   0.497769 0.199747 0.452986 0.874468
C2    C     C_R   0.502231 0.800253 0.547014 0.874468
C3    C     C_2   0.496409 0.031362 0.427162 -0.328846
C4    C     C_2   0.503591 0.968638 0.572838 -0.328846
C5    C     C_R   0.367635 0.499099 0.500883 0.797351
C6    C     C_R   0.632365 0.500901 0.499117 0.797351
C7    C     C_R   0.262515 0.555418 0.666308 -0.189080
C8    C     C_R   0.737485 0.444582 0.333692 -0.189080
C9    C     C_R   0.190327 0.557144 0.667399 -0.020111
C10   C     C_R   0.809673 0.442856 0.332601 -0.020111
C11   C     C_R   0.146153 0.497692 0.502335 -0.021840
C12   C     C_R   0.853847 0.502308 0.497665 -0.021840
C13   C     C_R   0.175750 0.437235 0.337547 -0.021530
C14   C     C_R   0.824250 0.562765 0.662453 -0.021530
C15   C     C_R   0.248021 0.438941 0.338533 -0.202910
C16   C     C_R   0.751979 0.561059 0.661467 -0.202910
C17   C     C_R   0.291686 0.497662 0.502233 -0.047140
C18   C     C_R   0.708314 0.502338 0.497767 -0.047141
C19   C     C_R   0.929990 0.500733 0.498473 0.393450
C20   C     C_R   0.070010 0.499267 0.501527 0.393450
Cu1   Cu    Cu3+1 0.507710 0.517380 0.684380 1.068080
Cu2   Cu    Cu3+1 0.492290 0.482620 0.315620 1.068080
H1    H     H_    0.296051 0.602385 0.793202 0.170122
H2    H     H_    0.703949 0.397615 0.206798 0.170122
H3    H     H_    0.270182 0.391990 0.211361 0.177501
H4    H     H_    0.729818 0.608010 0.788639 0.177501
H5    H     H_    0.489371 0.958744 0.287237 0.204011
H6    H     H_    0.510629 0.041256 0.712763 0.204011
N1    N     N_R   0.032301 0.556263 0.373717 -0.191084
N2    N     N_R   0.967699 0.443737 0.626283 -0.191084
N3    N     N_R   0.963434 0.557024 0.372225 -0.190292
N4    N     N_R   0.036566 0.442976 0.627775 -0.190292
N5    N     N_2   0.480680 0.456420 0.038530 0.058034
N6    N     N_2   0.519320 0.543580 0.961470 0.058034
O1    O     O_R   0.505010 0.286130 0.619770 -0.555504
O2    O     O_R   0.494990 0.713870 0.380230 -0.555504
O3    O     O_R   0.491990 0.256780 0.308370 -0.566653
O4    O     O_R   0.508010 0.743220 0.691630 -0.566653
O5    O     O_R   0.406650 0.514660 0.655750 -0.559397
O6    O     O_R   0.593350 0.485340 0.344250 -0.559397
O7    O     O_R   0.393640 0.485310 0.344340 -0.571875
O8    O     O_R   0.606360 0.514690 0.655660 -0.571875
C21   C     C_1   0.163245 0.627218 0.838223 0.277697
N7    N     N_1   0.141642 0.683754 0.974972 -0.230838
C22   C     C_1   0.836755 0.372782 0.161777 0.277697
N8    N     N_1   0.858358 0.316246 0.025028 -0.230838
C23   C     C_1   0.133170 0.367327 0.166667 0.294477
N9    N     N_1   0.099122 0.311187 0.029863 -0.209354
C24   C     C_1   0.866830 0.632673 0.833333 0.294477
N10   N     N_1   0.900878 0.688813 0.970137 -0.209354
Br1   Br    Br    0.410077 0.305826 0.902518 -0.408737
Br2   Br    Br    0.589923 0.694174 0.097482 -0.408737

loop_
_geom_bond_atom_site_label_1
_geom_bond_atom_site_label_2
_ccdc_geom_bond_type
C2    C4    S    
C21   N7    T    
Cu1   O1    S    
N5    Br1   S    
C11   C13   A    
C2    O4    A    
N6    Br2   S    
C23   N9    T    
Cu1   O5    S    
C1    O3    A    
Cu2   O6    S    
C10   C22   S    
C3    H5    S    
N5    N6    D    
C19   N3    A    
N1    N3    A    
Cu1   Cu2   S    
N2    N4    A    
C9    C11   A    
C10   C12   A    
Cu2   N5    S    
C7    H1    S    
C12   C19   S    
C8    C10   A    
C13   C23   S    
C4    H6    S    
C12   C14   A    
C14   C16   A    
C20   N1    A    
C13   C15   A    
C16   H4    S    
C6    C18   S    
C6    O6    A    
C11   C20   S    
C9    C21   S    
Cu2   O7    S    
C5    C17   S    
Cu1   O8    S    
C14   C24   S    
C7    C9    A    
Cu2   O2    S    
C1    O1    A    
C15   H3    S    
C16   C18   A    
C24   N10   T    
C20   N4    A    
C2    O2    A    
C15   C17   A    
C5    O5    A    
C5    O7    A    
Cu1   N6    S    
C8    H2    S    
C22   N8    T    
C19   N2    A    
C6    O8    A    
Cu2   O3    S    
C8    C18   A    
Cu1   O4    S    
C3    C4    D    
C1    C3    S    
C7    C17   A    
