data_mof_unit_925.cif
_audit_creation_date              2012-12-10T16:51:18-0500
_audit_creation_method            fapswitch 2.2
_symmetry_space_group_name_H-M    P1
_symmetry_Int_Tables_number       1
_space_group_crystal_system       triclinic
_cell_length_a                    27.78211
_cell_length_b                    8.656498
_cell_length_c                    7.427491
_cell_angle_alpha                 103.13703
_cell_angle_beta                  93.886511
_cell_angle_gamma                 92.443102
_cell_volume                      1732.43293025

loop_
_atom_site_label
_atom_site_type_symbol
_atom_type_description
_atom_site_fract_x
_atom_site_fract_y
_atom_site_fract_z
_atom_type_partial_charge
C1    C     C_R   0.498534 0.199553 0.453031 0.893124
C2    C     C_R   0.501466 0.800447 0.546969 0.893124
C3    C     C_R   0.102246 0.493113 0.516535 -0.112683
C4    C     C_R   0.897754 0.506887 0.483463 -0.112684
C5    C     C_R   0.124718 0.347264 0.469763 -0.119164
C6    C     C_R   0.875282 0.652736 0.530236 -0.119164
C7    C     C_R   0.095803 0.204149 0.418707 0.453509
C8    C     C_R   0.904197 0.795851 0.581292 0.453509
C9    C     C_R   0.131196 0.636167 0.571982 -0.027325
C10   C     C_R   0.868804 0.363833 0.428017 -0.027325
C11   C     C_R   0.354630 0.497087 0.509566 -0.036246
C12   C     C_R   0.645370 0.502913 0.490434 -0.036246
C13   C     C_R   0.970849 0.355292 0.444953 0.075249
C14   C     C_R   0.029151 0.644708 0.555045 0.075248
C15   C     C_R   0.977892 0.648119 0.543946 -0.016651
C16   C     C_R   0.022108 0.351881 0.456052 -0.016652
C17   C     C_R   0.949031 0.503489 0.491462 0.065482
C18   C     C_R   0.050969 0.496511 0.508536 0.065482
C19   C     C_R   0.940346 0.215099 0.384935 -0.213742
C20   C     C_R   0.059654 0.784901 0.615063 -0.213741
C21   C     C_R   0.890508 0.219684 0.377533 -0.128561
C22   C     C_R   0.109492 0.780316 0.622466 -0.128560
C23   C     C_R   0.407481 0.499313 0.502921 0.798235
C24   C     C_R   0.592518 0.500687 0.497079 0.798236
C25   C     C_R   0.045653 0.207713 0.418876 -0.325171
C26   C     C_R   0.954346 0.792287 0.581122 -0.325173
C27   C     C_2   0.497835 0.031486 0.426590 -0.363868
C28   C     C_2   0.502165 0.968514 0.573410 -0.363868
C29   C     C_R   0.175665 0.349799 0.475573 0.554887
C30   C     C_R   0.824335 0.650201 0.524426 0.554889
C31   C     C_R   0.181567 0.632361 0.575295 0.530036
C32   C     C_R   0.818433 0.367639 0.424704 0.530036
C33   C     C_R   0.283710 0.514045 0.685580 -0.096579
C34   C     C_R   0.716290 0.485953 0.314419 -0.096579
C35   C     C_R   0.333813 0.516694 0.680164 -0.213604
C36   C     C_R   0.666186 0.483303 0.319836 -0.213604
C37   C     C_R   0.324441 0.474252 0.344785 -0.203559
C38   C     C_R   0.675559 0.525751 0.655215 -0.203559
C39   C     C_R   0.274415 0.471125 0.350625 -0.112069
C40   C     C_R   0.725585 0.528877 0.649375 -0.112068
C41   C     C_R   0.253972 0.491143 0.520815 0.359017
C42   C     C_R   0.746027 0.508857 0.479185 0.359016
Cu1   Cu    Cu3+1 0.505380 0.517380 0.684380 0.955203
Cu2   Cu    Cu3+1 0.494620 0.482620 0.315620 0.955203
H1    H     H_    0.339397 0.458710 0.211347 0.157453
H2    H     H_    0.660603 0.541295 0.788654 0.157454
H3    H     H_    0.462123 0.378130 0.948464 0.225451
H4    H     H_    0.537877 0.621869 0.051536 0.225451
H5    H     H_    0.251454 0.454062 0.223044 0.130667
H6    H     H_    0.748546 0.545942 0.776956 0.130668
H7    H     H_    0.732047 0.470214 0.182487 0.131325
H8    H     H_    0.267953 0.529782 0.817512 0.131324
H9    H     H_    0.868934 0.108630 0.331223 0.216099
H10   H     H_    0.131066 0.891370 0.668776 0.216099
H11   H     H_    0.953480 0.098628 0.339720 0.141264
H12   H     H_    0.046520 0.901372 0.660278 0.141264
H13   H     H_    0.026427 0.093293 0.391485 0.149962
H14   H     H_    0.973573 0.906707 0.608512 0.149961
H15   H     H_    0.493764 0.959337 0.285351 0.179565
H16   H     H_    0.506236 0.040663 0.714649 0.179565
N1    N     N_R   0.202564 0.490910 0.525818 -0.476763
N2    N     N_R   0.797436 0.509090 0.474181 -0.476763
N3    N     N_2   0.486510 0.456430 0.038510 -0.218230
N4    N     N_2   0.513490 0.543570 0.961490 -0.218230
O1    O     O_R   0.503500 0.286120 0.619780 -0.582917
O2    O     O_R   0.496500 0.713880 0.380220 -0.582917
O3    O     O_R   0.494410 0.256780 0.308360 -0.583340
O4    O     O_R   0.505590 0.743220 0.691640 -0.583340
O5    O     O_R   0.434810 0.514700 0.655690 -0.591820
O6    O     O_R   0.565190 0.485300 0.344310 -0.591820
O7    O     O_R   0.425720 0.485350 0.344280 -0.584528
O8    O     O_R   0.574280 0.514650 0.655720 -0.584528
O9    O     O_2   0.198399 0.213217 0.431309 -0.478745
O10   O     O_2   0.801601 0.786783 0.568691 -0.478744
O11   O     O_2   0.790547 0.230865 0.374598 -0.518877
O12   O     O_2   0.209453 0.769135 0.625402 -0.518877
O13   O     O_3   0.116303 0.058362 0.385048 -0.545975
C43   C     C_3   0.111585 0.990541 0.192346 0.104025
H17   H     H_    0.072915 0.969465 0.138185 0.115062
H18   H     H_    0.130399 0.068826 0.115679 0.154901
C44   C     C_3   0.134612 0.831138 0.155342 -0.709181
H19   H     H_    0.172936 0.846589 0.212748 0.280572
H20   H     H_    0.114702 0.747254 0.220776 0.236608
H21   H     H_    0.133268 0.779822 0.003866 0.193972
O14   O     O_3   0.883697 0.941639 0.614950 -0.545974
C45   C     C_3   0.888416 0.009460 0.807652 0.104023
H22   H     H_    0.869604 0.931173 0.884323 0.154897
H23   H     H_    0.927086 0.030543 0.861808 0.115064
C46   C     C_3   0.865386 0.168860 0.844658 -0.709177
H24   H     H_    0.866732 0.220177 0.996134 0.193970
H25   H     H_    0.885294 0.252745 0.779219 0.236608
H26   H     H_    0.827062 0.153402 0.787258 0.280573
H27   H     H_    0.643837 0.465659 0.190733 0.157930
H28   H     H_    0.356163 0.534337 0.809266 0.157930

loop_
_geom_bond_atom_site_label_1
_geom_bond_atom_site_label_2
_ccdc_geom_bond_type
C38   C40   A    
Cu1   O8    S    
C8    C26   A    
C23   O5    A    
Cu2   O2    S    
C34   C42   A    
C41   N1    S    
C20   H12   S    
C32   O11   S    
C44   H19   S    
C24   O6    A    
C39   C41   A    
O13   C43   S    
C33   H8    S    
C34   H7    S    
Cu2   O7    S    
C19   C21   A    
C2    O4    A    
H3    N3    S    
C30   O10   S    
C43   H18   S    
C9    C22   A    
H4    N4    S    
C29   O9    S    
C3    C18   A    
C8    O14   S    
C11   C37   A    
C31   N1    A    
C33   C35   A    
C36   H27   S    
Cu1   O4    S    
C1    O1    A    
Cu2   O6    S    
C12   C36   A    
C42   N2    S    
C34   C36   A    
C7    O13   S    
C40   C42   A    
C10   C21   A    
C22   H10   S    
C25   H13   S    
C44   H20   S    
Cu1   N4    S    
C5    C29   A    
C28   H16   S    
Cu2   N3    S    
C29   N1    A    
C13   C19   A    
C14   C20   A    
C4    C6    A    
C5    C7    A    
C45   H22   S    
C15   C26   A    
C6    C8    A    
C2    O2    A    
O14   C45   S    
Cu1   Cu2   S    
C3    C9    A    
C23   O7    A    
Cu1   O1    S    
C46   H26   S    
C26   H14   S    
C4    C17   A    
C39   H5    S    
C20   C22   A    
C30   N2    A    
C46   H25   S    
C4    C10   A    
C44   H21   S    
C24   O8    A    
C35   H28   S    
C19   H11   S    
C16   C25   A    
C15   C17   A    
C6    C30   A    
C43   H17   S    
C14   C18   A    
C3    C5    A    
C45   C46   S    
C12   C24   S    
C7    C25   A    
C13   C17   A    
C33   C41   A    
C11   C35   A    
C32   N2    A    
C37   C39   A    
C27   H15   S    
C21   H9    S    
C43   C44   S    
C31   O12   S    
C40   H6    S    
C11   C23   S    
C1    O3    A    
C45   H23   S    
C12   C38   A    
C38   H2    S    
C9    C31   A    
N3    N4    D    
C10   C32   A    
C16   C18   A    
C13   C16   A    
C27   C28   D    
C1    C27   S    
C14   C15   A    
Cu2   O3    S    
C2    C28   S    
C46   H24   S    
Cu1   O5    S    
C37   H1    S    
