data_mof_unit_1061.cif
_audit_creation_date              2012-12-11T14:04:21-0500
_audit_creation_method            fapswitch 2.2
_symmetry_space_group_name_H-M    P1
_symmetry_Int_Tables_number       1
_space_group_crystal_system       triclinic
_cell_length_a                    19.093419
_cell_length_b                    10.94913
_cell_length_c                    18.694194
_cell_angle_alpha                 89.258752
_cell_angle_beta                  90.183917
_cell_angle_gamma                 90.332437
_cell_volume                      3907.72749546

loop_
_atom_site_label
_atom_site_type_symbol
_atom_type_description
_atom_site_fract_x
_atom_site_fract_y
_atom_site_fract_z
_atom_type_partial_charge
C1    C     C_R   0.238652 0.468995 0.645729 0.553925
C2    C     C_R   0.990142 0.668263 0.575993 -0.049139
C3    C     C_3   0.568318 0.874273 0.129263 -0.263207
C4    C     C_3   0.574499 0.846491 0.209535 -0.407718
C5    C     C_3   0.509590 0.937610 0.958075 -0.209087
C6    C     C_3   0.558917 0.833138 0.938664 -0.288096
C7    C     C_3   0.520226 0.710808 0.936837 -0.469159
C8    C     C_3   0.067455 0.877796 0.349521 -0.373172
C9    C     C_3   0.952496 0.918536 0.635188 -0.363802
C10   C     C_3   0.567457 0.377795 0.349522 -0.373172
C11   C     C_3   0.452497 0.418536 0.635188 -0.363802
C12   C     C_R   0.506008 0.158633 0.426315 -0.037479
C13   C     C_R   0.490142 0.168264 0.575993 -0.049139
C14   C     C_R   0.038343 0.878725 0.424465 0.020890
C15   C     C_R   0.992080 0.895929 0.566914 0.035381
C16   C     C_R   0.538344 0.378724 0.424464 0.020890
C17   C     C_R   0.492080 0.395929 0.566913 0.035381
C18   C     C_R   0.042391 0.989186 0.460794 -0.127007
C19   C     C_R   0.017847 0.998411 0.530239 -0.114566
C20   C     C_R   0.542392 0.489185 0.460794 -0.127007
C21   C     C_R   0.760797 0.467461 0.353683 0.550891
C22   C     C_R   0.517847 0.498411 0.530238 -0.114566
C23   C     C_R   0.997925 0.778677 0.535530 0.016596
C24   C     C_R   0.013582 0.772097 0.461058 0.019100
C25   C     C_R   0.497926 0.278677 0.535529 0.016596
C26   C     C_R   0.513582 0.272097 0.461058 0.019100
C27   C     C_R   0.979881 0.557879 0.539585 0.014369
C28   C     C_R   0.001664 0.550314 0.468380 0.022151
C29   C     C_R   0.479881 0.057879 0.539585 0.014368
C30   C     C_R   0.501664 0.050314 0.468380 0.022151
C31   C     C_R   0.955307 0.451246 0.575011 -0.067276
C32   C     C_R   0.738653 0.968995 0.645729 0.553925
C33   C     C_R   0.015272 0.433447 0.440383 -0.079205
C34   C     C_R   0.455307 0.951247 0.575011 -0.067276
C35   C     C_R   0.515272 0.933446 0.440383 -0.079205
C36   C     C_R   0.963374 0.337188 0.544225 -0.132815
C37   C     C_R   0.995302 0.328200 0.477778 -0.148093
C38   C     C_R   0.463374 0.837188 0.544225 -0.132815
C39   C     C_R   0.495302 0.828200 0.477778 -0.148093
C40   C     C_2   0.241326 0.902216 0.927328 -0.096600
C41   C     C_2   0.778856 0.841559 0.064245 -0.101588
C42   C     C_2   0.741326 0.402216 0.927327 -0.096600
C43   C     C_R   0.260797 0.967460 0.353683 0.550892
C44   C     C_2   0.278856 0.341558 0.064246 -0.101587
C45   C     C_2   0.246927 0.901683 0.084432 -0.105595
C46   C     C_2   0.757583 0.885096 0.910890 -0.109929
C47   C     C_2   0.746927 0.401683 0.084432 -0.105595
C48   C     C_2   0.257583 0.385096 0.910890 -0.109930
C49   C     C_R   0.227147 0.875211 0.647781 0.556284
C50   C     C_R   0.772422 0.875871 0.351586 0.560311
C51   C     C_R   0.727147 0.375211 0.647781 0.556285
C52   C     C_R   0.272422 0.375871 0.351586 0.560313
C53   C     C_2   0.190857 0.935021 0.046429 -0.166618
C54   C     C_2   0.290585 0.846383 0.538312 -0.159590
C55   C     C_2   0.819515 0.899507 0.944351 -0.147966
C56   C     C_2   0.690857 0.435022 0.046429 -0.166618
C57   C     C_2   0.319515 0.399508 0.944352 -0.147967
C58   C     C_2   0.185949 0.919259 0.970247 -0.165368
C59   C     C_2   0.831664 0.862755 0.018998 -0.166545
C60   C     C_2   0.685949 0.419261 0.970247 -0.165367
C61   C     C_2   0.331664 0.362755 0.018999 -0.166545
C62   C     C_2   0.065116 0.647452 0.936034 -0.113478
C63   C     C_2   0.007783 0.664261 0.082115 -0.109166
C64   C     C_2   0.565117 0.147453 0.936034 -0.113479
C65   C     C_2   0.702999 0.859460 0.459434 -0.166857
C66   C     C_2   0.507782 0.164262 0.082115 -0.109165
C67   C     C_2   0.050124 0.576078 0.058460 -0.022086
C68   C     C_2   0.048844 0.552540 0.980749 -0.018601
C69   C     C_2   0.550125 0.076081 0.058460 -0.022086
C70   C     C_2   0.548846 0.052540 0.980750 -0.018601
C71   C     C_R   0.026352 0.656210 0.646478 0.544817
C72   C     C_R   0.972417 0.654032 0.354434 0.536894
C73   C     C_R   0.526352 0.156210 0.646478 0.544818
C74   C     C_R   0.472417 0.154032 0.354434 0.536894
C75   C     C_R   0.240080 0.461615 0.849168 0.547720
C76   C     C_2   0.790586 0.346384 0.538312 -0.159590
C77   C     C_R   0.760351 0.463633 0.150725 0.548495
C78   C     C_R   0.740080 0.961615 0.849168 0.547720
C79   C     C_R   0.260351 0.963634 0.150725 0.548494
C80   C     C_R   0.226392 0.871134 0.854001 0.544433
C81   C     C_R   0.791831 0.824368 0.139985 0.576075
C82   C     C_R   0.726392 0.371134 0.854001 0.544433
C83   C     C_R   0.291831 0.324367 0.139985 0.576076
C84   C     C_R   0.065322 0.645484 0.857455 0.580390
C85   C     C_R   0.973016 0.653538 0.150767 0.538370
C86   C     C_R   0.565322 0.145484 0.857455 0.580390
C87   C     C_2   0.202999 0.359460 0.459434 -0.166857
C88   C     C_R   0.473016 0.153538 0.150767 0.538371
C89   C     C_2   0.249323 0.918211 0.577778 -0.111868
C90   C     C_2   0.749359 0.922988 0.419762 -0.114156
C91   C     C_2   0.749323 0.418212 0.577778 -0.111868
C92   C     C_2   0.249359 0.422988 0.419762 -0.114155
C93   C     C_2   0.247298 0.908537 0.421930 -0.123049
C94   C     C_2   0.749855 0.914388 0.576364 -0.118524
C95   C     C_2   0.747299 0.408538 0.421930 -0.123050
C96   C     C_2   0.249855 0.414388 0.576364 -0.118524
C97   C     C_2   0.300479 0.869059 0.462269 -0.159133
C98   C     C_R   0.006008 0.658633 0.426315 -0.037479
C99   C     C_2   0.694690 0.883492 0.535505 -0.158786
C100  C     C_2   0.800479 0.369061 0.462270 -0.159132
C101  C     C_2   0.194690 0.383492 0.535505 -0.158785
C102  C     C_3   0.096736 0.502740 0.109298 -0.209800
C103  C     C_3   0.068311 0.374267 0.129261 -0.263208
C104  C     C_3   0.074490 0.346482 0.209532 -0.407728
C105  C     C_3   0.009588 0.437611 0.958074 -0.209084
C106  C     C_3   0.058915 0.333137 0.938665 -0.288098
C107  C     C_3   0.020225 0.210807 0.936842 -0.469159
C108  C     C_3   0.596739 0.002747 0.109299 -0.209801
Cr1   Cr    Cr6+3 0.113970 0.508630 0.747920 0.996320
Cr2   Cr    Cr6+3 0.887700 0.820070 0.250200 1.001102
Cr3   Cr    Cr6+3 0.612300 0.320070 0.749800 1.000987
Cr4   Cr    Cr6+3 0.387700 0.320070 0.250200 1.001103
Cr5   Cr    Cr6+3 0.886030 0.508630 0.252080 0.992946
Cr6   Cr    Cr6+3 0.613970 0.008630 0.747920 0.996320
Cr7   Cr    Cr6+3 0.386030 0.008630 0.252080 0.992946
Cr8   Cr    Cr6+3 0.269200 0.666740 0.749850 0.996903
Cr9   Cr    Cr6+3 0.730800 0.666740 0.250150 0.974583
Cr10  Cr    Cr6+3 0.769200 0.166740 0.749850 0.996902
Cr11  Cr    Cr6+3 0.230800 0.166740 0.250150 0.974584
Cr12  Cr    Cr6+3 0.112300 0.820070 0.749800 1.000987
H1    H     H_    0.352417 0.857327 0.440165 0.172751
H2    H     H_    0.717194 0.825214 0.932046 0.088115
H3    H     H_    0.787966 0.345623 0.062163 0.102214
H4    H     H_    0.217195 0.325212 0.932045 0.088116
H5    H     H_    0.294635 0.896176 0.947242 0.090889
H6    H     H_    0.724992 0.836540 0.046209 0.090019
H7    H     H_    0.794635 0.396176 0.947242 0.090889
H8    H     H_    0.224993 0.336540 0.046209 0.090020
H9    H     H_    0.983595 0.727439 0.044272 0.077712
H10   H     H_    0.083570 0.731815 0.959470 0.076952
H11   H     H_    0.483592 0.227437 0.044271 0.077712
H12   H     H_    0.642050 0.878421 0.557295 0.169951
H13   H     H_    0.583571 0.231816 0.959470 0.076954
H14   H     H_    0.316247 0.766680 0.561210 0.155479
H15   H     H_    0.672208 0.785476 0.436918 0.149283
H16   H     H_    0.816248 0.266681 0.561210 0.155479
H17   H     H_    0.172208 0.285476 0.436918 0.149283
H18   H     H_    0.195073 0.915443 0.444325 0.116072
H19   H     H_    0.802549 0.915870 0.554548 0.106914
H20   H     H_    0.695074 0.415445 0.444326 0.116072
H21   H     H_    0.302549 0.415870 0.554548 0.106914
H22   H     H_    0.224358 0.998618 0.554736 0.111176
H23   H     H_    0.852417 0.357328 0.440165 0.172752
H24   H     H_    0.778117 0.999511 0.442213 0.111885
H25   H     H_    0.724359 0.498619 0.554737 0.111176
H26   H     H_    0.278117 0.499511 0.442213 0.111885
H27   H     H_    0.064258 0.069250 0.434471 0.101335
H28   H     H_    0.018312 0.086527 0.555614 0.105308
H29   H     H_    0.564259 0.569249 0.434470 0.101336
H30   H     H_    0.518312 0.586527 0.555613 0.105308
H31   H     H_    0.040549 0.423067 0.389056 0.121964
H32   H     H_    0.931966 0.455997 0.627658 0.126849
H33   H     H_    0.540549 0.923067 0.389057 0.121964
H34   H     H_    0.142050 0.378421 0.557295 0.169951
H35   H     H_    0.431966 0.955997 0.627658 0.126849
H36   H     H_    0.945670 0.256005 0.572496 0.098838
H37   H     H_    0.002324 0.240249 0.453855 0.102699
H38   H     H_    0.445669 0.756005 0.572496 0.098838
H39   H     H_    0.502324 0.740248 0.453856 0.102699
H40   H     H_    0.148250 0.985681 0.070272 0.151943
H41   H     H_    0.861168 0.953001 0.919546 0.153300
H42   H     H_    0.648250 0.485682 0.070272 0.151943
H43   H     H_    0.361168 0.453002 0.919546 0.153300
H44   H     H_    0.127856 0.367300 0.229507 0.183587
H45   H     H_    0.133145 0.926516 0.948871 0.146064
H46   H     H_    0.036825 0.401866 0.240115 0.171081
H47   H     H_    0.062787 0.248413 0.220002 0.117347
H48   H     H_    0.012541 0.363334 0.113933 0.179459
H49   H     H_    0.098531 0.304280 0.100262 0.145865
H50   H     H_    0.149081 0.494132 0.084321 0.130591
H51   H     H_    0.105991 0.556939 0.158441 0.142767
H52   H     H_    0.998996 0.187385 0.990591 0.145381
H53   H     H_    0.976559 0.214671 0.897470 0.157306
H54   H     H_    0.057020 0.137877 0.920939 0.146944
H55   H     H_    0.081998 0.350336 0.885338 0.209632
H56   H     H_    0.884973 0.868243 0.039218 0.133091
H57   H     H_    0.102169 0.326510 0.978124 0.144272
H58   H     H_    0.975331 0.406806 0.002719 0.132259
H59   H     H_    0.971689 0.456597 0.914321 0.168309
H60   H     H_    0.627862 0.867328 0.229511 0.183582
H61   H     H_    0.536827 0.901863 0.240116 0.171074
H62   H     H_    0.562806 0.748418 0.220004 0.117355
H63   H     H_    0.512547 0.863336 0.113936 0.179455
H64   H     H_    0.598538 0.804288 0.100264 0.145866
H65   H     H_    0.649085 0.994143 0.084322 0.130593
H66   H     H_    0.605993 0.056949 0.158441 0.142765
H67   H     H_    0.633146 0.426519 0.948871 0.146065
H68   H     H_    0.499007 0.687372 0.990588 0.145380
H69   H     H_    0.476552 0.714681 0.897474 0.157306
H70   H     H_    0.557017 0.637881 0.920921 0.146946
H71   H     H_    0.582000 0.850342 0.885339 0.209637
H72   H     H_    0.602170 0.826506 0.978125 0.144268
H73   H     H_    0.475335 0.906804 0.002721 0.132262
H74   H     H_    0.471690 0.956598 0.914324 0.168308
H75   H     H_    0.084892 0.786015 0.332948 0.116393
H76   H     H_    0.029058 0.916939 0.311043 0.152047
H77   H     H_    0.113577 0.936552 0.346465 0.147351
H78   H     H_    0.384973 0.368243 0.039218 0.133091
H79   H     H_    0.925270 0.835400 0.655567 0.129688
H80   H     H_    0.988591 0.954007 0.676826 0.147614
H81   H     H_    0.911798 0.988510 0.624818 0.128077
H82   H     H_    0.584891 0.286013 0.332947 0.116392
H83   H     H_    0.529061 0.416941 0.311044 0.152044
H84   H     H_    0.613579 0.436546 0.346466 0.147351
H85   H     H_    0.425271 0.335401 0.655566 0.129688
H86   H     H_    0.488592 0.454008 0.676825 0.147614
H87   H     H_    0.411799 0.488511 0.624817 0.128076
H88   H     H_    0.287966 0.845623 0.062163 0.102215
O1    O     O_R   0.043230 0.549300 0.667990 -0.514700
O2    O     O_R   0.832470 0.905110 0.169660 -0.510509
O3    O     O_R   0.667530 0.405110 0.830340 -0.529766
O4    O     O_R   0.332470 0.405110 0.169660 -0.510509
O5    O     O_R   0.054010 0.748440 0.822860 -0.506135
O6    O     O_R   0.945990 0.748440 0.177140 -0.525100
O7    O     O_R   0.554010 0.248440 0.822860 -0.506134
O8    O     O_R   0.445990 0.248440 0.177140 -0.525101
O9    O     O_3   0.165160 0.665150 0.749190 -0.261326
O10   O     O_3   0.834840 0.665150 0.250810 -0.253937
O11   O     O_3   0.665160 0.165150 0.749190 -0.261326
O12   O     O_R   0.956770 0.549300 0.332010 -0.534024
O13   O     O_3   0.334840 0.165150 0.250810 -0.253938
O14   O     O_R   0.178620 0.457600 0.674100 -0.491402
O15   O     O_R   0.821380 0.457600 0.325900 -0.487117
O16   O     O_R   0.678620 0.957600 0.674100 -0.491402
O17   O     O_R   0.321380 0.957600 0.325900 -0.487117
O18   O     O_R   0.284680 0.542100 0.669460 -0.531164
O19   O     O_R   0.715320 0.542100 0.330540 -0.538088
O20   O     O_R   0.784680 0.042100 0.669460 -0.531165
O21   O     O_R   0.215320 0.042100 0.330540 -0.538088
O22   O     O_R   0.262860 0.790390 0.676650 -0.500503
O23   O     O_R   0.543230 0.049300 0.667990 -0.514700
O24   O     O_R   0.737140 0.790390 0.323350 -0.503907
O25   O     O_R   0.762860 0.290390 0.676650 -0.500504
O26   O     O_R   0.237140 0.290390 0.323350 -0.503907
O27   O     O_R   0.167460 0.907030 0.670940 -0.507464
O28   O     O_R   0.832540 0.907030 0.329060 -0.505487
O29   O     O_R   0.667460 0.407030 0.670940 -0.507464
O30   O     O_R   0.332540 0.407030 0.329060 -0.505487
O31   O     O_R   0.053950 0.750220 0.675100 -0.487794
O32   O     O_R   0.946050 0.750220 0.324900 -0.490464
O33   O     O_R   0.553950 0.250220 0.675100 -0.487795
O34   O     O_R   0.456770 0.049300 0.332010 -0.534024
O35   O     O_R   0.446050 0.250220 0.324900 -0.490462
O36   O     O_R   0.043300 0.547370 0.827390 -0.530588
O37   O     O_R   0.956700 0.547370 0.172610 -0.515212
O38   O     O_R   0.543300 0.047370 0.827390 -0.530588
O39   O     O_R   0.456700 0.047370 0.172610 -0.515212
O40   O     O_R   0.178690 0.455820 0.821860 -0.531611
O41   O     O_R   0.821310 0.455820 0.178140 -0.500945
O42   O     O_R   0.678690 0.955820 0.821860 -0.531614
O43   O     O_R   0.321310 0.955820 0.178140 -0.500945
O44   O     O_R   0.284750 0.540170 0.828860 -0.512749
O45   O     O_R   0.262920 0.788600 0.824420 -0.498847
O46   O     O_R   0.715250 0.540170 0.171140 -0.527281
O47   O     O_R   0.784750 0.040170 0.828860 -0.512748
O48   O     O_R   0.215250 0.040170 0.171140 -0.527280
O49   O     O_R   0.737080 0.788600 0.175580 -0.515455
O50   O     O_R   0.762920 0.288600 0.824420 -0.498847
O51   O     O_R   0.237080 0.288600 0.175580 -0.515458
O52   O     O_R   0.167530 0.905110 0.830340 -0.529765

loop_
_geom_bond_atom_site_label_1
_geom_bond_atom_site_label_2
_ccdc_geom_bond_type
C1    O18   A    
C102  H50   S    
C32   C94   S    
C22   H30   S    
C12   C74   S    
C82   O50   A    
C104  H47   S    
Cr4   O13   S    
C62   H10   S    
Cr11  O51   S    
C42   C82   S    
C91   H25   S    
C105  H58   S    
Cr8   O44   S    
C44   C83   S    
Cr11  O48   S    
C76   H16   S    
C52   O26   A    
C48   C57   D    
Cr1   O14   S    
C72   C98   S    
C34   H35   S    
C49   C89   S    
C101  H34   S    
C15   C19   A    
C39   H39   S    
C95   H20   S    
Cr3   O29   S    
C57   C61   S    
C11   H87   S    
C99   H12   S    
C24   C98   A    
C78   O47   A    
Cr4   O4    S    
Cr4   O8    S    
C13   C29   A    
C36   C37   A    
Cr2   O6    S    
C105  H59   S    
C82   O3    A    
C55   C59   S    
C69   C70   S    
C9    H79   S    
Cr12  O27   S    
C66   C88   S    
C5    C6    S    
Cr12  O31   S    
Cr2   O32   S    
C66   C69   D    
Cr7   O43   S    
C106  C107  S    
C37   H37   S    
C89   H22   S    
C54   H14   S    
C56   H42   S    
Cr11  O13   S    
Cr5   O41   S    
C20   H29   S    
C8    H75   S    
C18   C19   A    
C14   C24   A    
C49   O22   A    
C58   H45   S    
C14   C18   A    
C86   O7    A    
Cr5   O15   S    
C97   H1    S    
C93   H18   S    
C51   C91   S    
C96   H21   S    
C87   C101  S    
C50   C90   S    
Cr4   O35   S    
Cr9   O19   S    
C32   O20   A    
Cr1   O40   S    
Cr12  O9    S    
C71   O1    A    
C51   O29   A    
C6    H71   S    
C23   C24   A    
C72   O32   A    
C7    H70   S    
C50   O24   A    
C2    C27   A    
C80   O52   A    
C11   H86   S    
C64   C70   D    
C4    H61   S    
C21   O15   A    
C10   H83   S    
Cr6   O11   S    
Cr5   O12   S    
C83   O4    A    
C9    H80   S    
C52   O30   A    
Cr8   O45   S    
Cr8   O22   S    
C15   C23   A    
C81   O2    A    
C45   C53   D    
C103  H48   S    
C86   O38   A    
C34   C38   A    
C96   C101  D    
C63   C85   S    
C85   O37   A    
C94   H19   S    
C48   C75   S    
C13   C25   A    
C8    H77   S    
Cr2   O2    S    
Cr3   O11   S    
C4    H60   S    
Cr1   O1    S    
C64   C86   S    
C32   O16   A    
C69   C108  S    
Cr2   O28   S    
Cr7   O39   S    
C107  H52   S    
C16   C26   A    
C65   C90   D    
C21   O19   A    
C63   C67   D    
C40   C58   D    
C80   O45   A    
C92   H26   S    
C67   C68   S    
C7    H68   S    
C76   C100  S    
C55   H41   S    
C54   C89   D    
C45   C79   S    
C59   H56   S    
C33   H31   S    
C42   C60   D    
Cr6   O23   S    
C46   C78   S    
C95   C100  D    
Cr10  O11   S    
C21   C95   S    
Cr1   O36   S    
Cr10  O20   S    
C25   C26   A    
Cr12  O52   S    
C65   C99   S    
C27   C31   A    
C29   C34   A    
C100  H23   S    
C33   C37   A    
C56   C60   S    
C12   C26   A    
C1    O14   A    
C71   O31   A    
C46   C55   D    
C35   C39   A    
C104  H44   S    
C29   C30   A    
C28   C98   A    
Cr7   O34   S    
Cr9   O49   S    
Cr9   O46   S    
C108  H65   S    
Cr11  O26   S    
C47   H3    S    
C57   H43   S    
C16   C20   A    
C41   C81   S    
C2    C23   A    
C40   C80   S    
Cr9   O10   S    
C84   O36   A    
C50   O28   A    
C10   H82   S    
C38   H38   S    
C65   H15   S    
C9    H81   S    
C42   H7    S    
C74   O35   A    
C30   C35   A    
C20   C22   A    
C28   C33   A    
C18   H27   S    
C60   H67   S    
Cr4   O30   S    
C44   C61   D    
C52   C92   S    
C77   O41   A    
C68   C105  S    
C47   C77   S    
C6    H72   S    
C2    C71   S    
C5    H74   S    
C93   C97   D    
Cr5   O10   S    
C73   O23   A    
C87   C92   D    
C84   O5    A    
C36   H36   S    
C54   C97   S    
C5    H73   S    
C66   H11   S    
C3    H64   S    
C108  H66   S    
C102  H51   S    
C106  H57   S    
C62   C84   S    
C64   H13   S    
C44   H8    S    
C53   H40   S    
C8    C14   S    
C88   O8    A    
C12   C30   A    
C13   C73   S    
C79   O43   A    
C41   H6    S    
Cr7   O13   S    
C7    H69   S    
C77   O46   A    
C35   H33   S    
Cr3   O7    S    
C5    C70   S    
C11   C17   S    
C61   H78   S    
C48   H4    S    
C106  H55   S    
C53   C58   S    
C43   O21   A    
Cr7   O17   S    
C6    C7    S    
Cr10  O50   S    
C107  H54   S    
C3    C108  S    
C45   H88   S    
C83   O51   A    
C107  H53   S    
C105  C106  S    
Cr9   O24   S    
C81   O49   A    
C19   H28   S    
C62   C68   D    
C51   O25   A    
C17   C25   A    
C78   O42   A    
Cr12  O5    S    
C79   O48   A    
C49   O27   A    
C4    H62   S    
C10   C16   S    
C85   O6    A    
C88   O39   A    
C31   H32   S    
Cr10  O25   S    
C38   C39   A    
C3    H63   S    
C94   C99   D    
C1    C96   S    
Cr5   O37   S    
C40   H5    S    
C75   O44   A    
C43   C93   S    
C8    H76   S    
C63   H9    S    
C9    C15   S    
C102  C103  S    
Cr2   O10   S    
Cr3   O3    S    
Cr1   O9    S    
Cr10  O47   S    
Cr11  O21   S    
C76   C91   D    
C104  H46   S    
C74   O34   A    
C43   O17   A    
C73   O33   A    
C17   C22   A    
Cr3   O33   S    
C41   C59   D    
Cr8   O18   S    
C103  C104  S    
C103  H49   S    
C31   C36   A    
C46   H2    S    
C72   O12   A    
C11   H85   S    
Cr6   O16   S    
Cr8   O9    S    
C87   H17   S    
Cr6   O38   S    
C10   H84   S    
C90   H24   S    
C75   O40   A    
C3    C4    S    
C67   C102  S    
C47   C56   D    
C27   C28   A    
Cr6   O42   S    
