data_mof_unit_4726.cif
_audit_creation_date              2013-03-05T16:47:53-0500
_audit_creation_method            fapswitch 2.2
_symmetry_space_group_name_H-M    P1
_symmetry_Int_Tables_number       1
_space_group_crystal_system       triclinic
_cell_length_a                    10.871587
_cell_length_b                    10.957658
_cell_length_c                    9.63352
_cell_angle_alpha                 88.523989
_cell_angle_beta                  91.773903
_cell_angle_gamma                 94.250935
_cell_volume                      1143.59105551

loop_
_atom_site_label
_atom_site_type_symbol
_atom_site_description
_atom_site_fract_x
_atom_site_fract_y
_atom_site_fract_z
_atom_type_partial_charge
O1    O     O_R   0.499990 0.319640 0.618810 -0.592812
O2    O     O_R   0.500000 0.319660 0.381240 -0.589709
C1    C     C_R   0.500783 0.262657 0.503307 0.793008
O3    O     O_R   0.319640 0.500000 0.618780 -0.559442
O4    O     O_R   0.319650 0.500020 0.381210 -0.583334
C2    C     C_R   0.262009 0.496452 0.497683 0.801016
Cu1   Cu    Cu3+1 0.499990 0.499990 0.640660 0.957791
Cu2   Cu    Cu3+1 0.500010 0.500010 0.359340 0.930496
O5    O     O_R   0.500000 0.680340 0.618760 -0.559368
O6    O     O_R   0.500010 0.680360 0.381190 -0.607265
O7    O     O_R   0.680350 0.499980 0.618790 -0.548940
O8    O     O_R   0.680360 0.500000 0.381220 -0.609153
C3    C     C_R   0.492897 0.737304 0.498439 0.788069
C4    C     C_R   0.736818 0.495048 0.502502 0.799360
H1    H     H_    0.122231 0.677636 0.857189 0.130168
C5    C     C_R   0.092091 0.739332 0.063013 -0.163521
H2    H     H_    0.072470 0.830722 0.028037 0.125034
C6    C     C_R   0.088317 0.707485 0.204277 -0.164678
H3    H     H_    0.061477 0.773854 0.276884 0.117912
C7    C     C_R   0.107285 0.587134 0.249876 0.165379
C8    C     C_R   0.135084 0.501138 0.152166 -0.091369
H4    H     H_    0.143476 0.406432 0.183643 0.113594
C9    C     C_R   0.143076 0.534738 0.011692 -0.154537
H5    H     H_    0.163240 0.467798 0.937167 0.154176
C10   C     C_R   0.119312 0.652949 0.966647 -0.139692
C11   C     C_R   0.932381 0.545023 0.395378 -0.253161
H6    H     H_    0.881110 0.588668 0.312204 0.168268
C12   C     C_R   0.870269 0.490291 0.506789 -0.127750
C13   C     C_R   0.934865 0.427244 0.612263 -0.006908
C14   C     C_R   0.064057 0.423033 0.603710 0.139709
C15   C     C_R   0.126708 0.486787 0.493671 -0.117510
C16   C     C_R   0.058520 0.542318 0.384943 -0.048687
C17   C     C_R   0.859394 0.421356 0.853773 -0.164784
H7    H     H_    0.894737 0.515724 0.863866 0.147135
C18   C     C_R   0.805971 0.359207 0.967749 -0.135094
H8    H     H_    0.799025 0.405943 0.064550 0.154712
C19   C     C_R   0.763153 0.236435 0.957460 -0.163523
H9    H     H_    0.722493 0.188089 0.046190 0.146323
C20   C     C_R   0.773365 0.175595 0.833038 -0.177996
H10   H     H_    0.740994 0.079920 0.827588 0.141653
C21   C     C_R   0.824397 0.237935 0.716382 0.187410
C22   C     C_R   0.868614 0.361798 0.727656 0.103104
H11   H     H_    0.539989 0.124384 0.293910 0.177537
C23   C     C_R   0.480217 0.105231 0.770906 -0.236721
H12   H     H_    0.516684 0.195518 0.796633 0.198946
C24   C     C_R   0.448708 0.032316 0.886110 -0.170659
H13   H     H_    0.457994 0.070414 0.988961 0.151563
C25   C     C_R   0.404790 0.911600 0.869715 0.213850
C26   C     C_R   0.397453 0.862795 0.736970 -0.180661
H14   H     H_    0.352197 0.772309 0.725975 0.155101
C27   C     C_R   0.449685 0.929230 0.622191 0.030852
C28   C     C_R   0.476310 0.056995 0.634914 0.099013
C29   C     C_R   0.499631 0.128861 0.511430 -0.165776
C30   C     C_R   0.516949 0.071332 0.387401 -0.195404
C31   C     C_R   0.516278 0.946194 0.381420 0.124349
C32   C     C_R   0.481488 0.871475 0.498228 -0.165197
H15   H     H_    0.359903 0.358684 0.127317 0.127073
C33   C     C_R   0.667913 0.656616 0.153216 -0.167725
H16   H     H_    0.666802 0.666839 0.261050 0.208520
C34   C     C_R   0.759912 0.730081 0.094059 -0.252329
H17   H     H_    0.823963 0.786651 0.157685 0.152719
C35   C     C_R   0.767228 0.735453 0.954093 -0.226730
C36   C     C_R   0.682741 0.667614 0.868668 0.198578
C37   C     C_R   0.586703 0.580799 0.927190 0.200825
C38   C     C_R   0.583629 0.578703 0.077212 0.175004
N1    N     N_R   0.501190 0.501210 0.147910 -0.192080
C39   C     C_R   0.423077 0.422674 0.073016 -0.059251
H18   H     H_    0.359056 0.359549 0.870501 0.150527
C40   C     C_R   0.422712 0.422986 0.925646 -0.095839
N2    N     N_R   0.501230 0.501290 0.852040 -0.189544
N3    N     N_3   0.834930 0.175738 0.588247 -0.605207
H19   H     H_    0.777818 0.216280 0.513919 0.209464
H20   H     H_    0.800876 0.084268 0.598650 0.208657
N4    N     N_3   0.376287 0.837410 0.990287 -0.604697
H21   H     H_    0.301427 0.872609 0.036626 0.221096
H22   H     H_    0.352358 0.746851 0.963414 0.232805
N5    N     N_3   0.562262 0.900671 0.257472 -0.590243
H23   H     H_    0.645383 0.863487 0.284314 0.214024
H24   H     H_    0.497613 0.836715 0.214151 0.285846
H25   H     H_    0.838649 0.797474 0.909461 0.141381
N6    N     N_3   0.701336 0.696978 0.726112 -0.500814
H26   H     H_    0.690619 0.790581 0.709793 0.197426
H27   H     H_    0.793068 0.684067 0.703398 0.184690
N7    N     N_3   0.132970 0.348670 0.699535 -0.598139
H28   H     H_    0.080860 0.310885 0.781104 0.215079
H29   H     H_    0.161200 0.275176 0.644415 0.217004

loop_
_geom_bond_atom_site_label_1
_geom_bond_atom_site_label_2
_geom_bond_distance
_ccdc_geom_bond_type
C31   C32   1.418657 A    
C11   C16   1.380673 A    
C13   C22   1.483483 S    
C21   C22   1.411610 A    
C18   H8    1.082721 S    
Cu1   N2    2.036371 S    
N6    H26   1.048122 S    
Cu1   Cu2   2.710103 S    
C20   C21   1.407210 A    
N5    H23   1.041231 S    
C23   H12   1.070419 S    
Cu1   O7    1.978568 S    
C11   H6    1.083308 S    
C13   C14   1.413712 A    
N4    H22   1.044120 S    
C36   N6    1.419564 S    
C17   C22   1.403624 A    
C35   H25   1.084900 S    
C12   C13   1.412254 A    
C18   C19   1.395530 A    
N7    H29   1.045677 S    
C6    H3    1.083325 S    
O1    C1    1.290444 A    
C14   C15   1.418338 A    
C31   N5    1.424483 S    
O7    C4    1.298227 A    
H1    C10   1.082677 S    
C33   C34   1.365814 A    
C34   C35   1.352674 A    
C27   C32   1.429368 A    
O5    C3    1.305166 A    
H11   C30   1.085008 S    
C24   H13   1.084000 S    
C5    H2    1.082465 S    
C26   C27   1.418152 A    
C9    H5    1.078069 S    
Cu2   N1    2.036950 S    
C37   N2    1.420367 A    
C21   N3    1.437000 S    
C3    C32   1.484503 S    
C23   C28   1.423506 A    
C2    C15   1.466275 S    
C8    H4    1.083200 S    
H15   C39   1.081173 S    
O3    Cu1   1.965498 S    
N6    H27   1.048090 S    
C23   C24   1.387328 A    
N5    H24   1.040751 S    
C24   C25   1.383868 A    
N4    H21   1.043209 S    
C27   C28   1.416123 A    
C25   N4    1.429102 S    
N7    H28   1.042054 S    
O3    C2    1.307088 A    
C20   H10   1.082913 S    
N3    H20   1.045854 S    
H18   C40   1.081333 S    
C33   H16   1.048247 S    
C29   C30   1.389528 A    
C34   H17   1.083506 S    
C39   C40   1.419500 A    
C19   H9    1.082608 S    
C33   C38   1.406875 A    
C15   C16   1.415230 A    
Cu2   O8    1.965498 S    
C35   C36   1.398924 A    
C17   H7    1.081808 S    
C5    C6    1.397239 A    
C25   C26   1.396529 A    
O8    C4    1.304631 A    
C26   H14   1.079930 S    
C8    C9    1.396880 A    
C28   C29   1.428405 A    
C7    C16   1.478667 S    
C5    C10   1.396126 A    
Cu1   O5    1.982024 S    
C30   C31   1.373386 A    
O1    Cu1   1.992776 S    
O2    Cu2   1.982025 S    
O6    C3    1.311488 A    
O4    Cu2   1.978568 S    
C11   C12   1.385373 A    
C37   C38   1.446214 A    
O2    C1    1.317336 A    
N3    H19   1.045262 S    
C19   C20   1.397797 A    
C1    C29   1.465305 S    
O4    C2    1.300322 A    
C17   C18   1.396060 A    
N1    C39   1.366751 A    
C6    C7    1.406945 A    
C9    C10   1.395209 A    
C14   N7    1.444430 S    
C40   N2    1.365729 A    
C36   C37   1.474607 A    
C7    C8    1.403875 A    
Cu2   O6    1.992775 S    
C38   N1    1.372338 A    
C4    C12   1.454881 S    
