data_mof_unit_1388.cif
_audit_creation_date              2012-12-11T15:45:02-0500
_audit_creation_method            fapswitch 2.2
_symmetry_space_group_name_H-M    P1
_symmetry_Int_Tables_number       1
_space_group_crystal_system       triclinic
_cell_length_a                    6.927712
_cell_length_b                    16.802568
_cell_length_c                    17.067305
_cell_angle_alpha                 100.296367
_cell_angle_beta                  89.344836
_cell_angle_gamma                 90.500548
_cell_volume                      1954.52556145

loop_
_atom_site_label
_atom_site_type_symbol
_atom_type_description
_atom_site_fract_x
_atom_site_fract_y
_atom_site_fract_z
_atom_type_partial_charge
O1    O     O_R   0.494370 0.415690 0.413450 -0.542482
O2    O     O_R   0.819420 0.429360 0.578420 -0.541834
O3    O     O_R   0.994280 0.584310 0.586550 -0.540862
C1    C     C_R   0.651594 0.414358 0.605816 0.701077
O4    O     O_R   0.823790 0.406230 0.413570 -0.543140
O5    O     O_R   0.998670 0.561000 0.420530 -0.537596
C2    C     C_R   0.655019 0.383016 0.384909 0.687646
O6    O     O_R   0.489970 0.439000 0.579470 -0.537322
O7    O     O_3   0.662300 0.550810 0.502470 -0.366336
V1    V     V_3+5 0.935380 0.490570 0.499540 1.410679
O8    O     O_R   0.328650 0.570640 0.421580 -0.539051
C3    C     C_R   0.162423 0.586056 0.394568 0.708744
O9    O     O_R   0.324290 0.593770 0.586430 -0.543322
C4    C     C_R   0.154823 0.616668 0.615116 0.693088
V2    V     V_3+5 0.435930 0.509430 0.500460 1.414601
O10   O     O_3   0.159140 0.449190 0.497530 -0.369934
C5    C     C_R   0.296917 0.741624 0.696096 -0.169807
H1    H     H_    0.424282 0.731673 0.658242 0.127744
C6    C     C_R   0.286779 0.811514 0.755523 0.103350
C7    C     C_R   0.124407 0.821399 0.809382 -0.075157
C8    C     C_R   0.971376 0.765023 0.794664 -0.183765
H2    H     H_    0.845161 0.770726 0.833234 0.130327
C9    C     C_R   0.979103 0.699578 0.731238 -0.153279
H3    H     H_    0.857889 0.657919 0.721978 0.122527
C10   C     C_R   0.143567 0.686439 0.682136 -0.073515
C11   C     C_R   0.167784 0.638436 0.332816 -0.080185
C12   C     C_R   0.095056 0.865910 0.171592 -0.115474
C13   C     C_R   0.914335 0.817208 0.279104 -0.067350
C14   C     C_R   0.938350 0.873095 0.226859 -0.079742
C15   C     C_R   0.232855 0.805741 0.173658 -0.211100
C16   C     C_R   0.212858 0.750006 0.226564 0.110973
C17   C     C_R   0.049850 0.754652 0.278647 0.108256
C18   C     C_R   0.028051 0.697570 0.330357 -0.210262
C19   C     C_R   0.328263 0.634714 0.281224 -0.181214
C20   C     C_R   0.351336 0.688950 0.228290 -0.023113
H4    H     H_    0.906831 0.700642 0.371368 0.132323
H5    H     H_    0.438218 0.589460 0.282816 0.124114
H6    H     H_    0.352388 0.800966 0.131662 0.137542
C21   C     C_R   0.655851 0.363901 0.669199 -0.068779
C22   C     C_R   0.608245 0.137152 0.831654 -0.072343
C23   C     C_R   0.418524 0.183749 0.728504 -0.185856
C24   C     C_R   0.446762 0.130147 0.781073 -0.156468
C25   C     C_R   0.744028 0.198776 0.827303 -0.239138
C26   C     C_R   0.714494 0.254101 0.775151 0.156537
C27   C     C_R   0.549915 0.246792 0.725545 0.156511
C28   C     C_R   0.520594 0.302001 0.673277 -0.237215
C29   C     C_R   0.816515 0.371333 0.720200 -0.156537
C30   C     C_R   0.845396 0.317389 0.772435 -0.188158
H7    H     H_    0.397832 0.294762 0.633746 0.122641
H8    H     H_    0.923498 0.418420 0.718399 0.123912
H9    H     H_    0.291986 0.176572 0.691077 0.122783
H10   H     H_    0.971805 0.324615 0.809937 0.123386
H11   H     H_    0.339174 0.083366 0.783154 0.123653
H12   H     H_    0.867216 0.205786 0.866602 0.121375
C31   C     C_R   0.811751 0.275529 0.282460 -0.152332
H13   H     H_    0.952443 0.294166 0.306342 0.116420
C32   C     C_R   0.800443 0.211813 0.217330 -0.131954
H14   H     H_    0.933041 0.183202 0.193244 0.117500
C33   C     C_R   0.620897 0.185358 0.183924 -0.036566
C34   C     C_R   0.452952 0.224318 0.217673 -0.148253
H15   H     H_    0.312260 0.205651 0.193810 0.114706
C35   C     C_R   0.464254 0.288027 0.282812 -0.147296
H16   H     H_    0.331631 0.316583 0.306937 0.117957
C36   C     C_R   0.643826 0.314580 0.316138 -0.048101
O11   O     O_R   0.774880 0.061150 0.920630 -0.540610
O12   O     O_R   0.440980 0.093710 0.086500 -0.544069
O13   O     O_R   0.266190 0.938890 0.079390 -0.529283
C37   C     C_R   0.609756 0.117065 0.115035 0.726092
O14   O     O_R   0.445420 0.070740 0.921670 -0.546752
O15   O     O_R   0.270660 0.915760 0.913380 -0.546720
C38   C     C_R   0.613186 0.086169 0.894599 0.680449
O16   O     O_R   0.770400 0.084270 0.086640 -0.539361
O17   O     O_3   0.602590 0.949210 0.997500 -0.363498
V3    V     V_3+5 0.329470 0.009420 0.000470 1.416890
O18   O     O_R   0.940650 0.906250 0.913470 -0.541895
C39   C     C_R   0.110547 0.886867 0.881473 0.679351
O19   O     O_R   0.936210 0.929220 0.078300 -0.533164
C40   C     C_R   0.101929 0.915534 0.106869 0.723825
V4    V     V_3+5 0.828930 0.990510 0.999490 1.434718
O20   O     O_3   0.105680 0.050790 0.002500 -0.375056
C41   C     C_3   0.453320 0.871608 0.756120 -0.380569
C42   C     C_3   0.466421 0.905873 0.678304 -0.327051
C43   C     C_3   0.661549 0.946888 0.670426 -0.737497
H17   H     H_    0.690878 0.993352 0.723820 0.222479
H18   H     H_    0.661845 0.976446 0.617208 0.230546
H19   H     H_    0.778704 0.901336 0.663421 0.228475
H20   H     H_    0.448313 0.857837 0.625062 0.209072
H21   H     H_    0.349248 0.950577 0.677886 0.191674
H22   H     H_    0.444892 0.924573 0.804198 0.189543
H23   H     H_    0.589250 0.839753 0.764757 0.180360
C44   C     C_1   0.748559 0.824369 0.332830 0.288514
N1    N     N_1   0.616361 0.830045 0.375506 -0.351214
C45   C     C_1   0.521914 0.681477 0.177941 0.273140
N2    N     N_1   0.658603 0.675531 0.137749 -0.355127
C46   C     C_1   0.802160 0.939041 0.231756 0.323583
N3    N     N_1   0.693043 0.991437 0.236090 -0.362390

loop_
_geom_bond_atom_site_label_1
_geom_bond_atom_site_label_2
_ccdc_geom_bond_type
O12   C37   A    
C31   H13   S    
C45   N2    T    
O11   V4    S    
C22   C38   S    
C12   C14   A    
C19   H5    S    
C23   C24   A    
C46   N3    T    
C1    O6    A    
C12   C40   S    
C41   C42   S    
O19   C40   A    
C28   H7    S    
C15   H6    S    
C21   C29   A    
C13   C14   A    
O16   V4    S    
C42   H20   S    
C24   H11   S    
O5    C3    A    
C15   C16   A    
C32   C33   A    
V2    O10   S    
O12   V3    S    
C18   H4    S    
C7    C39   S    
C34   C35   A    
C19   C20   A    
O17   V3    S    
O14   C38   A    
C35   C36   A    
C25   H12   S    
O8    V2    S    
C11   C19   A    
C22   C25   A    
C29   C30   A    
O15   V3    S    
C9    H3    S    
O1    V2    S    
O7    V1    S    
C41   H22   S    
O19   V4    S    
C33   C34   A    
V3    O20   S    
O9    C4    A    
C12   C15   A    
O13   C40   A    
C29   H8    S    
C20   C45   S    
C13   C17   A    
C6    C41   S    
C44   N1    T    
O4    C2    A    
O11   C38   A    
C3    C11   S    
C34   H15   S    
O2    C1    A    
O18   C39   A    
C35   H16   S    
C33   C37   S    
C11   C18   A    
C43   H17   S    
C1    C21   S    
C37   O16   A    
C31   C36   A    
C5    H1    S    
O17   V4    S    
O14   V3    S    
O13   V3    S    
O9    V2    S    
O3    C4    A    
C21   C28   A    
C41   H23   S    
C43   H18   S    
O6    V2    S    
C31   C32   A    
C25   C26   A    
O15   C39   A    
C16   C20   A    
O2    V1    S    
C26   C27   A    
C14   C46   S    
O1    C2    A    
C16   C17   A    
O5    V1    S    
O8    C3    A    
C5    C10   A    
C17   C18   A    
C6    C7    A    
C8    C9    A    
O7    V2    S    
O4    V1    S    
O3    V1    S    
V1    O10   S    
C32   H14   S    
C42   H21   S    
C22   C24   A    
C5    C6    A    
C13   C44   S    
C9    C10   A    
C4    C10   S    
C2    C36   S    
V4    O20   S    
C27   C28   A    
C30   H10   S    
C43   H19   S    
C7    C8    A    
C42   C43   S    
C23   C27   A    
C8    H2    S    
O18   V4    S    
C23   H9    S    
C26   C30   A    
