data_mof_unit_2374.cif
_audit_creation_date              2012-12-10T18:45:03-0500
_audit_creation_method            fapswitch 2.2
_symmetry_space_group_name_H-M    P1
_symmetry_Int_Tables_number       1
_space_group_crystal_system       triclinic
_cell_length_a                    10.721331
_cell_length_b                    9.810762
_cell_length_c                    10.641857
_cell_angle_alpha                 90.005997
_cell_angle_beta                  90.038976
_cell_angle_gamma                 90.007704
_cell_volume                      1119.357353

loop_
_atom_site_label
_atom_site_type_symbol
_atom_type_description
_atom_site_fract_x
_atom_site_fract_y
_atom_site_fract_z
_atom_type_partial_charge
C1    C     C_R   0.259791 0.499954 0.500117 0.913281
C2    C     C_R   0.740211 0.499970 0.499670 0.914436
C3    C     C_R   0.936153 0.622859 0.517502 -0.137801
C4    C     C_R   0.063900 0.622847 0.517614 -0.162009
C5    C     C_R   0.561583 0.072021 0.408604 -0.081591
C6    C     C_R   0.438419 0.072020 0.591397 -0.079671
C7    C     C_R   0.561565 0.927939 0.408596 -0.098878
C8    C     C_R   0.438429 0.927938 0.591400 -0.099947
C9    C     C_R   0.486577 0.500429 0.259989 0.932515
C10   C     C_R   0.513187 0.500450 0.740069 0.932907
C11   C     C_R   0.418980 0.751461 0.104320 0.018213
C12   C     C_R   0.580016 0.751582 0.896016 0.022994
C13   C     C_R   0.457195 0.874478 0.049788 -0.256321
C14   C     C_R   0.541639 0.874543 0.950531 -0.255955
C15   C     C_R   0.528971 0.626745 0.941527 0.055847
C16   C     C_R   0.470035 0.626689 0.058656 0.055911
C17   C     C_R   0.471310 0.501802 0.125694 -0.063615
C18   C     C_R   0.527916 0.501856 0.874433 -0.063204
C19   C     C_R   0.488169 0.377963 0.063185 -0.223025
C20   C     C_R   0.510893 0.377994 0.936858 -0.221980
C21   C     C_R   0.063857 0.377276 0.481361 -0.183976
C22   C     C_R   0.936110 0.377294 0.481210 -0.195452
C23   C     C_R   0.872617 0.500047 0.499441 -0.005441
C24   C     C_R   0.127389 0.500017 0.499711 0.003717
H1    H     H_    0.484994 0.280919 0.111750 0.165233
H2    H     H_    0.514101 0.280963 0.888257 0.165443
H3    H     H_    0.422389 0.970957 0.084842 0.136979
H4    H     H_    0.576423 0.971067 0.915556 0.137269
H5    H     H_    0.112423 0.281745 0.466659 0.158494
H6    H     H_    0.887508 0.281778 0.466376 0.158127
H7    H     H_    0.887587 0.718390 0.532255 0.162507
H8    H     H_    0.112504 0.718381 0.532356 0.153947
H9    H     H_    0.610854 0.126733 0.335673 0.130290
H10   H     H_    0.389158 0.126729 0.664336 0.131601
H11   H     H_    0.610722 0.873184 0.335609 0.140011
H12   H     H_    0.389259 0.873181 0.664378 0.138291
N1    N     N_R   0.500000 0.857200 0.500000 -0.088215
N2    N     N_R   0.500000 0.142810 0.500000 -0.079098
O1    O     O_R   0.316770 0.614620 0.499990 -0.615620
O2    O     O_R   0.683230 0.614620 0.500010 -0.618034
O3    O     O_R   0.316800 0.385290 0.500000 -0.633633
O4    O     O_R   0.683200 0.385290 0.500000 -0.631109
O5    O     O_R   0.500010 0.614690 0.316770 -0.627957
O6    O     O_R   0.499990 0.614690 0.683230 -0.629054
O7    O     O_R   0.500040 0.385360 0.316770 -0.636977
O8    O     O_R   0.499960 0.385360 0.683230 -0.635490
Zn1   Zn    Zn3+2 0.500000 0.653120 0.500000 0.960729
Zn2   Zn    Zn3+2 0.500000 0.346880 0.500000 0.947150
C25   C     C_2   0.315201 0.757425 0.196400 0.442346
H13   H     H_    0.293944 0.852548 0.243935 0.046832
O9    O     O_2   0.249562 0.658095 0.216558 -0.588894
C26   C     C_2   0.684106 0.757620 0.804319 0.436775
H14   H     H_    0.705400 0.852686 0.756713 0.045278
O10   O     O_2   0.749973 0.658387 0.784606 -0.594173

loop_
_geom_bond_atom_site_label_1
_geom_bond_atom_site_label_2
_ccdc_geom_bond_type
C10   O8    A    
C15   C18   A    
C6    N2    A    
C9    O7    A    
C11   C25   S    
C22   H6    S    
C13   C14   A    
N1    Zn1   S    
O6    Zn1   S    
O5    Zn1   S    
C11   C16   A    
C3    C23   A    
C19   C20   A    
C12   C15   A    
C14   H4    S    
C26   O10   D    
C7    N1    A    
O4    Zn2   S    
C21   C22   A    
C3    H7    S    
C11   C13   A    
C4    H8    S    
C20   H2    S    
C2    O4    A    
C19   H1    S    
C1    O3    A    
C12   C26   S    
O3    Zn2   S    
C10   C18   S    
C18   C20   A    
C4    C24   A    
O8    Zn2   S    
C9    O5    A    
C6    H10   S    
C8    N1    A    
C1    O1    A    
C10   O6    A    
C15   C16   A    
C2    O2    A    
C7    H11   S    
N2    Zn2   S    
C26   H14   S    
C1    C24   S    
O1    Zn1   S    
C25   H13   S    
C8    H12   S    
C21   C24   A    
C9    C17   S    
C2    C23   S    
C5    C7    A    
C22   C23   A    
C13   H3    S    
C6    C8    A    
O7    Zn2   S    
C17   C19   A    
C5    N2    A    
O2    Zn1   S    
C21   H5    S    
C3    C4    A    
C12   C14   A    
C16   C17   A    
C25   O9    D    
C5    H9    S    
