data_mof_unit_1211.cif
_audit_creation_date              2012-12-11T15:32:42-0500
_audit_creation_method            fapswitch 2.2
_symmetry_space_group_name_H-M    P1
_symmetry_Int_Tables_number       1
_space_group_crystal_system       triclinic
_cell_length_a                    6.950371
_cell_length_b                    20.452835
_cell_length_c                    24.375149
_cell_angle_alpha                 89.652136
_cell_angle_beta                  90.750003
_cell_angle_gamma                 89.712756
_cell_volume                      3464.63855811

loop_
_atom_site_label
_atom_site_type_symbol
_atom_type_description
_atom_site_fract_x
_atom_site_fract_y
_atom_site_fract_z
_atom_type_partial_charge
O1    O     O_R   0.507320 0.423560 0.460500 -0.542107
O2    O     O_R   0.170760 0.556250 0.437010 -0.530913
O3    O     O_R   0.004030 0.576440 0.539500 -0.529498
C1    C     C_R   0.338720 0.576458 0.421080 0.744754
O4    O     O_R   0.177370 0.422820 0.454110 -0.543081
O5    O     O_R   0.010680 0.442050 0.556720 -0.539693
C2    C     C_R   0.345674 0.398838 0.443466 0.676468
O6    O     O_R   0.500680 0.557950 0.443280 -0.528980
O7    O     O_3   0.340380 0.506470 0.533650 -0.364587
V1    V     V_3+5 0.064130 0.498800 0.493760 1.479562
O8    O     O_R   0.681160 0.443750 0.562990 -0.538476
C3    C     C_R   0.850971 0.423692 0.578897 0.717153
O9    O     O_R   0.674560 0.577180 0.545890 -0.524921
C4    C     C_R   0.843660 0.601060 0.556630 0.778952
V2    V     V_3+5 0.564560 0.501200 0.506240 1.494741
O10   O     O_3   0.838180 0.493530 0.466350 -0.371125
C5    C     C_R   0.969307 0.838127 0.911213 -0.078129
C6    C     C_R   0.854339 0.662556 0.587878 -0.123085
C7    C     C_R   0.928513 0.720980 0.909485 -0.095033
C8    C     C_R   0.960053 0.778261 0.938759 -0.133127
C9    C     C_R   0.957026 0.839705 0.853549 -0.128438
C10   C     C_R   0.944013 0.781222 0.822444 0.109064
C11   C     C_R   0.913496 0.722406 0.851953 0.058985
C12   C     C_R   0.944422 0.779492 0.763448 -0.028773
C13   C     C_R   0.879684 0.721281 0.735643 -0.018717
C14   C     C_R   0.815018 0.667891 0.768234 0.263048
C15   C     C_R   0.849828 0.666891 0.824568 -0.169644
C16   C     C_R   0.008950 0.832878 0.730835 0.264308
C17   C     C_R   0.973553 0.833913 0.674528 -0.164988
C18   C     C_R   0.909724 0.778393 0.647163 0.027784
C19   C     C_R   0.879937 0.719588 0.676645 0.116876
C20   C     C_R   0.893590 0.779908 0.589674 -0.144669
C21   C     C_R   0.861992 0.722709 0.560144 0.254447
C22   C     C_R   0.867467 0.661150 0.645549 -0.182656
H1    H     H_    0.807779 0.624205 0.848055 0.172837
H2    H     H_    0.881399 0.613880 0.664954 0.163811
H3    H     H_    0.015265 0.876633 0.651035 0.160056
H4    H     H_    0.909201 0.675696 0.932031 0.155527
H5    H     H_    0.967788 0.776292 0.983169 0.148279
H6    H     H_    0.944034 0.887039 0.834227 0.153585
H7    H     H_    0.911765 0.825460 0.567421 0.151849
C23   C     C_3   0.874143 0.309761 0.769948 -0.109213
C24   C     C_3   0.056313 0.268398 0.783701 -0.130272
H8    H     H_    0.175542 0.283242 0.811623 0.128439
H9    H     H_    0.842633 0.359231 0.786131 0.145109
H10   H     H_    0.213596 0.253273 0.698893 0.116493
C25   C     C_1   0.960503 0.121815 0.875275 -0.160588
C26   C     C_1   0.863821 0.378210 0.624754 -0.166111
C27   C     C_3   0.747057 0.248420 0.777997 -0.132927
C28   C     C_3   0.929016 0.207687 0.791135 0.153189
C29   C     C_3   0.768012 0.231709 0.716392 -0.143483
C30   C     C_3   0.895310 0.292420 0.708955 0.151434
C31   C     C_3   0.950182 0.190348 0.730143 -0.126106
C32   C     C_3   0.077269 0.251687 0.722095 -0.144028
C33   C     C_1   0.947208 0.160350 0.837256 -0.032037
C34   C     C_1   0.877121 0.339721 0.662807 -0.040989
H11   H     H_    0.981691 0.140877 0.713961 0.134190
H12   H     H_    0.648777 0.216863 0.688474 0.116726
H13   H     H_    0.610735 0.246834 0.801203 0.122367
C35   C     C_3   0.512280 0.722407 0.211093 0.450304
C36   C     C_3   0.317042 0.697337 0.231735 -0.164606
H14   H     H_    0.239798 0.653692 0.216177 0.170191
H15   H     H_    0.096542 0.784422 0.213884 0.177716
C37   C     C_1   0.348592 0.622128 0.375158 -0.143324
C38   C     C_1   0.475607 0.878248 0.125105 -0.153249
C39   C     C_3   0.585677 0.731691 0.270489 -0.221908
C40   C     C_3   0.388861 0.707857 0.291178 0.084977
C41   C     C_3   0.507251 0.803000 0.268845 -0.181666
C42   C     C_3   0.435733 0.792767 0.209323 0.051996
C43   C     C_3   0.310533 0.778558 0.290260 -0.108176
C44   C     C_3   0.239365 0.768748 0.230219 -0.179710
C45   C     C_1   0.364223 0.660641 0.337189 0.014929
C46   C     C_1   0.460068 0.839922 0.163209 0.049861
H16   H     H_    0.226129 0.801728 0.323315 0.144074
H17   H     H_    0.585348 0.846597 0.284124 0.139872
H18   H     H_    0.728908 0.716082 0.286637 0.139720
C47   C     C_R   0.474899 0.162258 0.088424 -0.093241
C48   C     C_R   0.349919 0.338235 0.411052 -0.041301
C49   C     C_R   0.549570 0.277587 0.093679 0.282480
C50   C     C_R   0.536188 0.219957 0.063750 -0.181878
C51   C     C_R   0.426948 0.161988 0.144172 -0.215304
C52   C     C_R   0.442542 0.219573 0.176592 0.054443
C53   C     C_R   0.504603 0.277926 0.150153 0.057214
C54   C     C_R   0.401612 0.220964 0.234324 0.078501
C55   C     C_R   0.423328 0.280569 0.264609 0.054631
C56   C     C_R   0.484056 0.336791 0.236179 -0.192066
C57   C     C_R   0.523033 0.335416 0.180544 -0.122422
C58   C     C_R   0.340307 0.164675 0.262865 -0.183789
C59   C     C_R   0.301524 0.166196 0.318541 -0.200889
C60   C     C_R   0.321015 0.223696 0.348412 0.137320
C61   C     C_R   0.382771 0.281998 0.322309 0.087505
C62   C     C_R   0.276225 0.223191 0.404390 -0.158242
C63   C     C_R   0.288664 0.280066 0.435204 -0.167877
C64   C     C_R   0.398169 0.339274 0.355182 -0.210673
H19   H     H_    0.569494 0.380540 0.161691 0.195809
H20   H     H_    0.441603 0.385772 0.338632 0.098069
H21   H     H_    0.248819 0.278856 0.478028 0.107528
H22   H     H_    0.254207 0.121637 0.338444 0.127446
H23   H     H_    0.575420 0.220024 0.020858 0.142052
H24   H     H_    0.383556 0.115650 0.160998 0.101256
H25   H     H_    0.503832 0.383306 0.255809 0.134622
H26   H     H_    0.319803 0.118118 0.243409 0.122443
H27   H     H_    0.228216 0.178725 0.424256 0.118426
O11   O     O_R   0.323550 0.942140 0.056770 -0.537105
O12   O     O_R   0.647080 0.077200 0.045890 -0.541330
O13   O     O_R   0.813610 0.057920 0.943260 -0.536744
C65   C     C_R   0.478838 0.101255 0.056508 0.702076
O14   O     O_R   0.653470 0.943760 0.063000 -0.535413
O15   O     O_R   0.820050 0.923540 0.960490 -0.534031
C66   C     C_R   0.485488 0.923688 0.079021 0.720623
O16   O     O_R   0.317110 0.076520 0.039540 -0.537831
O17   O     O_3   0.483830 0.993580 0.966380 -0.362202
V3    V     V_3+5 0.760140 0.001190 0.006240 1.461786
O18   O     O_R   0.149510 0.922740 0.954070 -0.529027
C67   C     C_R   0.980337 0.898937 0.943273 0.714964
O19   O     O_R   0.143120 0.056170 0.936970 -0.535579
C68   C     C_R   0.973329 0.076281 0.921092 0.732151
V4    V     V_3+5 0.259690 0.998700 0.993700 1.478777
O20   O     O_3   0.986130 0.006420 0.033620 -0.373055
S1    S     S_3+6 0.647967 0.684381 0.158523 0.043382
O21   O     O_2   0.525205 0.679064 0.107578 -0.273372
O22   O     O_2   0.822485 0.724663 0.146154 -0.342838
O23   O     O_3   0.716773 0.609155 0.179130 -0.464514
H28   H     H_    0.800242 0.616404 0.211767 0.321217
Br1   Br    Br    0.635532 0.353860 0.054663 -0.476502
Br2   Br    Br    0.844731 0.728162 0.481554 -0.561677
Br3   Br    Br    0.636519 0.601905 0.743748 -0.555693
Br4   Br    Br    0.187891 0.898782 0.755201 -0.574765

loop_
_geom_bond_atom_site_label_1
_geom_bond_atom_site_label_2
_ccdc_geom_bond_type
C13   C19   A    
C39   C41   S    
C4    C6    S    
C53   C57   A    
C7    C8    A    
C1    O6    A    
C27   C29   S    
O18   C67   A    
C55   C61   A    
O23   H28   S    
C31   C32   S    
C41   H17   S    
O12   C65   A    
C5    C67   S    
C14   C15   A    
O16   V4    S    
O12   V3    S    
C16   C17   A    
O5    C3    A    
C18   C19   A    
C48   C63   A    
V2    O10   S    
C5    C8    A    
C38   C46   T    
O19   C68   A    
C40   C45   S    
C42   C44   S    
V4    O20   S    
C62   C63   A    
C62   H27   S    
V3    O20   S    
O8    V2    S    
S1    O22   D    
C41   C42   S    
C49   C53   A    
C57   H19   S    
C43   H16   S    
C20   H7    S    
C42   C46   S    
C43   C44   S    
O1    V2    S    
C11   C15   A    
C18   C20   A    
O7    V1    S    
S1    O23   S    
C3    C26   S    
C36   C44   S    
C39   C40   S    
C49   Br1   S    
C35   C39   S    
O9    C4    A    
O17   V3    S    
C30   C32   S    
C51   C52   A    
O11   V4    S    
C28   C31   S    
O13   V3    S    
C29   C30   S    
C54   C58   A    
C47   C65   S    
C12   C13   A    
O4    C2    A    
C8    H5    S    
C31   H11   S    
C56   C57   A    
C15   H1    S    
C13   C14   A    
C55   C56   A    
C5    C9    A    
C35   C36   S    
C29   C31   S    
C23   H9    S    
O14   V3    S    
O2    C1    A    
C24   H8    S    
C17   C18   A    
C7    H4    S    
C36   C40   S    
C24   C32   S    
C60   C62   A    
C47   C51   A    
C39   H18   S    
H10   C32   S    
C19   C22   A    
C29   H12   S    
C54   C55   A    
C64   H20   S    
C6    C22   A    
O18   V4    S    
O3    C4    A    
C2    C48   S    
H15   C44   S    
C52   C53   A    
O6    V2    S    
C52   C54   A    
O9    V2    S    
O13   C68   A    
C10   C12   A    
C23   C24   S    
O2    V1    S    
C63   H21   S    
S1    O21   D    
O11   C66   A    
C25   C33   T    
C47   C50   A    
C26   C34   T    
O1    C2    A    
C65   O16   A    
C12   C16   A    
O5    V1    S    
C58   H26   S    
O8    C3    A    
O14   C66   A    
C24   C28   S    
C51   H24   S    
O15   V3    S    
C1    C37   S    
C28   C33   S    
C27   H13   S    
C59   H22   S    
C40   C43   S    
C20   C21   A    
O7    V2    S    
O4    V1    S    
C50   H23   S    
O3    V1    S    
V1    O10   S    
C61   C64   A    
O17   V4    S    
C60   C61   A    
C9    H6    S    
C35   C42   S    
C48   C64   A    
C21   Br2   S    
O19   V4    S    
C35   S1    S    
C22   H2    S    
C14   Br3   S    
C37   C45   T    
C36   H14   S    
C6    C21   A    
C38   C66   S    
O15   C67   A    
C23   C27   S    
C49   C50   A    
C16   Br4   S    
C7    C11   A    
C25   C68   S    
C58   C59   A    
C41   C43   S    
C27   C28   S    
C17   H3    S    
C10   C11   A    
C59   C60   A    
C9    C10   A    
C56   H25   S    
C30   C34   S    
C23   C30   S    
