data_mof_unit_3054.cif
_audit_creation_date              2012-12-10T16:48:47-0500
_audit_creation_method            fapswitch 2.2
_symmetry_space_group_name_H-M    P1
_symmetry_Int_Tables_number       1
_space_group_crystal_system       triclinic
_cell_length_a                    17.254598
_cell_length_b                    8.733673
_cell_length_c                    7.448849
_cell_angle_alpha                 102.897217
_cell_angle_beta                  90.542949
_cell_angle_gamma                 93.691712
_cell_volume                      1091.59448733

loop_
_atom_site_label
_atom_site_type_symbol
_atom_type_description
_atom_site_fract_x
_atom_site_fract_y
_atom_site_fract_z
_atom_type_partial_charge
C1    C     C_R   0.495527 0.200018 0.454450 0.833486
C2    C     C_R   0.500816 0.799731 0.546366 0.813619
C3    C     C_2   0.491148 0.032640 0.429131 0.378599
C4    C     C_2   0.501606 0.966831 0.572746 0.388991
C5    C     C_R   0.350959 0.504086 0.526581 0.896934
C6    C     C_R   0.648749 0.499393 0.474520 0.952212
C7    C     C_R   0.266534 0.516102 0.543609 -0.412552
C8    C     C_R   0.733232 0.507642 0.461525 -0.386862
C9    C     C_R   0.216794 0.423896 0.402112 0.281647
C10   C     C_R   0.776252 0.646644 0.554729 0.229435
C11   C     C_R   0.140870 0.464705 0.384928 0.564380
C12   C     C_R   0.856121 0.643689 0.582621 0.556182
C13   C     C_R   0.111700 0.586186 0.515139 -0.336091
C14   C     C_R   0.893988 0.508033 0.507028 -0.329186
C15   C     C_R   0.157476 0.668040 0.665402 0.583242
C16   C     C_R   0.852417 0.374327 0.402880 0.611541
C17   C     C_R   0.235042 0.633125 0.683945 0.232004
C18   C     C_R   0.771734 0.371893 0.379910 0.184932
C19   C     C_2   0.029265 0.611885 0.505797 0.715191
C20   C     C_2   0.977342 0.501523 0.539685 0.652909
Cu1   Cu    Cu3+1 0.508700 0.517250 0.683000 1.293322
Cu2   Cu    Cu3+1 0.491300 0.482750 0.317000 1.290018
N1    N     N_2   0.478180 0.456750 0.041980 0.272106
N2    N     N_2   0.521820 0.543250 0.958020 0.264005
O1    O     O_R   0.505650 0.286040 0.618880 -0.547469
O2    O     O_R   0.494350 0.713960 0.381120 -0.544426
O3    O     O_R   0.490960 0.256910 0.309800 -0.500336
O4    O     O_R   0.509040 0.743090 0.690200 -0.492150
O5    O     O_R   0.394600 0.516230 0.672450 -0.521752
O6    O     O_R   0.605400 0.483770 0.327550 -0.532397
O7    O     O_R   0.379910 0.487100 0.363380 -0.548856
O8    O     O_R   0.620090 0.512900 0.636620 -0.562324
S1    S     S_3+6 0.244695 0.248659 0.253221 0.157230
O9    O     O_2   0.308403 0.178286 0.340413 -0.321693
O10   O     O_2   0.175555 0.131483 0.213094 -0.099276
O11   O     O_3   0.275184 0.290003 0.054681 -0.405933
H1    H     H_    0.284973 0.186651 0.974396 0.417422
S2    S     S_3+6 0.731253 0.825862 0.633970 0.131468
O12   O     O_2   0.671920 0.843598 0.492694 -0.269974
O13   O     O_2   0.691265 0.822162 0.811588 -0.179376
O14   O     O_3   0.796458 0.982129 0.666732 -0.394960
H2    H     H_    0.804782 0.016536 0.801868 0.432490
S3    S     S_3+6 0.719474 0.196443 0.259440 0.147817
O15   O     O_2   0.674712 0.230022 0.100132 -0.175198
O16   O     O_2   0.663168 0.141799 0.388080 -0.289189
O17   O     O_3   0.777978 0.051177 0.177450 -0.381607
H3    H     H_    0.785117 0.997376 0.279682 0.423394
S4    S     S_3+6 0.289641 0.734627 0.884266 0.128569
O18   O     O_2   0.321422 0.616771 0.979869 -0.219768
O19   O     O_2   0.355632 0.834041 0.829569 -0.251318
O20   O     O_3   0.234825 0.851369 0.034276 -0.374617
H4    H     H_    0.261756 0.864744 0.155386 0.393759
F1    F     F_    0.002157 0.372184 0.591244 -0.549360
F2    F     F_    0.007217 0.738530 0.444622 -0.532848
F3    F     F_    0.125265 0.780429 0.793329 -0.497208
F4    F     F_    0.891266 0.246153 0.326854 -0.497608
F5    F     F_    0.896597 0.769713 0.691074 -0.524067
F6    F     F_    0.094003 0.384130 0.242615 -0.516586
F7    F     F_    0.476896 0.945655 0.254415 -0.554250
F8    F     F_    0.515072 0.053692 0.747792 -0.544526
F9    F     F_    0.429876 0.348234 0.934535 -0.474704
F10   F     F_    0.571492 0.649462 0.064730 -0.458431

loop_
_geom_bond_atom_site_label_1
_geom_bond_atom_site_label_2
_ccdc_geom_bond_type
C6    O8    A    
N1    N2    D    
C16   F4    S    
Cu1   O8    S    
C14   C20   S    
C11   F6    S    
S3    O16   D    
O14   H2    S    
C2    C4    S    
C19   C20   D    
C17   S4    S    
C10   S2    S    
C1    O3    A    
C4    F8    S    
S4    O19   D    
S1    O9    D    
C2    O2    A    
C16   C18   A    
O17   H3    S    
C18   S3    S    
C15   F3    S    
S2    O13   D    
C11   C13   A    
S2    O12   D    
C10   C12   A    
N2    F10   S    
C9    S1    S    
C12   F5    S    
C19   F2    S    
C8    C10   A    
S4    O18   D    
S1    O10   D    
Cu1   O4    S    
C12   C14   A    
C5    O5    A    
Cu2   O3    S    
C9    C11   A    
C13   C15   A    
S3    O15   D    
S3    O17   S    
C14   C16   A    
C2    O4    A    
Cu2   O7    S    
C13   C19   S    
C3    C4    D    
C7    C9    A    
N1    F9    S    
S1    O11   S    
S2    O14   S    
C5    C7    S    
Cu2   O2    S    
Cu1   N2    S    
C1    C3    S    
C15   C17   A    
Cu1   O1    S    
Cu2   N1    S    
O11   H1    S    
C6    C8    S    
Cu2   O6    S    
C6    O6    A    
Cu1   Cu2   S    
Cu1   O5    S    
C1    O1    A    
S4    O20   S    
C8    C18   A    
O20   H4    S    
C3    F7    S    
C20   F1    S    
C5    O7    A    
C7    C17   A    
