data_mof_unit_4850.cif
_audit_creation_date              2012-12-11T14:50:33-0500
_audit_creation_method            fapswitch 2.2
_symmetry_space_group_name_H-M    P1
_symmetry_Int_Tables_number       1
_space_group_crystal_system       triclinic
_cell_length_a                    11.049408
_cell_length_b                    10.948671
_cell_length_c                    18.861664
_cell_angle_alpha                 89.951125
_cell_angle_beta                  89.853344
_cell_angle_gamma                 60.341423
_cell_volume                      1982.86647966

loop_
_atom_site_label
_atom_site_type_symbol
_atom_type_description
_atom_site_fract_x
_atom_site_fract_y
_atom_site_fract_z
_atom_type_partial_charge
C1    C     C_R   0.230661 0.650344 0.607811 0.564426
C2    C     C_3   0.735095 0.519337 0.798650 -0.254868
C3    C     C_3   0.695429 0.673927 0.813494 0.006640
C4    C     C_3   0.672864 0.640137 0.677713 0.056136
C5    C     C_3   0.767468 0.706971 0.687871 -0.097216
C6    C     C_3   0.740066 0.493781 0.718368 -0.116884
C7    C     C_R   0.777155 0.159142 0.710745 -0.182891
C8    C     C_R   0.793775 0.142363 0.783964 -0.187195
C9    C     C_R   0.679891 0.172009 0.827062 -0.047563
C10   C     C_R   0.548289 0.224799 0.795767 -0.002279
C11   C     C_R   0.539986 0.205169 0.722964 -0.033207
C12   C     C_R   0.652455 0.617936 0.602294 0.612434
C13   C     C_R   0.651845 0.187856 0.679151 -0.047417
C14   C     C_R   0.158615 0.576246 0.715089 -0.135004
C15   C     C_R   0.149429 0.575888 0.788863 -0.060968
C16   C     C_R   0.159427 0.681691 0.828607 -0.079196
C17   C     C_R   0.173199 0.788165 0.791978 -0.063341
C18   C     C_R   0.160140 0.797549 0.717937 -0.006393
C19   C     C_R   0.170556 0.680731 0.679630 -0.021215
C20   C     C_R   0.737877 0.524948 0.272125 -0.156351
C21   C     C_R   0.749940 0.536626 0.200550 -0.141990
C22   C     C_R   0.653149 0.657164 0.164273 0.000091
C23   C     C_R   0.624672 0.231987 0.604314 0.567669
C24   C     C_R   0.534887 0.757917 0.199280 -0.120614
C25   C     C_R   0.515059 0.743810 0.271794 0.008657
C26   C     C_R   0.621774 0.625414 0.309565 0.013637
C27   C     C_R   0.594267 0.095725 0.295867 0.012569
C28   C     C_R   0.590405 0.085486 0.222655 -0.101461
C29   C     C_R   0.656246 0.139951 0.179211 0.029111
C30   C     C_R   0.727872 0.201610 0.209137 -0.104206
C31   C     C_R   0.730811 0.212324 0.281925 -0.130791
C32   C     C_R   0.656980 0.167738 0.325243 0.050979
C33   C     C_R   0.084881 0.809126 0.306553 -0.005769
C34   C     C_R   0.214136 0.651967 0.404074 0.559203
C35   C     C_R   0.105808 0.807110 0.233383 -0.055906
C36   C     C_R   0.122638 0.689282 0.192242 -0.038867
C37   C     C_R   0.134037 0.569262 0.227338 -0.015485
C38   C     C_R   0.131216 0.567226 0.302227 -0.041738
C39   C     C_R   0.126626 0.680894 0.340340 -0.009700
C40   C     C_R   0.700615 0.105499 0.897223 0.526446
C41   C     C_R   0.721396 0.687060 0.889257 0.525408
C42   C     C_R   0.113136 0.709096 0.903598 0.511999
C43   C     C_R   0.676408 0.101804 0.105244 0.550468
C44   C     C_R   0.695149 0.687281 0.096121 0.535616
C45   C     C_R   0.617885 0.594712 0.385581 0.546382
C46   C     C_R   0.087888 0.712640 0.115467 0.562814
C47   C     C_R   0.618709 0.227590 0.395794 0.592185
C48   C     C_3   0.541356 0.767691 0.790535 -0.123154
C49   C     C_3   0.527030 0.736279 0.712347 -0.227040
C50   C     C_3   0.786677 0.717482 0.768338 -0.248916
Cr1   Cr    Cr6+3 0.392930 0.397900 0.502230 1.075282
Cr2   Cr    Cr6+3 0.398240 0.708600 0.501260 1.092674
Cr3   Cr    Cr6+3 0.708800 0.393470 0.496460 1.100466
Cr4   Cr    Cr6+3 0.937620 0.938540 0.007640 1.068471
Cr5   Cr    Cr6+3 0.625150 0.937450 0.994520 1.072717
Cr6   Cr    Cr6+3 0.937990 0.625080 0.001190 1.057575
H1    H     H_    0.861319 0.148798 0.678304 0.199273
H2    H     H_    0.894421 0.104818 0.806945 0.210563
H3    H     H_    0.782962 0.239376 0.176227 0.164920
H4    H     H_    0.786569 0.260147 0.304441 0.142382
O1    O     O_R   0.507430 0.255570 0.581420 -0.513572
O2    O     O_R   0.524460 0.695920 0.424060 -0.491235
O3    O     O_R   0.736530 0.504260 0.414810 -0.503556
O4    O     O_R   0.691460 0.277160 0.422180 -0.507616
O5    O     O_3   0.499990 0.499990 0.499980 -0.318868
O6    O     O_R   0.089490 0.825610 0.930610 -0.505710
O7    O     O_R   0.818370 0.054540 0.929880 -0.492929
O8    O     O_R   0.605870 0.077310 0.915530 -0.484761
O9    O     O_R   0.646440 0.806700 0.917570 -0.515289
O10   O     O_R   0.837200 0.593290 0.915250 -0.519147
O11   O     O_R   0.065330 0.635370 0.931590 -0.530540
O12   O     O_R   0.280190 0.527390 0.578910 -0.508856
O13   O     O_R   0.068300 0.828790 0.091860 -0.525483
O14   O     O_R   0.798730 0.057480 0.079370 -0.494420
O15   O     O_R   0.584680 0.080480 0.076790 -0.493050
O16   O     O_R   0.626790 0.809640 0.067050 -0.509704
O17   O     O_R   0.816010 0.596460 0.076500 -0.523914
O18   O     O_R   0.045680 0.638310 0.081070 -0.464358
O19   O     O_3   0.833590 0.833690 0.001120 -0.275778
O20   O     O_R   0.260310 0.739740 0.584580 -0.468627
O21   O     O_R   0.532250 0.695150 0.573830 -0.483826
O22   O     O_R   0.744930 0.503430 0.576380 -0.468187
O23   O     O_R   0.699250 0.276390 0.571950 -0.481135
O24   O     O_R   0.499020 0.256400 0.419850 -0.494893
O25   O     O_R   0.272400 0.528160 0.429140 -0.513400
O26   O     O_R   0.251910 0.740570 0.423020 -0.523080
C51   C     C_2   0.487250 0.923303 0.799130 0.261892
H5    H     H_    0.555238 0.964180 0.812163 0.164674
O27   O     O_2   0.365292 0.006667 0.788162 -0.420093
C52   C     C_2   0.889032 0.381705 0.698869 0.305856
H6    H     H_    0.937924 0.284583 0.728814 0.156030
O28   O     O_2   0.958764 0.397243 0.653267 -0.450722
H7    H     H_    0.894736 0.647059 0.781152 0.171641
H8    H     H_    0.871474 0.638291 0.664527 0.177874
C53   C     C_2   0.424697 0.288076 0.841708 0.291618
H9    H     H_    0.394975 0.387469 0.867569 0.048235
O29   O     O_2   0.365584 0.222559 0.857153 -0.411840
C54   C     C_2   0.426415 0.184009 0.694010 0.308574
H10   H     H_    0.448129 0.109600 0.651556 0.174014
O30   O     O_2   0.307905 0.248233 0.716139 -0.406167
H11   H     H_    0.157301 0.493756 0.684268 0.233722
C55   C     C_2   0.125280 0.465181 0.821620 0.311149
H12   H     H_    0.149690 0.433105 0.876116 0.183969
O31   O     O_2   0.080304 0.402734 0.787040 -0.451098
C56   C     C_2   0.199942 0.890124 0.831872 0.272548
H13   H     H_    0.274074 0.852820 0.875138 0.134527
O32   O     O_2   0.131403 0.016551 0.822244 -0.481571
H14   H     H_    0.477526 0.737770 0.823740 0.092868
C57   C     C_2   0.141253 0.926977 0.681146 0.270019
H15   H     H_    0.193929 0.982210 0.699184 0.193518
O33   O     O_2   0.067250 0.972012 0.628796 -0.484995
H16   H     H_    0.823782 0.437030 0.298255 0.150108
H17   H     H_    0.842978 0.455153 0.175119 0.149658
H18   H     H_    0.460759 0.850201 0.170249 0.163017
C58   C     C_2   0.386019 0.858630 0.304323 0.179834
H19   H     H_    0.348813 0.850234 0.355332 0.183347
O34   O     O_2   0.317517 0.970168 0.273394 -0.540577
C59   C     C_2   0.533931 0.031028 0.341602 0.282451
H20   H     H_    0.422254 0.076293 0.344176 0.201595
O35   O     O_2   0.608682 0.932512 0.379974 -0.458492
H21   H     H_    0.542377 0.028996 0.199928 0.158530
C60   C     C_2   0.031626 0.940307 0.349643 0.287290
H22   H     H_    0.047459 0.026289 0.333751 0.175413
O36   O     O_2   0.968396 0.952882 0.404841 -0.460808
H23   H     H_    0.464164 0.682294 0.709923 0.091500
C61   C     C_2   0.123551 0.921525 0.201184 0.304526
H24   H     H_    0.212451 0.893931 0.166883 0.145413
O37   O     O_2   0.037233 0.045190 0.208811 -0.521543
C62   C     C_2   0.154456 0.444303 0.186682 0.320080
H25   H     H_    0.092840 0.394716 0.198912 0.146829
O38   O     O_2   0.243394 0.393619 0.140425 -0.482822
C63   C     C_2   0.130872 0.449865 0.342366 0.246101
H26   H     H_    0.079042 0.471407 0.393537 0.144482
O39   O     O_2   0.191640 0.328908 0.320821 -0.514104
H27   H     H_    0.467933 0.835341 0.681551 0.188532
H28   H     H_    0.770238 0.822617 0.783533 0.080075
C64   C     C_2   0.720005 0.846034 0.651158 0.173639
H29   H     H_    0.768020 0.907909 0.665680 0.131241
O40   O     O_2   0.636856 0.885743 0.602359 -0.487298
H30   H     H_    0.835391 0.444242 0.824168 0.188359
H31   H     H_    0.656483 0.496895 0.823403 0.090884
H32   H     H_    0.673655 0.445811 0.707639 0.088857

loop_
_geom_bond_atom_site_label_1
_geom_bond_atom_site_label_2
_ccdc_geom_bond_type
C51   H5    S    
C24   H18   S    
C61   H24   S    
C11   C13   A    
C45   O2    A    
C53   H9    S    
Cr1   O1    S    
C18   C57   S    
Cr1   O25   S    
C5    H8    S    
C7    C8    A    
C56   O32   D    
C33   C39   A    
Cr6   O19   S    
C23   O23   A    
C11   C54   S    
C36   C37   A    
C37   C38   A    
C62   H25   S    
C25   C58   S    
C34   O26   A    
C38   C39   A    
Cr3   O4    S    
C58   H19   S    
C3    C48   S    
Cr6   O18   S    
C13   C23   S    
C18   C19   A    
Cr1   O5    S    
C44   O16   A    
C59   H20   S    
C26   C45   S    
C8    H2    S    
C20   H16   S    
C22   C44   S    
C35   C36   A    
C8    C9    A    
C58   O34   D    
C40   O7    A    
C36   C46   S    
C6    H32   S    
Cr3   O5    S    
C9    C10   A    
Cr5   O15   S    
C43   O14   A    
C49   H27   S    
Cr4   O14   S    
C21   C22   A    
C29   C43   S    
C2    C6    S    
C3    C50   S    
Cr5   O8    S    
C43   O15   A    
C1    C19   S    
C1    O12   A    
C34   C39   S    
C24   C25   A    
C21   H17   S    
C47   O4    A    
C46   O18   A    
C28   H21   S    
C16   C17   A    
C14   H11   S    
Cr4   O7    S    
C25   C26   A    
C6    C52   S    
C45   O3    A    
C9    C40   S    
Cr6   O17   S    
Cr3   O22   S    
C34   O25   A    
C38   C63   S    
C31   H4    S    
C35   C61   S    
C29   C30   A    
C17   C56   S    
Cr4   O13   S    
Cr5   O19   S    
C52   O28   D    
C31   C32   A    
C7    C13   A    
C30   C31   A    
Cr6   O11   S    
C30   H3    S    
C17   C18   A    
C48   C51   S    
C12   O22   A    
C47   O24   A    
C55   O31   D    
C64   O40   D    
Cr5   O9    S    
Cr5   O16   S    
C4    C6    S    
C48   C49   S    
Cr6   O10   S    
C51   O27   D    
C33   C60   S    
C32   C47   S    
C22   C24   A    
C5    C50   S    
C4    C12   S    
Cr1   O12   S    
C60   O36   D    
C16   C42   S    
C49   H23   S    
C41   O9    A    
Cr4   O19   S    
C64   H29   S    
C27   C59   S    
C1    O20   A    
C28   C29   A    
C61   O37   D    
C27   C32   A    
C14   C19   A    
C4    C5    S    
Cr2   O21   S    
C53   O29   D    
C50   H7    S    
C5    C64   S    
Cr4   O6    S    
C44   O17   A    
C56   H13   S    
C54   O30   D    
C4    C49   S    
Cr3   O23   S    
C2    H30   S    
C57   O33   D    
C2    C3    S    
Cr2   O2    S    
C57   H15   S    
Cr3   O3    S    
C52   H6    S    
C48   H14   S    
C20   C26   A    
C10   C53   S    
Cr2   O26   S    
C42   O11   A    
C33   C35   A    
C37   C62   S    
C12   O21   A    
C63   H26   S    
C15   C55   S    
C55   H12   S    
C59   O35   D    
C3    C41   S    
C10   C11   A    
C23   O1    A    
C20   C21   A    
C63   O39   D    
C54   H10   S    
C40   O8    A    
C27   C28   A    
C42   O6    A    
C2    H31   S    
C14   C15   A    
C50   H28   S    
C60   H22   S    
Cr2   O20   S    
Cr1   O24   S    
C7    H1    S    
C46   O13   A    
Cr2   O5    S    
C15   C16   A    
C41   O10   A    
C62   O38   D    
