data_mof_unit_2359.cif
_audit_creation_date              2013-03-05T15:50:50-0500
_audit_creation_method            fapswitch 2.2
_symmetry_space_group_name_H-M    P1
_symmetry_Int_Tables_number       1
_space_group_crystal_system       triclinic
_cell_length_a                    9.587137
_cell_length_b                    10.866316
_cell_length_c                    15.690942
_cell_angle_alpha                 88.344012
_cell_angle_beta                  73.548523
_cell_angle_gamma                 90.995782
_cell_volume                      1566.49909553

loop_
_atom_site_label
_atom_site_type_symbol
_atom_site_description
_atom_site_fract_x
_atom_site_fract_y
_atom_site_fract_z
_atom_type_partial_charge
O1    O     O_R   0.118810 0.319640 0.500010 -0.565416
O2    O     O_R   0.881240 0.319660 0.500000 -0.595004
C1    C     C_R   0.001895 0.262214 0.494884 0.903972
O3    O     O_R   0.055570 0.499980 0.629840 -0.604618
O4    O     O_R   0.818000 0.500010 0.629830 -0.508381
C2    C     C_R   0.916389 0.501085 0.671977 0.830075
Cu1   Cu    Cu3+1 0.140660 0.499990 0.500010 0.993912
Cu2   Cu    Cu3+1 0.859340 0.500010 0.499990 1.023162
O5    O     O_R   0.118760 0.680340 0.500000 -0.630956
O6    O     O_R   0.881190 0.680360 0.499990 -0.565279
O7    O     O_R   0.182000 0.499990 0.370170 -0.546446
O8    O     O_R   0.944430 0.500020 0.370160 -0.612492
C3    C     C_R   0.997640 0.736909 0.509612 0.831023
C4    C     C_R   0.082645 0.506142 0.328496 0.868818
C5    C     C_R   0.867376 0.508820 0.769908 -0.147983
C6    C     C_R   0.130528 0.526433 0.231672 -0.054647
C7    C     C_R   0.927947 0.502646 0.909942 -0.180784
C8    C     C_R   0.971079 0.504396 0.817538 -0.218698
C9    C     C_R   0.717666 0.519205 0.816809 0.308692
C10   C     C_R   0.676997 0.535673 0.909821 -0.009185
C11   C     C_R   0.781448 0.515104 0.956443 0.114750
C12   C     C_R   0.532570 0.563389 0.958693 0.068717
C13   C     C_R   0.485152 0.537467 0.051563 0.091683
C14   C     C_R   0.591128 0.508997 0.095749 -0.113663
C15   C     C_R   0.737473 0.503397 0.049025 -0.179313
C16   C     C_R   0.437547 0.624142 0.918426 -0.091732
C17   C     C_R   0.292213 0.638403 0.963564 -0.212213
C18   C     C_R   0.238453 0.596769 0.051690 0.162444
C19   C     C_R   0.334577 0.547093 0.097028 0.119641
C20   C     C_R   0.090502 0.608922 0.096113 -0.179133
C21   C     C_R   0.036572 0.573313 0.185560 -0.193874
C22   C     C_R   0.277002 0.510851 0.186714 -0.180228
H1    H     H_    0.815846 0.485005 0.085471 0.147669
H2    H     H_    0.344674 0.470774 0.223330 0.201247
H3    H     H_    0.922902 0.586508 0.219121 0.158020
H4    H     H_    0.221998 0.683218 0.929531 0.160294
H5    H     H_    0.009311 0.490235 0.945078 0.155209
H6    H     H_    0.085604 0.495848 0.783547 0.192827
H7    H     H_    0.566065 0.497286 0.166960 0.160020
H8    H     H_    0.476314 0.667300 0.853183 0.213200
H9    H     H_    0.017203 0.648614 0.062111 0.146166
H10   H     H_    0.771996 0.112753 0.551763 0.198527
C23   C     C_R   0.274520 0.113295 0.419863 0.490931
C24   C     C_R   0.401526 0.061463 0.430044 -0.191339
H11   H     H_    0.507145 0.102100 0.395681 0.164310
C25   C     C_R   0.394251 0.952991 0.479761 -0.179582
H12   H     H_    0.492933 0.912091 0.485859 0.208376
C26   C     C_R   0.261397 0.891128 0.514540 -0.111416
H13   H     H_    0.261240 0.807977 0.553943 0.186044
C27   C     C_R   0.132255 0.939552 0.502065 0.021052
C28   C     C_R   0.136285 0.061976 0.469024 -0.016509
C29   C     C_R   0.003760 0.126960 0.490937 -0.127588
C30   C     C_R   0.871753 0.062565 0.529653 -0.268560
C31   C     C_R   0.867360 0.935359 0.546344 0.315964
C32   C     C_R   0.998723 0.871286 0.523087 -0.185732
H14   H     H_    0.580281 0.360279 0.599406 0.165740
C33   C     C_R   0.702907 0.659884 0.380508 -0.206397
H15   H     H_    0.815105 0.668527 0.375514 0.212968
C34   C     C_R   0.661064 0.735755 0.320246 -0.341247
H16   H     H_    0.742125 0.794108 0.273776 0.196119
C35   C     C_R   0.517251 0.737546 0.320126 0.353753
C36   C     C_R   0.414946 0.661606 0.380630 -0.228191
H17   H     H_    0.306796 0.671520 0.377518 0.221535
C37   C     C_R   0.453994 0.579537 0.441507 0.168561
C38   C     C_R   0.603527 0.579150 0.441506 0.232092
N1    N     N_R   0.648320 0.501210 0.499140 -0.196114
C39   C     C_R   0.547026 0.423244 0.554632 0.041422
H18   H     H_    0.321543 0.361055 0.599900 0.139172
C40   C     C_R   0.398983 0.423605 0.554866 -0.009886
N2    N     N_R   0.352470 0.501290 0.499110 -0.185274
S1    S     S_3+6 0.298894 0.213903 0.326530 0.004464
O9    O     O_2   0.376349 0.328517 0.342056 -0.322715
O10   O     O_2   0.394483 0.154118 0.246435 -0.228979
O11   O     O_3   0.139402 0.245545 0.307023 -0.575523
H19   H     H_    0.160596 0.251686 0.241436 0.371411
N3    N     N_R   0.733357 0.875956 0.598200 0.137223
O12   O     O_R   0.736934 0.785103 0.653334 -0.324623
O13   O     O_R   0.610068 0.929385 0.606652 -0.385216
S2    S     S_3+6 0.465137 0.836631 0.244228 0.035020
O14   O     O_2   0.459972 0.765804 0.164590 -0.263077
O15   O     O_2   0.316794 0.885735 0.286247 -0.270872
O16   O     O_3   0.587056 0.953771 0.209773 -0.445252
H20   H     H_    0.603612 0.985731 0.264613 0.336663
N4    N     N_R   0.606717 0.486335 0.775309 0.099650
O17   O     O_R   0.531276 0.384266 0.800110 -0.364729
O18   O     O_R   0.568907 0.563492 0.721322 -0.333671

loop_
_geom_bond_atom_site_label_1
_geom_bond_atom_site_label_2
_geom_bond_distance
_ccdc_geom_bond_type
C5    C8    1.403490 A    
Cu2   N1    2.027161 S    
C9    C10   1.417481 A    
C16   H8    1.075531 S    
Cu1   N2    2.026498 S    
Cu1   Cu2   2.697146 S    
C30   C31   1.397073 A    
C24   H11   1.082818 S    
C6    C21   1.399353 A    
C5    C9    1.423559 A    
C16   C17   1.386336 A    
C13   C19   1.424806 A    
C18   C19   1.418848 A    
N3    O13   1.300489 A    
C19   C22   1.400205 A    
H10   C30   1.083314 S    
O4    C2    1.296398 A    
O7    C4    1.300711 A    
C33   C34   1.384194 A    
C14   H7    1.077528 S    
S2    O16   1.682056 S    
O5    C3    1.296129 A    
C36   C37   1.418722 A    
C2    C5    1.479507 S    
C31   C32   1.410260 A    
H18   C40   1.081692 S    
C13   C14   1.416403 A    
C20   H9    1.083550 S    
C37   N2    1.384113 A    
C26   C27   1.414941 A    
N1    C39   1.367042 A    
C34   H16   1.082998 S    
C40   N2    1.366818 A    
O3    Cu1   1.968294 S    
C24   C25   1.384173 A    
C27   C28   1.409593 A    
N3    O12   1.301096 A    
C25   C26   1.388277 A    
C34   C35   1.379760 A    
O11   H19   0.990939 S    
C28   C29   1.424390 A    
C14   C15   1.390187 A    
O3    C2    1.311139 A    
S2    O15   1.502536 D    
C7    C11   1.398293 A    
C39   C40   1.418341 A    
C22   H2    1.071058 S    
Cu1   O7    1.962237 S    
C23   C24   1.397906 A    
C36   H17   1.058918 S    
O4    Cu2   1.962237 S    
Cu2   O8    1.968294 S    
C7    C8    1.390005 A    
C7    H5    1.083312 S    
N4    O17   1.300941 A    
C31   N3    1.441505 S    
C26   H13   1.079722 S    
O8    C4    1.300551 A    
O16   H20   0.989424 S    
C21   H3    1.081768 S    
C10   C12   1.422111 A    
C9    N4    1.440684 S    
C29   C30   1.403399 A    
S1    O10   1.502285 D    
Cu1   O5    1.974580 S    
C11   C15   1.394561 A    
C25   H12   1.079428 S    
C23   S1    1.760470 S    
O1    Cu1   1.967281 S    
O2    Cu2   1.974580 S    
C33   C38   1.413987 A    
O6    C3    1.312921 A    
S1    O11   1.681436 S    
C1    C29   1.473011 S    
C17   H4    1.084173 S    
C6    C22   1.397257 A    
H14   C39   1.081686 S    
C27   C32   1.418320 A    
C37   C38   1.433669 A    
C18   C20   1.402526 A    
O2    C1    1.307492 A    
C8    H6    1.083203 S    
S1    O9    1.499909 D    
C23   C28   1.425756 A    
C33   H15   1.058451 S    
C20   C21   1.391955 A    
C35   S2    1.763168 S    
C4    C6    1.466154 S    
C35   C36   1.394066 A    
S2    O14   1.498517 D    
C10   C11   1.414618 A    
Cu2   O6    1.967281 S    
C38   N1    1.381249 A    
C12   C16   1.409876 A    
C17   C18   1.390855 A    
C12   C13   1.416357 A    
N4    O18   1.302070 A    
O1    C1    1.296879 A    
C15   H1    1.083302 S    
C3    C32   1.481726 S    
