data_mof_unit_4756.cif
_audit_creation_date              2012-12-10T17:39:21-0500
_audit_creation_method            fapswitch 2.2
_symmetry_space_group_name_H-M    P1
_symmetry_Int_Tables_number       1
_space_group_crystal_system       triclinic
_cell_length_a                    12.333021
_cell_length_b                    13.188414
_cell_length_c                    27.821822
_cell_angle_alpha                 77.397168
_cell_angle_beta                  101.268739
_cell_angle_gamma                 116.471387
_cell_volume                      3928.2236226

loop_
_atom_site_label
_atom_site_type_symbol
_atom_type_description
_atom_site_fract_x
_atom_site_fract_y
_atom_site_fract_z
_atom_type_partial_charge
C1    C     C_R   0.854933 0.286571 0.504248 0.775846
C2    C     C_R   0.938171 0.545659 0.713320 -0.200845
C3    C     C_R   0.005235 0.495037 0.747822 0.210009
C4    C     C_R   0.009034 0.494253 0.899908 -0.042224
C5    C     C_R   0.940101 0.392999 0.878856 -0.033584
C6    C     C_R   0.871770 0.292478 0.908548 -0.128391
C7    C     C_R   0.077730 0.595341 0.869713 -0.032742
C8    C     C_R   0.999860 0.500587 0.645679 -0.193321
C9    C     C_R   0.001012 0.499337 0.354768 -0.032961
C10   C     C_R   0.946424 0.390457 0.032741 0.042632
C11   C     C_R   0.069385 0.599980 0.021479 0.042445
C12   C     C_R   0.000109 0.500938 0.592448 0.863074
C13   C     C_R   0.007351 0.495491 0.052275 0.069863
C14   C     C_R   0.892067 0.288147 0.065701 -0.199021
C15   C     C_R   0.893194 0.289594 0.115573 -0.143271
C16   C     C_R   0.948702 0.392841 0.134689 -0.021750
C17   C     C_R   0.006106 0.496068 0.103216 -0.043692
C18   C     C_R   0.062195 0.599886 0.122810 -0.021957
C19   C     C_R   0.059427 0.598589 0.173158 0.534241
C20   C     C_R   0.948772 0.395328 0.184896 0.534878
C21   C     C_R   0.089058 0.474568 0.289729 -0.112192
C22   C     C_R   0.088599 0.475476 0.339705 -0.215462
C23   C     C_R   0.145087 0.713496 0.492992 0.803284
C24   C     C_R   0.914113 0.522353 0.318864 -0.221806
C25   C     C_R   0.915153 0.521843 0.268880 -0.106533
C26   C     C_R   0.002491 0.497846 0.254257 0.368291
C27   C     C_R   0.942315 0.390912 0.981267 0.042437
C28   C     C_R   0.008907 0.494539 0.950982 0.075182
C29   C     C_R   0.075119 0.598534 0.971111 0.040849
C30   C     C_R   0.872641 0.291203 0.958677 -0.194573
C31   C     C_R   0.146583 0.695961 0.890327 -0.127735
C32   C     C_R   0.122675 0.702869 0.042223 -0.199243
C33   C     C_R   0.119122 0.702545 0.091847 -0.144244
C34   C     C_R   0.000328 0.499938 0.407603 0.781563
C35   C     C_R   0.145608 0.697746 0.939963 -0.193942
C36   C     C_R   0.274965 0.024062 0.436996 -0.181507
C37   C     C_R   0.228214 0.834892 0.483500 -0.043841
C38   C     C_R   0.815941 0.084670 0.535787 -0.183160
C39   C     C_R   0.737501 0.969776 0.545500 -0.114651
C40   C     C_R   0.614074 0.932434 0.528739 -0.173243
C41   C     C_R   0.566709 0.009536 0.499860 0.076085
C42   C     C_R   0.649722 0.124240 0.485261 0.083447
C43   C     C_R   0.439940 0.976460 0.484571 0.073505
C44   C     C_R   0.399650 0.054979 0.451913 0.164374
C45   C     C_R   0.940103 0.395013 0.828183 0.611849
C46   C     C_R   0.484255 0.162439 0.433435 -0.236256
C47   C     C_R   0.607454 0.195753 0.449014 -0.195491
C48   C     C_R   0.351535 0.867809 0.500962 -0.238265
C49   C     C_R   0.189609 0.914337 0.452590 -0.186511
C50   C     C_R   0.773087 0.163568 0.506892 -0.103295
C51   C     C_R   0.346431 0.327917 0.579718 -0.269955
C52   C     C_R   0.753445 0.645516 0.431966 0.394313
C53   C     C_R   0.653754 0.672950 0.418704 -0.240255
C54   C     C_R   0.554052 0.617837 0.444605 -0.240237
C55   C     C_R   0.550107 0.532129 0.484905 -0.001139
C56   C     C_R   0.076289 0.593306 0.819350 0.584398
C57   C     C_R   0.653248 0.504246 0.498211 0.262749
C58   C     C_R   0.446582 0.473379 0.512197 -0.017609
C59   C     C_R   0.446733 0.386917 0.552418 0.158083
C60   C     C_R   0.546876 0.360123 0.565138 -0.235910
C61   C     C_R   0.647746 0.417531 0.538780 -0.112139
C62   C     C_R   0.341885 0.496851 0.501251 0.019560
C63   C     C_R   0.246618 0.355077 0.567098 0.084436
C64   C     C_R   0.070521 0.447534 0.731478 0.447097
C65   C     C_R   0.067360 0.450197 0.680852 -0.308163
C66   C     C_R   0.935050 0.549440 0.662549 0.364182
Cu1   Cu    Cu3+1 0.098270 0.475420 0.511360 0.945129
Cu2   Cu    Cu3+1 0.901730 0.524580 0.488640 0.957816
H1    H     H_    0.201746 0.774412 0.868084 0.192631
H2    H     H_    0.165926 0.786077 0.020892 0.144330
H3    H     H_    0.845330 0.540632 0.329318 0.159058
H4    H     H_    0.161422 0.783698 0.105844 0.187923
H5    H     H_    0.847982 0.539776 0.241481 0.136521
H6    H     H_    0.203363 0.778322 0.952923 0.144208
H7    H     H_    0.094467 0.890513 0.438937 0.155121
H8    H     H_    0.455134 0.221116 0.406626 0.147634
H9    H     H_    0.243807 0.083833 0.412174 0.139382
H10   H     H_    0.888918 0.583174 0.726236 0.191775
H11   H     H_    0.375988 0.805945 0.527015 0.155187
H12   H     H_    0.910029 0.112186 0.552021 0.161416
H13   H     H_    0.559029 0.842215 0.538244 0.141632
H14   H     H_    0.771926 0.909599 0.567552 0.178504
H15   H     H_    0.668779 0.277307 0.431102 0.177892
H16   H     H_    0.168974 0.309785 0.588064 0.128825
H17   H     H_    0.547556 0.293984 0.596019 0.162159
H18   H     H_    0.345275 0.261353 0.610622 0.155814
H19   H     H_    0.333253 0.561036 0.471455 0.124060
H20   H     H_    0.816752 0.213807 0.893124 0.190537
H21   H     H_    0.481496 0.644760 0.431731 0.146419
H22   H     H_    0.653228 0.738671 0.387558 0.161231
H23   H     H_    0.719454 0.390879 0.551794 0.201220
H24   H     H_    0.156692 0.457405 0.366461 0.157407
H25   H     H_    0.156795 0.456058 0.278488 0.134272
H26   H     H_    0.850032 0.208864 0.139160 0.187299
H27   H     H_    0.849587 0.204582 0.054454 0.142652
H28   H     H_    0.815135 0.210688 0.978416 0.142237
H29   H     H_    0.117968 0.412357 0.669116 0.204032
N1    N     N_R   0.007934 0.494150 0.799682 -0.443031
N2    N     N_R   0.003442 0.497246 0.202952 -0.469738
N3    N     N_R   0.246290 0.438210 0.528570 -0.185507
N4    N     N_R   0.754320 0.561170 0.471730 -0.200369
O1    O     O_R   0.972510 0.318140 0.514280 -0.580746
O2    O     O_2   0.894365 0.296896 0.215415 -0.538494
O3    O     O_2   0.142620 0.689545 0.790220 -0.515281
O4    O     O_2   0.112617 0.697600 0.192280 -0.537644
O5    O     O_R   0.806530 0.359640 0.495100 -0.614809
O6    O     O_R   0.082990 0.479270 0.579320 -0.587380
O7    O     O_R   0.917010 0.520770 0.560140 -0.542588
O8    O     O_R   0.193470 0.640360 0.504900 -0.587275
O9    O     O_R   0.027490 0.681860 0.485720 -0.576531
O10   O     O_R   0.082990 0.479230 0.439860 -0.586125
O11   O     O_R   0.917010 0.520730 0.420680 -0.599410
O12   O     O_2   0.872518 0.298960 0.807462 -0.509217
Cl1   Cl    Cl    0.852450 0.620624 0.622551 -0.600028
Cl2   Cl    Cl    0.158799 0.386201 0.773791 -0.553357
C67   C     C_3   0.853912 0.714819 0.398998 -0.804670
H30   H     H_    0.881588 0.807435 0.398773 0.196017
H31   H     H_    0.937349 0.702551 0.408374 0.267256
H32   H     H_    0.818501 0.696429 0.360486 0.197044

loop_
_geom_bond_atom_site_label_1
_geom_bond_atom_site_label_2
_ccdc_geom_bond_type
C10   C27   A    
C58   C62   A    
C21   C26   A    
C35   H6    S    
C8    C66   A    
C34   O11   A    
C41   C42   A    
C56   N1    A    
C15   H26   S    
C46   H8    S    
C20   O2    S    
C53   C54   A    
C38   H12   S    
C48   H11   S    
C28   C29   A    
C36   H9    S    
C5    C6    A    
C9    C22   A    
C15   C16   A    
C6    H20   S    
C67   H30   S    
C18   C19   A    
Cu2   O11   S    
C30   H28   S    
C33   H4    S    
C54   C55   A    
Cu1   O8    S    
C16   C17   A    
C49   H7    S    
C47   H15   S    
C43   C48   A    
C16   C20   A    
C26   N2    S    
C59   C60   A    
C64   Cl2   S    
C21   C22   A    
C27   C30   A    
C34   O10   A    
C41   C43   A    
Cu2   O5    S    
C7    C56   A    
C4    C7    A    
C51   H18   S    
C4    C28   A    
C44   C46   A    
C52   C67   S    
C23   O8    A    
C52   N4    A    
C7    C31   A    
Cu1   Cu2   S    
C51   C63   A    
C24   C25   A    
C56   O3    S    
C54   H21   S    
C10   C14   A    
C39   C40   A    
C12   O7    A    
C19   N2    A    
C32   H2    S    
C58   C59   A    
C23   C37   S    
C5    C45   A    
C60   C61   A    
C43   C44   A    
C63   N3    A    
C2    H10   S    
C37   C49   A    
C31   H1    S    
C8    C12   S    
C17   C18   A    
Cu2   O9    S    
Cu2   N4    S    
C37   C48   A    
Cu1   N3    S    
C42   C50   A    
C62   N3    A    
C19   O4    S    
Cu1   O10   S    
C40   C41   A    
C6    C30   A    
C11   C32   A    
C55   C57   A    
C9    C34   S    
C1    O5    A    
C31   C35   A    
C36   C44   A    
C51   C59   A    
C24   H3    S    
C14   H27   S    
C53   H22   S    
C52   C53   A    
C1    C50   S    
C23   O9    A    
C46   C47   A    
C66   Cl1   S    
C40   H13   S    
C39   H14   S    
C4    C5    A    
C2    C66   A    
C10   C13   A    
C12   O6    A    
C60   H17   S    
C9    C24   A    
C57   C61   A    
C38   C50   A    
C57   N4    A    
C62   H19   S    
C29   C35   A    
C67   H32   S    
C13   C17   A    
C63   H16   S    
C45   N1    A    
C32   C33   A    
C2    C3    A    
C25   C26   A    
C65   H29   S    
C64   C65   A    
C11   C13   A    
C3    N1    S    
Cu1   O6    S    
C38   C39   A    
C20   N2    A    
C21   H25   S    
C67   H31   S    
C25   H5    S    
C42   C47   A    
C3    C64   A    
C18   C33   A    
C45   O12   S    
C8    C65   A    
C11   C29   A    
C55   C58   A    
C27   C28   A    
C22   H24   S    
C14   C15   A    
Cu2   O7    S    
C1    O1    A    
C36   C49   A    
C61   H23   S    
Cu1   O1    S    
