data_mof_unit_271.cif
_audit_creation_date              2012-12-10T19:08:36-0500
_audit_creation_method            fapswitch 2.2
_symmetry_space_group_name_H-M    P1
_symmetry_Int_Tables_number       1
_space_group_crystal_system       triclinic
_cell_length_a                    15.977045
_cell_length_b                    10.853479
_cell_length_c                    9.567871
_cell_angle_alpha                 90.506051
_cell_angle_beta                  90.048238
_cell_angle_gamma                 90.155737
_cell_volume                      1659.05977303

loop_
_atom_site_label
_atom_site_type_symbol
_atom_type_description
_atom_site_fract_x
_atom_site_fract_y
_atom_site_fract_z
_atom_type_partial_charge
C1    C     C_R   0.495466 0.262992 0.499250 0.876856
C2    C     C_R   0.045407 0.385041 0.530530 -0.190768
C3    C     C_1   0.822852 0.492829 0.498648 0.042080
C4    C     C_1   0.177034 0.497440 0.500231 -0.037486
C5    C     C_1   0.252153 0.498938 0.499959 -0.139941
C6    C     C_1   0.747764 0.496318 0.499350 -0.040074
C7    C     C_R   0.518355 0.064696 0.610820 0.002084
C8    C     C_R   0.487464 0.130251 0.498225 -0.130900
C9    C     C_R   0.451463 0.061433 0.385283 -0.023179
C10   C     C_R   0.456395 0.931518 0.386825 -0.255645
C11   C     C_R   0.492274 0.869720 0.501112 -0.067763
C12   C     C_R   0.341340 0.499962 0.499934 0.830523
C13   C     C_R   0.518756 0.940474 0.614214 0.116562
C14   C     C_3   0.571493 0.936285 0.744582 -0.158990
C15   C     C_3   0.570484 0.079795 0.740156 -0.298952
C16   C     C_R   0.573313 0.497244 0.074217 0.277512
C17   C     C_R   0.427285 0.493371 0.073830 -0.044443
C18   C     C_R   0.427268 0.493623 0.925722 -0.037837
C19   C     C_R   0.573719 0.496405 0.926639 0.229126
C20   C     C_3   0.642472 0.591021 0.925840 -0.262800
C21   C     C_3   0.641475 0.590324 0.084459 -0.521115
C22   C     C_R   0.498833 0.737251 0.500522 0.854089
C23   C     C_R   0.658639 0.499500 0.499958 0.887001
C24   C     C_R   0.957557 0.379951 0.528923 -0.024749
C25   C     C_R   0.912617 0.488930 0.497929 0.057291
C26   C     C_R   0.955565 0.598395 0.468725 -0.149741
C27   C     C_R   0.042667 0.601282 0.469635 -0.154192
C28   C     C_R   0.087481 0.494759 0.500490 0.117778
Cu1   Cu    Cu3+1 0.500000 0.499980 0.640670 1.002555
Cu2   Cu    Cu3+1 0.500000 0.500020 0.359330 1.000208
H1    H     H_    0.081506 0.303173 0.553294 0.186408
H2    H     H_    0.368023 0.489358 0.127654 0.163864
H3    H     H_    0.367988 0.489948 0.871699 0.154425
H4    H     H_    0.621842 0.679659 0.881443 0.159586
H5    H     H_    0.698675 0.551792 0.133815 0.218457
H6    H     H_    0.619878 0.678688 0.131458 0.222308
H7    H     H_    0.921496 0.681985 0.445431 0.166664
H8    H     H_    0.075048 0.686529 0.446423 0.151521
H9    H     H_    0.430609 0.878603 0.300269 0.184078
H10   H     H_    0.534423 0.124753 0.825929 0.167386
N1    N     N_R   0.500520 0.500930 0.147930 -0.195825
N2    N     N_R   0.500520 0.500890 0.852020 -0.204398
O1    O     O_R   0.500000 0.319640 0.618810 -0.589741
O2    O     O_R   0.500010 0.319680 0.381230 -0.549646
O3    O     O_R   0.380300 0.499950 0.618760 -0.594639
O4    O     O_R   0.380310 0.499990 0.381180 -0.574549
O5    O     O_R   0.499990 0.680320 0.618770 -0.552016
O6    O     O_R   0.500000 0.680360 0.381190 -0.597814
O7    O     O_R   0.619690 0.500010 0.618820 -0.571941
O8    O     O_R   0.619700 0.500050 0.381240 -0.587065
C29   C     C_2   0.654590 0.140619 0.716956 0.925100
O9    O     O_2   0.672390 0.185750 0.604112 -0.550530
O10   O     O_R   0.712303 0.144164 0.826666 -0.724720
H11   H     H_    0.767562 0.182630 0.798432 0.353673
C30   C     C_2   0.724050 0.545103 0.866900 0.918861
O11   O     O_2   0.768039 0.614965 0.799327 -0.588005
O12   O     O_R   0.750227 0.424425 0.891497 -0.741942
H12   H     H_    0.806302 0.405690 0.846660 0.329981
C31   C     C_2   0.915887 0.260181 0.559220 0.829568
O13   O     O_2   0.843915 0.240547 0.521695 -0.551589
O14   O     O_R   0.960020 0.168015 0.628900 -0.760997
H13   H     H_    0.925338 0.090760 0.643171 0.348297
C32   C     C_2   0.406227 0.119306 0.267400 0.871491
O15   O     O_2   0.361451 0.208857 0.287924 -0.604375
O16   O     O_R   0.412065 0.067829 0.133280 -0.746418
H14   H     H_    0.378191 0.114704 0.061688 0.335608
C33   C     C_2   0.526363 0.887134 0.871246 0.825425
O17   O     O_2   0.459515 0.832825 0.859082 -0.567275
O18   O     O_R   0.561917 0.904525 0.003501 -0.739545
H15   H     H_    0.526852 0.867003 0.080515 0.349154
C34   C     C_2   0.656522 0.877292 0.723984 0.370889
H16   H     H_    0.702653 0.883662 0.807063 0.141221
O19   O     O_2   0.674415 0.822445 0.616121 -0.536025

loop_
_geom_bond_atom_site_label_1
_geom_bond_atom_site_label_2
_ccdc_geom_bond_type
C8    C9    A    
C22   O6    A    
C30   O11   D    
C32   O16   S    
C26   H7    S    
Cu1   Cu2   S    
C21   H5    S    
C15   C29   S    
Cu1   N2    S    
C10   H9    S    
C1    C8    S    
C9    C10   A    
C2    H1    S    
C11   C22   S    
C19   C20   S    
C19   N2    A    
C3    C25   S    
C14   C33   S    
C3    C6    T    
C20   H4    S    
C20   C21   S    
C7    C15   S    
C17   C18   A    
O12   H12   S    
C31   O13   D    
Cu2   N1    S    
C21   H6    S    
Cu1   O7    S    
O10   H11   S    
Cu1   O1    S    
O16   H14   S    
C11   C13   A    
Cu2   O2    S    
C26   C27   A    
O14   H13   S    
Cu1   O5    S    
C16   C19   A    
C6    C23   S    
Cu2   O6    S    
C4    C28   S    
Cu2   O4    S    
C22   O5    A    
C30   O12   S    
C2    C24   A    
O18   H15   S    
Cu2   O8    S    
C18   H3    S    
C17   N1    A    
C15   H10   S    
C23   O7    A    
C20   C30   S    
C10   C11   A    
C27   H8    S    
C33   O17   D    
C7    C13   A    
C34   H16   S    
C24   C25   A    
C5    C12   S    
C12   O4    A    
C7    C8    A    
C14   C34   S    
C31   O14   S    
C27   C28   A    
C34   O19   D    
C17   H2    S    
C14   C15   S    
C4    C5    T    
C23   O8    A    
C2    C28   A    
C1    O2    A    
C18   N2    A    
C29   O10   S    
C25   C26   A    
C9    C32   S    
C16   C21   S    
C16   N1    A    
C1    O1    A    
C24   C31   S    
C29   O9    D    
Cu1   O3    S    
C12   O3    A    
C33   O18   S    
C13   C14   S    
C32   O15   D    
