data_mof_unit_730.cif
_audit_creation_date              2012-12-11T14:23:02-0500
_audit_creation_method            fapswitch 2.2
_symmetry_space_group_name_H-M    P1
_symmetry_Int_Tables_number       1
_space_group_crystal_system       triclinic
_cell_length_a                    10.994337
_cell_length_b                    10.926207
_cell_length_c                    18.780371
_cell_angle_alpha                 90.574264
_cell_angle_beta                  90.089091
_cell_angle_gamma                 60.190768
_cell_volume                      1957.4005502

loop_
_atom_site_label
_atom_site_type_symbol
_atom_type_description
_atom_site_fract_x
_atom_site_fract_y
_atom_site_fract_z
_atom_type_partial_charge
C1    C     C_R   0.241729 0.643494 0.611428 0.532142
C2    C     C_3   0.658182 0.595964 0.802173 -0.226476
C3    C     C_3   0.722613 0.693527 0.807383 0.039937
C4    C     C_3   0.678547 0.656680 0.673857 0.055854
C5    C     C_3   0.835125 0.609125 0.685940 -0.236535
C6    C     C_3   0.636554 0.570893 0.723768 -0.223694
C7    C     C_R   0.689788 0.162846 0.825006 -0.013398
C8    C     C_R   0.805973 0.143822 0.783077 0.016738
C9    C     C_R   0.795473 0.143384 0.707434 0.015154
C10   C     C_R   0.552115 0.203671 0.719366 -0.161585
C11   C     C_R   0.562778 0.201402 0.791709 -0.164963
C12   C     C_R   0.655488 0.624636 0.599890 0.533122
C13   C     C_R   0.931576 0.125541 0.813301 -0.087105
C14   C     C_R   0.046466 0.095732 0.770409 -0.133994
C15   C     C_R   0.039068 0.084599 0.697002 -0.130850
C16   C     C_R   0.915598 0.106485 0.665625 -0.088093
C17   C     C_R   0.665130 0.178535 0.676005 -0.013003
C18   C     C_R   0.197700 0.655150 0.838397 -0.007012
C19   C     C_R   0.203453 0.539936 0.800405 0.016834
C20   C     C_R   0.197269 0.543528 0.724808 0.019733
C21   C     C_R   0.234289 0.745522 0.729118 -0.154443
C22   C     C_R   0.225906 0.749217 0.802501 -0.155606
C23   C     C_R   0.628657 0.227633 0.602674 0.536507
C24   C     C_R   0.212709 0.422649 0.836109 -0.100571
C25   C     C_R   0.203239 0.317233 0.798938 -0.151237
C26   C     C_R   0.181415 0.328022 0.725867 -0.163452
C27   C     C_R   0.176526 0.440565 0.689094 -0.114425
C28   C     C_R   0.211905 0.649820 0.688579 -0.001056
C29   C     C_R   0.711061 0.697294 0.181570 0.009968
C30   C     C_R   0.826186 0.612878 0.227795 0.022673
C31   C     C_R   0.802260 0.623507 0.301825 0.024324
C32   C     C_R   0.552514 0.738912 0.279065 -0.150033
C33   C     C_R   0.574695 0.758438 0.208425 -0.133719
C34   C     C_R   0.222759 0.647710 0.401664 0.536823
C35   C     C_R   0.960762 0.507316 0.204442 -0.077477
C36   C     C_R   0.060967 0.419333 0.253011 -0.141969
C37   C     C_R   0.042165 0.448016 0.325231 -0.116702
C38   C     C_R   0.916736 0.559017 0.349086 -0.088049
C39   C     C_R   0.665191 0.675923 0.326452 -0.001562
C40   C     C_R   0.624791 0.183634 0.171675 -0.012051
C41   C     C_R   0.532270 0.156868 0.214271 -0.000403
C42   C     C_R   0.563178 0.132560 0.287096 0.005900
C43   C     C_R   0.700716 0.250850 0.277010 -0.152433
C44   C     C_R   0.701036 0.240069 0.203572 -0.045429
C45   C     C_R   0.643019 0.625876 0.393931 0.532801
C46   C     C_R   0.413963 0.148415 0.188176 0.023650
C47   C     C_R   0.352199 0.089267 0.230244 -0.153168
C48   C     C_R   0.395551 0.050400 0.299684 -0.144174
C49   C     C_R   0.503811 0.066478 0.327222 -0.080986
C50   C     C_R   0.640566 0.188986 0.319354 0.005136
C51   C     C_R   0.142868 0.694789 0.186056 0.010883
C52   C     C_R   0.098782 0.815243 0.232660 0.020232
C53   C     C_R   0.082715 0.797527 0.304898 0.033240
C54   C     C_R   0.243423 0.545675 0.285262 -0.145453
C55   C     C_R   0.223153 0.561140 0.212798 -0.171244
C56   C     C_R   0.616048 0.231129 0.394000 0.557486
C57   C     C_R   0.083373 0.947414 0.212406 -0.092010
C58   C     C_R   0.037137 0.058969 0.261194 -0.175427
C59   C     C_R   0.995575 0.045769 0.329042 -0.078945
C60   C     C_R   0.008833 0.917999 0.350062 0.138700
C61   C     C_R   0.167335 0.661855 0.331501 0.006942
C62   C     C_R   0.702715 0.103506 0.896497 0.532248
C63   C     C_R   0.753171 0.709736 0.882861 0.552045
C64   C     C_R   0.122840 0.702632 0.907056 0.536659
C65   C     C_R   0.670486 0.112179 0.102492 0.548766
C66   C     C_R   0.732295 0.715242 0.105967 0.559029
C67   C     C_3   0.619457 0.837606 0.772465 -0.231095
C68   C     C_R   0.093096 0.712786 0.113115 0.545600
C69   C     C_3   0.590524 0.815243 0.694076 -0.241813
C70   C     C_3   0.860772 0.627924 0.764722 -0.237689
Cr1   Cr    Cr6+3 0.392940 0.397950 0.502230 0.990615
Cr2   Cr    Cr6+3 0.398400 0.708500 0.501260 0.991328
Cr3   Cr    Cr6+3 0.708640 0.393530 0.496460 0.994515
Cr4   Cr    Cr6+3 0.937880 0.938320 0.007620 1.017205
Cr5   Cr    Cr6+3 0.625560 0.937220 0.994510 1.025405
Cr6   Cr    Cr6+3 0.938080 0.625010 0.001190 1.028313
H1    H     H_    0.665493 0.907947 0.774427 0.132885
H2    H     H_    0.700772 0.456123 0.711305 0.147129
H3    H     H_    0.934224 0.523554 0.787295 0.168503
H4    H     H_    0.901892 0.496049 0.671036 0.149037
H5    H     H_    0.451723 0.229115 0.697476 0.170150
H6    H     H_    0.942171 0.138577 0.869523 0.149918
H7    H     H_    0.472698 0.217708 0.821844 0.159089
H8    H     H_    0.143469 0.076574 0.794407 0.091877
H9    H     H_    0.129995 0.057341 0.664132 0.099839
H10   H     H_    0.916916 0.090503 0.608691 0.129663
H11   H     H_    0.260618 0.818024 0.704159 0.137468
H12   H     H_    0.518177 0.891355 0.802010 0.135098
H13   H     H_    0.233607 0.408113 0.892611 0.149000
H14   H     H_    0.234033 0.831329 0.831102 0.136722
H15   H     H_    0.213108 0.227584 0.827479 0.112095
H16   H     H_    0.169974 0.248372 0.697130 0.114511
H17   H     H_    0.151554 0.446513 0.633294 0.136659
H18   H     H_    0.446916 0.770010 0.296222 0.141892
H19   H     H_    0.991966 0.480842 0.150010 0.195196
H20   H     H_    0.485070 0.812341 0.173664 0.143511
H21   H     H_    0.158946 0.337159 0.234027 0.123040
H22   H     H_    0.125749 0.386537 0.362238 0.126494
H23   H     H_    0.476790 0.852660 0.687531 0.124135
H24   H     H_    0.904577 0.582306 0.405684 0.118438
H25   H     H_    0.748564 0.307275 0.300994 0.148827
H26   H     H_    0.265038 0.079852 0.210072 0.104806
H27   H     H_    0.343962 0.008960 0.332631 0.124116
H28   H     H_    0.537125 0.031782 0.381151 0.137797
H29   H     H_    0.316906 0.441947 0.305219 0.152829
H30   H     H_    0.118110 0.964367 0.161662 0.156876
H31   H     H_    0.271030 0.470426 0.177816 0.133684
H32   H     H_    0.617526 0.879038 0.658408 0.118576
H33   H     H_    0.029075 0.157804 0.245658 0.128225
H34   H     H_    0.952319 0.135257 0.365286 0.138267
H35   H     H_    0.909067 0.696190 0.769236 0.119636
H36   H     H_    0.867016 0.671371 0.651969 0.109702
H37   H     H_    0.727959 0.492537 0.827482 0.145367
H38   H     H_    0.555889 0.644898 0.830838 0.132189
H39   H     H_    0.525175 0.600835 0.715190 0.128952
O1    O     O_R   0.507340 0.255690 0.581430 -0.526945
O2    O     O_R   0.524510 0.695820 0.424050 -0.509082
O3    O     O_R   0.736370 0.504260 0.414810 -0.529403
O4    O     O_R   0.691220 0.277270 0.422180 -0.504552
O5    O     O_3   0.499990 0.499990 0.499980 -0.239218
O6    O     O_R   0.089570 0.825450 0.930590 -0.519172
O7    O     O_R   0.818700 0.054260 0.929860 -0.509900
O8    O     O_R   0.606310 0.077010 0.915520 -0.530992
O9    O     O_R   0.646730 0.806540 0.917560 -0.501824
O10   O     O_R   0.837290 0.593240 0.915240 -0.512633
O11   O     O_R   0.065320 0.635310 0.931580 -0.517603
O12   O     O_R   0.280360 0.527380 0.578910 -0.513302
O13   O     O_R   0.068470 0.828620 0.091850 -0.534285
O14   O     O_R   0.799150 0.057200 0.079350 -0.487561
O15   O     O_R   0.585220 0.080180 0.076770 -0.513290
O16   O     O_R   0.627170 0.809480 0.067050 -0.492936
O17   O     O_R   0.816200 0.596410 0.076500 -0.501095
O18   O     O_R   0.045770 0.638240 0.081070 -0.518732
O19   O     O_3   0.833840 0.833520 0.001110 -0.287861
O20   O     O_R   0.260600 0.739610 0.584580 -0.533728
O21   O     O_R   0.532370 0.695050 0.573830 -0.509357
O22   O     O_R   0.744850 0.503430 0.576380 -0.531176
O23   O     O_R   0.699080 0.276500 0.571950 -0.506161
O24   O     O_R   0.498860 0.256520 0.419860 -0.533250
O25   O     O_R   0.272490 0.528150 0.429140 -0.517534
O26   O     O_R   0.252110 0.740440 0.423010 -0.520190
C71   C     C_1   0.336229 0.221502 0.125194 0.191697
N1    N     N_1   0.273691 0.279787 0.075032 -0.319207
C72   C     C_1   0.776787 0.290312 0.161520 0.205233
N2    N     N_1   0.837799 0.329517 0.127367 -0.286223
N3    N     N_3   0.946520 0.913265 0.416507 -0.637422
H40   H     H_    0.002980 0.925015 0.458255 0.243226
H41   H     H_    0.948855 0.817044 0.422053 0.215104

loop_
_geom_bond_atom_site_label_1
_geom_bond_atom_site_label_2
_ccdc_geom_bond_type
C45   O3    A    
C32   H18   S    
C21   H11   S    
C34   O26   A    
C8    C13   A    
Cr3   O4    S    
C58   H33   S    
Cr6   O11   S    
C41   C42   A    
C23   O23   A    
C35   C36   A    
C67   H1    S    
C14   H8    S    
C24   H13   S    
C49   H28   S    
C65   O15   A    
Cr5   O19   S    
C7    C8    A    
C46   C71   S    
C7    C11   A    
C26   C27   A    
C17   C23   S    
Cr1   O5    S    
Cr5   O8    S    
C36   C37   A    
C9    C16   A    
C66   O16   A    
C30   C31   A    
C2    H37   S    
Cr2   O21   S    
Cr3   O23   S    
C10   C17   A    
C26   H16   S    
C15   C16   A    
C29   C33   A    
C59   H34   S    
C18   C19   A    
C32   C39   A    
C62   O8    A    
C23   O1    A    
C54   C55   A    
C53   C61   A    
C69   H32   S    
Cr4   O13   S    
C19   C20   A    
C8    C9    A    
Cr2   O2    S    
C1    C28   S    
C41   C46   A    
C36   H21   S    
C4    C12   S    
C68   O13   A    
N3    H41   S    
Cr5   O15   S    
C39   C45   S    
C68   O18   A    
C57   H30   S    
C59   C60   A    
Cr3   O5    S    
C13   C14   A    
C16   H10   S    
Cr6   O10   S    
Cr1   O12   S    
C2    C6    S    
C60   N3    S    
C37   H22   S    
C53   C60   A    
Cr5   O16   S    
C63   O9    A    
C66   O17   A    
Cr2   O26   S    
C25   H15   S    
C71   N1    T    
C54   C61   A    
Cr5   O9    S    
C3    C70   S    
C24   C25   A    
C4    C6    S    
C52   C57   A    
C56   O24   A    
Cr6   O19   S    
C72   N2    T    
Cr2   O20   S    
Cr1   O24   S    
C20   C28   A    
C11   H7    S    
C58   C59   A    
C48   H27   S    
C13   H6    S    
C34   C61   S    
C50   C56   S    
C51   C52   A    
C55   H31   S    
C67   C69   S    
C37   C38   A    
C43   C44   A    
C43   H25   S    
C7    C62   S    
C29   C30   A    
C47   C48   A    
C14   C15   A    
C44   C72   S    
Cr2   O5    S    
C22   H14   S    
C5    H4    S    
C63   O10   A    
C42   C50   A    
C30   C35   A    
C9    C17   A    
C40   C41   A    
Cr4   O7    S    
C21   C28   A    
C64   O11   A    
C40   C65   S    
C56   O4    A    
C27   H17   S    
C33   H20   S    
C69   H23   S    
C62   O7    A    
C52   C53   A    
N3    H40   S    
C45   O2    A    
C46   C47   A    
C48   C49   A    
Cr3   O3    S    
C54   H29   S    
C70   H3    S    
C18   C22   A    
C3    C67   S    
C1    O12   A    
C4    C5    S    
C5    C70   S    
C65   O14   A    
Cr6   O18   S    
C43   C50   A    
C67   H12   S    
Cr1   O25   S    
C20   C27   A    
C3    C63   S    
C5    H36   S    
C10   H5    S    
C70   H35   S    
C31   C38   A    
C15   H9    S    
C32   C33   A    
C19   C24   A    
C25   C26   A    
C4    C69   S    
C1    O20   A    
Cr6   O17   S    
C2    H38   S    
C38   H24   S    
C18   C64   S    
C57   C58   A    
Cr3   O22   S    
Cr4   O19   S    
C34   O25   A    
C31   C39   A    
Cr1   O1    S    
C2    C3    S    
C51   C55   A    
C51   C68   S    
C6    H39   S    
C6    H2    S    
C10   C11   A    
C42   C49   A    
C29   C66   S    
C40   C44   A    
Cr4   O6    S    
C12   O21   A    
Cr4   O14   S    
C47   H26   S    
C12   O22   A    
C21   C22   A    
C64   O6    A    
C35   H19   S    
