data_mof_unit_640.cif
_audit_creation_date              2012-12-10T20:39:07-0500
_audit_creation_method            fapswitch 2.2
_symmetry_space_group_name_H-M    P1
_symmetry_Int_Tables_number       1
_space_group_crystal_system       triclinic
_cell_length_a                    19.150886
_cell_length_b                    10.672393
_cell_length_c                    9.879669
_cell_angle_alpha                 90.317766
_cell_angle_beta                  90.043276
_cell_angle_gamma                 90.594153
_cell_volume                      2019.12358082

loop_
_atom_site_label
_atom_site_type_symbol
_atom_type_description
_atom_site_fract_x
_atom_site_fract_y
_atom_site_fract_z
_atom_type_partial_charge
C1    C     C_R   0.498209 0.260147 0.499809 0.919795
C2    C     C_R   0.290899 0.502901 0.497253 -0.381844
C3    C     C_R   0.930233 0.511511 0.503636 0.319407
C4    C     C_R   0.070411 0.501630 0.498301 0.469006
C5    C     C_R   0.818257 0.440395 0.596189 -0.225628
C6    C     C_R   0.746095 0.436376 0.593980 -0.260889
C7    C     C_R   0.709606 0.509943 0.501993 -0.235366
C8    C     C_R   0.745212 0.594515 0.416819 0.434399
C9    C     C_R   0.818194 0.599795 0.419851 0.462314
C10   C     C_R   0.854645 0.518743 0.507052 -0.104689
C11   C     C_R   0.500639 0.064660 0.621239 0.100983
C12   C     C_R   0.366037 0.503012 0.499651 1.033343
C13   C     C_R   0.489113 0.128536 0.501296 -0.091860
C14   C     C_R   0.465685 0.063527 0.386002 -0.287107
C15   C     C_R   0.464858 0.933752 0.386826 -0.203214
C16   C     C_R   0.488163 0.871088 0.502511 -0.059160
C17   C     C_R   0.499862 0.936982 0.622159 0.027140
C18   C     C_3   0.558098 0.928487 0.722725 -0.611827
C19   C     C_3   0.559478 0.071853 0.721707 0.420534
C20   C     C_R   0.476421 0.398132 0.069969 -0.025710
C21   C     C_R   0.531136 0.595637 0.073687 0.591469
C22   C     C_R   0.531387 0.594071 0.927996 -0.253404
C23   C     C_R   0.497847 0.739811 0.500341 0.873941
C24   C     C_R   0.477274 0.397412 0.928408 0.102656
C25   C     C_3   0.408244 0.332080 0.919009 0.273701
C26   C     C_3   0.406188 0.336138 0.074480 0.259317
C27   C     C_R   0.634234 0.501318 0.500165 0.929863
C28   C     C_R   0.254675 0.398771 0.548648 0.332075
C29   C     C_R   0.181794 0.400682 0.554666 0.387132
C30   C     C_R   0.146060 0.501143 0.496089 -0.313271
C31   C     C_R   0.182399 0.603482 0.439415 0.395869
C32   C     C_R   0.255470 0.605152 0.441307 0.363723
H1    H     H_    0.538483 0.890397 0.819675 0.172626
H2    H     H_    0.541752 0.111895 0.819712 0.144728
H3    H     H_    0.408762 0.244038 0.126279 0.085359
N1    N     N_R   0.034106 0.517641 0.382239 -0.175501
N2    N     N_R   0.964945 0.522220 0.384780 -0.129129
N3    N     N_R   0.966568 0.493331 0.619432 -0.183495
N4    N     N_R   0.035730 0.488717 0.616782 -0.159049
N5    N     N_R   0.499530 0.499140 0.142800 -0.129690
N6    N     N_R   0.499530 0.499180 0.857150 -0.139817
O1    O     O_R   0.500010 0.316790 0.614690 -0.569859
O2    O     O_R   0.500000 0.316760 0.385350 -0.647552
O3    O     O_R   0.398140 0.500000 0.614710 -0.610820
O4    O     O_R   0.398130 0.499970 0.385370 -0.594815
O5    O     O_R   0.500000 0.683240 0.614650 -0.629094
O6    O     O_R   0.499990 0.683210 0.385310 -0.587126
O7    O     O_R   0.601870 0.500030 0.614630 -0.616622
O8    O     O_R   0.601860 0.500000 0.385290 -0.550319
Zn1   Zn    Zn3+2 0.500000 0.500020 0.653130 0.989588
Zn2   Zn    Zn3+2 0.500000 0.499980 0.346870 1.023333
O9    O     O_3   0.290599 0.298181 0.600758 -0.605268
C33   C     C_3   0.301309 0.210109 0.496229 -0.255407
H4    H     H_    0.326034 0.126053 0.540200 0.199475
H5    H     H_    0.337532 0.248095 0.418377 0.147427
H6    H     H_    0.251182 0.179296 0.448825 0.183096
H7    H     H_    0.450105 0.883432 0.295576 0.164784
H8    H     H_    0.604416 0.879184 0.682611 0.197737
O10   O     O_3   0.620652 0.136071 0.675114 -0.591772
C34   C     C_3   0.656766 0.075861 0.568682 -0.323396
H9    H     H_    0.621745 0.032306 0.491799 0.158200
H10   H     H_    0.693125 0.005555 0.610423 0.168111
H11   H     H_    0.688960 0.147155 0.515505 0.188521
O11   O     O_3   0.565751 0.687465 0.148972 -0.539139
C35   C     C_3   0.559217 0.807575 0.091679 -0.349066
H12   H     H_    0.568218 0.878869 0.171909 0.190761
H13   H     H_    0.505949 0.824160 0.050420 0.129471
H14   H     H_    0.600146 0.822459 0.013754 0.179187
H15   H     H_    0.556870 0.667731 0.871506 0.164568
H16   H     H_    0.368431 0.388833 0.865303 0.139455
O12   O     O_3   0.417618 0.210204 0.865977 -0.621216
C36   C     C_3   0.354424 0.141652 0.872076 -0.327480
H17   H     H_    0.310022 0.194305 0.829385 0.204768
H18   H     H_    0.342603 0.113409 0.977692 0.138459
H19   H     H_    0.360173 0.054808 0.811051 0.201045
O13   O     O_3   0.355183 0.418775 0.125132 -0.595522
C37   C     C_3   0.290044 0.356125 0.130502 -0.368600
H20   H     H_    0.292805 0.267454 0.188785 0.150988
H21   H     H_    0.269668 0.337274 0.026968 0.152230
H22   H     H_    0.252126 0.417369 0.182956 0.181257
O14   O     O_3   0.144944 0.299821 0.607277 -0.572825
C38   C     C_3   0.147355 0.306371 0.749988 -0.218058
H23   H     H_    0.110371 0.235676 0.791288 0.181547
H24   H     H_    0.131269 0.399735 0.789219 0.146655
H25   H     H_    0.200063 0.283770 0.788671 0.166693
O15   O     O_3   0.146338 0.709149 0.400309 -0.560662
C39   C     C_3   0.136377 0.708135 0.258498 -0.231040
H26   H     H_    0.141814 0.614187 0.209491 0.118866
H27   H     H_    0.173133 0.775510 0.210818 0.167488
H28   H     H_    0.082787 0.741070 0.236760 0.194061
O16   O     O_3   0.291304 0.714050 0.407467 -0.584553
C40   C     C_3   0.310472 0.711534 0.269270 -0.230332
H29   H     H_    0.280670 0.642737 0.205908 0.152257
H30   H     H_    0.367020 0.692560 0.259749 0.204126
H31   H     H_    0.301839 0.805901 0.226245 0.152182
H32   H     H_    0.845748 0.378974 0.664521 0.189622
H33   H     H_    0.718689 0.373009 0.661427 0.216159
O17   O     O_3   0.709303 0.669790 0.327497 -0.531926
C41   C     C_3   0.688350 0.779103 0.396725 -0.208940
H34   H     H_    0.651515 0.757254 0.480375 0.107952
H35   H     H_    0.660901 0.840570 0.324707 0.194017
H36   H     H_    0.733831 0.833220 0.436304 0.122934
O18   O     O_3   0.852539 0.681722 0.333596 -0.567631
C42   C     C_3   0.881367 0.782933 0.408827 -0.270422
H37   H     H_    0.935668 0.762019 0.439876 0.188622
H38   H     H_    0.850307 0.808796 0.500028 0.117894
H39   H     H_    0.883601 0.866488 0.342639 0.195171
H40   H     H_    0.451776 0.111920 0.294192 0.162026

loop_
_geom_bond_atom_site_label_1
_geom_bond_atom_site_label_2
_ccdc_geom_bond_type
C27   O7    A    
C39   H26   S    
C4    N1    A    
C11   C13   A    
C2    C12   S    
O8    Zn2   S    
C42   H38   S    
O14   C38   S    
C7    C8    A    
C37   H20   S    
C11   C19   S    
C34   H11   S    
C2    C32   A    
C28   C29   A    
N3    N4    A    
C20   N5    A    
C37   H22   S    
C32   O16   S    
O4    Zn2   S    
C15   C16   A    
O17   C41   S    
C7    C27   S    
C34   H10   S    
C18   C19   S    
C8    O17   S    
C21   O11   S    
C18   H8    S    
C31   C32   A    
C3    N3    A    
C16   C17   A    
C35   H13   S    
C26   O13   S    
C25   O12   S    
C9    C10   A    
C22   H15   S    
C33   H5    S    
O10   C34   S    
C23   O5    A    
C21   C22   A    
C24   N6    A    
C15   H7    S    
C36   H19   S    
C42   H37   S    
C1    O2    A    
C37   H21   S    
C23   O6    A    
C6    H33   S    
C20   C24   A    
O13   C37   S    
C36   H18   S    
O16   C40   S    
O15   C39   S    
C8    C9    A    
O6    Zn2   S    
C19   O10   S    
C25   C26   S    
C33   H4    S    
C40   H31   S    
C34   H9    S    
C29   O14   S    
C29   C30   A    
C1    O1    A    
C41   H34   S    
C4    N4    A    
C30   C31   A    
C9    O18   S    
C35   H14   S    
C40   H30   S    
C17   C18   S    
C24   C25   S    
O7    Zn1   S    
O1    Zn1   S    
C41   H35   S    
C38   H23   S    
C16   C23   S    
C38   H24   S    
C39   H27   S    
C1    C13   S    
N5    Zn2   S    
N6    Zn1   S    
C5    H32   S    
O9    C33   S    
C33   H6    S    
O3    Zn1   S    
C11   C17   A    
C36   H17   S    
C19   H2    S    
C6    C7    A    
C12   O4    A    
C38   H25   S    
O5    Zn1   S    
O11   C35   S    
C5    C10   A    
C12   O3    A    
C3    C10   S    
C28   O9    S    
O2    Zn2   S    
C5    C6    A    
C21   N5    A    
C20   C26   S    
C14   H40   S    
C40   H29   S    
C18   H1    S    
C22   N6    A    
C26   H3    S    
O12   C36   S    
C41   H36   S    
C3    N2    A    
N1    N2    A    
C35   H12   S    
C39   H28   S    
O18   C42   S    
C31   O15   S    
C14   C15   A    
C2    C28   A    
C25   H16   S    
C13   C14   A    
C42   H39   S    
C4    C30   S    
C27   O8    A    
