data_mof_unit_2956.cif
_audit_creation_date              2012-12-10T17:52:20-0500
_audit_creation_method            fapswitch 2.2
_symmetry_space_group_name_H-M    P1
_symmetry_Int_Tables_number       1
_space_group_crystal_system       triclinic
_cell_length_a                    19.032829
_cell_length_b                    10.619444
_cell_length_c                    9.915469
_cell_angle_alpha                 89.768275
_cell_angle_beta                  89.581395
_cell_angle_gamma                 91.873449
_cell_volume                      2002.95227953

loop_
_atom_site_label
_atom_site_type_symbol
_atom_type_description
_atom_site_fract_x
_atom_site_fract_y
_atom_site_fract_z
_atom_type_partial_charge
C1    C     C_R   0.501458 0.260701 0.500246 0.856077
C2    C     C_R   0.851880 0.417830 0.485842 0.092274
C3    C     C_R   0.620922 0.138119 0.616836 -0.171319
C4    C     C_R   0.365421 0.503249 0.500189 0.833770
C5    C     C_R   0.677146 0.075657 0.672736 -0.127897
C6    C     C_R   0.677416 0.944618 0.672179 -0.137263
C7    C     C_R   0.621507 0.875626 0.615560 -0.191604
C8    C     C_R   0.563766 0.937612 0.559512 0.095624
C9    C     C_R   0.563445 0.069565 0.560181 0.097026
C10   C     C_R   0.506043 0.128663 0.500408 -0.087465
C11   C     C_R   0.451651 0.061484 0.437616 -0.214925
C12   C     C_R   0.289026 0.493172 0.499898 -0.053563
C13   C     C_R   0.451940 0.932855 0.437363 -0.207130
C14   C     C_R   0.506661 0.871972 0.499246 -0.095161
C15   C     C_R   0.407884 0.333977 0.141892 -0.149220
C16   C     C_R   0.502075 0.739421 0.499752 0.868192
C17   C     C_R   0.362771 0.251887 0.072546 -0.190726
C18   C     C_R   0.362935 0.251820 0.932939 -0.194522
C19   C     C_R   0.408229 0.333801 0.861891 -0.154760
C20   C     C_R   0.454736 0.418121 0.928681 0.170764
C21   C     C_R   0.454656 0.418212 0.073250 0.167233
C22   C     C_R   0.543389 0.578257 0.070530 -0.117810
C23   C     C_R   0.927778 0.401232 0.481108 0.283770
C24   C     C_R   0.543359 0.578257 0.927424 -0.113752
C25   C     C_R   0.634680 0.497390 0.499367 0.828280
C26   C     C_R   0.256734 0.409633 0.593124 -0.227940
C27   C     C_R   0.185308 0.381360 0.586523 -0.166660
C28   C     C_R   0.145300 0.434592 0.484987 0.053548
C29   C     C_R   0.176776 0.520153 0.393158 -0.185469
C30   C     C_R   0.248139 0.554153 0.401674 0.102034
C31   C     C_3   0.276898 0.656078 0.305958 -0.430410
C32   C     C_3   0.244808 0.784136 0.335483 -0.358187
C33   C     C_3   0.265940 0.881642 0.227696 -0.886927
C34   C     C_R   0.069623 0.409754 0.480437 0.294029
C35   C     C_R   0.815693 0.415295 0.609742 -0.167672
C36   C     C_R   0.745176 0.445102 0.615158 -0.219234
C37   C     C_R   0.710034 0.477015 0.496655 -0.030622
C38   C     C_R   0.746042 0.478210 0.372828 -0.183781
C39   C     C_R   0.816320 0.448570 0.367409 -0.164298
H1    H     H_    0.287201 0.362588 0.668808 0.146885
H2    H     H_    0.327708 0.187939 0.879160 0.147376
H3    H     H_    0.405266 0.328486 0.755003 0.198441
H4    H     H_    0.161662 0.316000 0.659139 0.152020
H5    H     H_    0.578779 0.642250 0.872870 0.145719
H6    H     H_    0.145219 0.563736 0.316522 0.150781
H7    H     H_    0.842008 0.392552 0.702748 0.148639
H8    H     H_    0.718087 0.441595 0.711621 0.155938
H9    H     H_    0.719911 0.501416 0.279705 0.155209
H10   H     H_    0.842907 0.451536 0.270456 0.148749
H11   H     H_    0.408270 0.108853 0.391232 0.138858
H12   H     H_    0.623489 0.239857 0.617033 0.151155
H13   H     H_    0.323991 0.891872 0.218704 0.259260
H14   H     H_    0.244111 0.852923 0.128465 0.267536
H15   H     H_    0.244814 0.974433 0.255125 0.248945
H16   H     H_    0.186503 0.775530 0.338702 0.231344
H17   H     H_    0.263227 0.818302 0.435439 0.222945
H18   H     H_    0.334532 0.670478 0.312389 0.225324
H19   H     H_    0.264876 0.626957 0.200789 0.214177
H20   H     H_    0.720883 0.129154 0.715558 0.140506
H21   H     H_    0.721359 0.896274 0.714638 0.138972
H22   H     H_    0.624533 0.774123 0.614536 0.141045
H23   H     H_    0.408727 0.880150 0.391638 0.150191
H24   H     H_    0.578850 0.642198 0.123471 0.146880
H25   H     H_    0.404469 0.328449 0.248872 0.200530
H26   H     H_    0.327460 0.187959 0.127655 0.148747
N1    N     N_R   0.033903 0.432917 0.365862 -0.180033
N2    N     N_R   0.964226 0.428545 0.366187 -0.180840
N3    N     N_R   0.963544 0.373376 0.594625 -0.180768
N4    N     N_R   0.033366 0.377333 0.594242 -0.174647
N5    N     N_R   0.499340 0.498800 0.142780 -0.121165
N6    N     N_R   0.499320 0.498720 0.857170 -0.120095
O1    O     O_R   0.500000 0.316780 0.614690 -0.638256
O2    O     O_R   0.499990 0.316750 0.385360 -0.624099
O3    O     O_R   0.398140 0.500000 0.614700 -0.623837
O4    O     O_R   0.398130 0.499970 0.385370 -0.644390
O5    O     O_R   0.500010 0.683250 0.614640 -0.610656
O6    O     O_R   0.500000 0.683220 0.385310 -0.614405
O7    O     O_R   0.601870 0.500030 0.614630 -0.630235
O8    O     O_R   0.601860 0.500000 0.385300 -0.611726
Zn1   Zn    Zn3+2 0.500000 0.500020 0.653130 0.932066
Zn2   Zn    Zn3+2 0.500000 0.499980 0.346870 0.932614

loop_
_geom_bond_atom_site_label_1
_geom_bond_atom_site_label_2
_ccdc_geom_bond_type
C2    C35   A    
C8    C9    A    
C19   C20   A    
C34   N1    A    
C7    C8    A    
C33   H13   S    
C26   C27   A    
C29   C30   A    
C31   H19   S    
C28   C29   A    
C18   C19   A    
C30   C31   S    
O7    Zn1   S    
C36   H8    S    
C16   O6    A    
C23   N2    A    
N5    Zn2   S    
C7    H22   S    
C4    O4    A    
C25   C37   S    
C22   H24   S    
C2    C39   A    
C13   H23   S    
C35   C36   A    
N3    N4    A    
C15   H25   S    
C20   N6    A    
C4    C12   S    
C9    C10   A    
C32   H16   S    
C38   H9    S    
C19   H3    S    
N1    N2    A    
C28   C34   S    
O3    Zn1   S    
C13   C14   A    
O2    Zn2   S    
N6    Zn1   S    
C33   H14   S    
C38   C39   A    
C1    O1    A    
C5    H20   S    
C25   O7    A    
C6    H21   S    
C18   H2    S    
O8    Zn2   S    
C3    H12   S    
O4    Zn2   S    
C29   H6    S    
C23   N3    A    
C37   C38   A    
C3    C9    A    
C31   C32   S    
O6    Zn2   S    
C17   C18   A    
C34   N4    A    
C39   H10   S    
C24   H5    S    
C14   C16   S    
C27   C28   A    
C33   H15   S    
C15   C17   A    
C36   C37   A    
C8    C14   A    
C12   C30   A    
C16   O5    A    
C4    O3    A    
C1    C10   S    
O5    Zn1   S    
C3    C5    A    
C25   O8    A    
C6    C7    A    
C17   H26   S    
C21   N5    A    
C1    O2    A    
C32   C33   S    
C31   H18   S    
O1    Zn1   S    
C11   H11   S    
C11   C13   A    
C26   H1    S    
C5    C6    A    
C22   N5    A    
C22   C24   A    
C10   C11   A    
C27   H4    S    
C15   C21   A    
C20   C21   A    
C12   C26   A    
C2    C23   S    
C35   H7    S    
C32   H17   S    
C24   N6    A    
