data_mof_unit_1327.cif
_audit_creation_date              2012-12-11T16:17:59-0500
_audit_creation_method            fapswitch 2.2
_symmetry_space_group_name_H-M    P1
_symmetry_Int_Tables_number       1
_space_group_crystal_system       triclinic
_cell_length_a                    14.006225
_cell_length_b                    14.023682
_cell_length_c                    30.063298
_cell_angle_alpha                 97.096864
_cell_angle_beta                  96.832242
_cell_angle_gamma                 61.344834
_cell_volume                      5129.95939145

loop_
_atom_site_label
_atom_site_type_symbol
_atom_type_description
_atom_site_fract_x
_atom_site_fract_y
_atom_site_fract_z
_atom_type_partial_charge
Br1   Br    Br    0.869645 0.092525 0.177588 -0.331270
Br2   Br    Br    0.482714 0.111341 0.680372 -0.336226
Br3   Br    Br    0.886888 0.501765 0.700314 -0.465923
Br4   Br    Br    0.514548 0.138806 0.188363 -0.421546
Br5   Br    Br    0.741017 0.177415 0.674960 -0.379707
Br6   Br    Br    0.130555 0.852017 0.675124 -0.336819
Br7   Br    Br    0.103271 0.892178 0.785509 -0.416794
Br8   Br    Br    0.546077 0.822053 0.818035 -0.455238
Br9   Br    Br    0.530374 0.145560 0.299835 -0.360911
Br10  Br    Br    0.810993 0.529146 0.086351 -0.488374
Br11  Br    Br    0.772376 0.152417 0.403600 -0.414347
Br12  Br    Br    0.900574 0.075879 0.070066 -0.365070
Br13  Br    Br    0.145007 0.805479 0.174329 -0.387911
Br14  Br    Br    0.121566 0.867242 0.295083 -0.476921
Br15  Br    Br    0.572350 0.780486 0.423977 -0.370169
Br16  Br    Br    0.564717 0.797345 0.315385 -0.449753
Br17  Br    Br    0.150152 0.559952 0.691885 -0.425053
Br18  Br    Br    0.512432 0.125810 0.574421 -0.299150
Br19  Br    Br    0.525756 0.132602 0.803624 -0.420301
C1    C     C_R   0.384727 0.714071 0.442990 0.561682
C2    C     C_R   0.794495 0.260984 0.378558 0.146710
C3    C     C_R   0.824211 0.240710 0.333887 -0.010320
C4    C     C_R   0.398666 0.380889 0.426573 0.550905
C5    C     C_R   0.841728 0.317497 0.314808 0.032180
C6    C     C_R   0.853075 0.401018 0.342517 0.019280
C7    C     C_R   0.830957 0.416268 0.388354 -0.013909
C8    C     C_R   0.823217 0.405495 0.158942 -0.019453
C9    C     C_R   0.844489 0.397157 0.113510 0.141491
C10   C     C_R   0.882551 0.206957 0.106275 0.142192
C11   C     C_R   0.863040 0.215116 0.151674 0.190908
C12   C     C_R   0.400112 0.256125 0.221886 0.182176
C13   C     C_R   0.841156 0.311478 0.178572 -0.002630
C14   C     C_1   0.841133 0.311992 0.226512 0.032677
C15   C     C_1   0.842591 0.313429 0.266664 0.006584
C16   C     C_R   0.714443 0.403013 0.443369 0.549035
C17   C     C_R   0.886146 0.294348 0.088336 -0.012921
C18   C     C_R   0.361833 0.779062 0.403639 -0.023160
C19   C     C_R   0.447878 0.786322 0.386246 0.169231
C20   C     C_R   0.441835 0.802356 0.340654 0.161932
C21   C     C_R   0.347894 0.818112 0.313251 0.013279
C22   C     C_R   0.254874 0.831773 0.332271 0.151444
C23   C     C_R   0.407227 0.259405 0.268841 0.188023
C24   C     C_R   0.259871 0.817068 0.378155 -0.039201
C25   C     C_R   0.250066 0.834591 0.151553 0.173412
C26   C     C_R   0.230884 0.865056 0.107907 -0.095614
C27   C     C_R   0.404299 0.868061 0.112990 -0.004732
C28   C     C_R   0.389295 0.712195 0.568083 0.556131
C29   C     C_R   0.420712 0.844493 0.158735 -0.013799
C30   C     C_R   0.340478 0.831751 0.178133 0.039380
C31   C     C_1   0.345077 0.824052 0.225688 0.072329
C32   C     C_1   0.346634 0.821209 0.265574 0.104391
C33   C     C_R   0.302603 0.890005 0.089236 -0.016384
C34   C     C_R   0.325075 0.345478 0.293362 0.015381
C35   C     C_R   0.356402 0.358386 0.589511 -0.033456
C36   C     C_R   0.415010 0.256371 0.608603 0.175347
C37   C     C_R   0.399909 0.248050 0.653013 0.182425
C38   C     C_R   0.326410 0.340426 0.677970 0.005402
C39   C     C_R   0.255841 0.436258 0.657143 0.152954
C40   C     C_R   0.399752 0.381650 0.551462 0.558278
C41   C     C_R   0.265677 0.443303 0.611784 -0.042475
C42   C     C_R   0.234041 0.417366 0.836584 -0.025041
C43   C     C_R   0.227882 0.405687 0.882303 -0.004195
C44   C     C_R   0.391900 0.229855 0.877350 -0.097400
C45   C     C_R   0.309960 0.338005 0.199213 0.018373
C46   C     C_R   0.402388 0.244215 0.833824 0.162765
C47   C     C_R   0.320663 0.334193 0.812464 0.037247
C48   C     C_1   0.323149 0.337043 0.765095 0.072991
C49   C     C_1   0.324467 0.337944 0.725346 0.106573
C50   C     C_R   0.301310 0.305317 0.900882 -0.012374
C51   C     C_1   0.762549 0.376545 0.612303 0.065893
C52   C     C_R   0.713206 0.407698 0.568445 0.541143
C53   C     C_R   0.857765 0.399430 0.726278 0.155902
C54   C     C_R   0.874397 0.387342 0.772970 0.017568
C55   C     C_R   0.813909 0.247296 0.761559 -0.001681
C56   C     C_1   0.299895 0.324569 0.150921 0.006813
C57   C     C_R   0.796820 0.260969 0.715110 0.160733
C58   C     C_R   0.819069 0.336314 0.697710 0.032954
C59   C     C_R   0.852596 0.310878 0.790415 0.018276
C60   C     C_1   0.876534 0.294985 0.837881 -0.033615
C61   C     C_1   0.792784 0.355712 0.650739 0.062597
C62   C     C_1   0.904864 0.282986 0.877074 0.007681
C63   C     C_1   0.373899 0.762042 0.612884 0.039112
C64   C     C_1   0.364420 0.363127 0.381148 0.034993
C65   C     C_R   0.251131 0.843299 0.716175 0.200557
C66   C     C_R   0.239888 0.859130 0.762661 0.168804
C67   C     C_1   0.342724 0.353434 0.341533 0.006697
C68   C     C_R   0.427103 0.829550 0.776184 0.163045
C69   C     C_R   0.439121 0.813612 0.729472 -0.020442
C70   C     C_R   0.350415 0.820185 0.699537 -0.000247
C71   C     C_R   0.328050 0.851382 0.792561 0.008039
C72   C     C_1   0.313013 0.874778 0.840009 0.057382
C73   C     C_1   0.362890 0.793011 0.651990 0.014505
C74   C     C_1   0.293929 0.902922 0.878820 0.055631
C75   C     C_R   0.948072 0.273901 0.047903 0.580679
C76   C     C_R   0.233689 0.428633 0.271023 -0.009128
C77   C     C_R   0.275255 0.270498 0.065378 0.551605
C78   C     C_1   0.290255 0.304962 0.111100 0.033702
C79   C     C_R   0.261920 0.951997 0.048456 0.539593
C80   C     C_R   0.951919 0.269242 0.922203 0.554381
C81   C     C_R   0.277755 0.267575 0.940186 0.539401
C82   C     C_R   0.261922 0.950431 0.922959 0.544366
C83   C     C_R   0.225969 0.424766 0.223414 -0.012134
C84   C     C_3   0.144554 0.521974 0.297266 -0.376834
C85   C     C_3   0.834003 0.138237 0.306835 -0.290254
C86   C     C_3   0.155980 0.844661 0.399260 -0.312331
C87   C     C_3   0.520821 0.838337 0.186589 -0.353214
C88   C     C_3   0.493087 0.872475 0.090320 -0.327984
C89   C     C_R   0.784445 0.357233 0.404164 0.014190
C90   C     C_3   0.127867 0.513106 0.199176 -0.349799
C91   C     C_3   0.146855 0.500113 0.910899 -0.353950
C92   C     C_3   0.148861 0.515338 0.812562 -0.359422
C93   C     C_3   0.178966 0.540561 0.588023 -0.294610
C94   C     C_3   0.915287 0.454642 0.804866 -0.350305
C95   C     C_3   0.789897 0.165102 0.779296 -0.293516
C96   C     C_3   0.546837 0.789192 0.712651 -0.296750
C97   C     C_3   0.782867 0.514801 0.185832 -0.348802
C98   C     C_3   0.886972 0.475284 0.323776 -0.377348
C99   C     C_3   0.859586 0.493295 0.419921 -0.344107
Cr1   Cr    Cr6+3 0.581000 0.584320 0.508140 1.104866
Cr2   Cr    Cr6+3 0.339110 0.576430 0.496080 1.024660
Cr3   Cr    Cr6+3 0.579910 0.339270 0.495810 1.160004
Cr4   Cr    Cr6+3 0.082090 0.079210 0.982490 1.105816
Cr5   Cr    Cr6+3 0.082460 0.324610 0.994920 1.071153
Cr6   Cr    Cr6+3 0.323630 0.087860 0.996130 1.060141
H1    H     H_    0.155739 0.875085 0.089479 0.201116
H2    H     H_    0.133915 0.778128 0.390339 0.171718
H3    H     H_    0.163284 0.859715 0.436296 0.158360
H4    H     H_    0.519117 0.831765 0.222605 0.189899
H5    H     H_    0.595066 0.765975 0.174658 0.138962
H6    H     H_    0.527599 0.913009 0.183894 0.204561
H7    H     H_    0.493336 0.841994 0.054428 0.155316
H8    H     H_    0.480738 0.957289 0.093277 0.187726
H9    H     H_    0.575822 0.818664 0.104870 0.159593
H10   H     H_    0.132068 0.504354 0.162234 0.160536
H11   H     H_    0.052474 0.511577 0.206004 0.134582
H12   H     H_    0.452128 0.154992 0.891602 0.188857
H13   H     H_    0.121136 0.594160 0.210937 0.194151
H14   H     H_    0.145834 0.577001 0.904657 0.142216
H15   H     H_    0.064088 0.507675 0.903177 0.150215
H16   H     H_    0.170073 0.491526 0.947309 0.154647
H17   H     H_    0.078618 0.570672 0.832547 0.144585
H18   H     H_    0.187183 0.562688 0.803180 0.193586
H19   H     H_    0.114685 0.487471 0.781593 0.185073
H20   H     H_    0.167574 0.517781 0.551851 0.131804
H21   H     H_    0.097901 0.570443 0.601146 0.197464
H22   H     H_    0.200712 0.607732 0.592329 0.198775
H23   H     H_    0.156302 0.514441 0.334004 0.131893
H24   H     H_    0.924480 0.515953 0.788623 0.192086
H25   H     H_    0.856889 0.499769 0.831265 0.157020
H26   H     H_    0.996011 0.400054 0.821117 0.134835
H27   H     H_    0.805103 0.160816 0.816188 0.148753
H28   H     H_    0.702811 0.186903 0.771001 0.204432
H29   H     H_    0.841847 0.082570 0.763520 0.225172
H30   H     H_    0.547307 0.780093 0.675533 0.150708
H31   H     H_    0.565898 0.856734 0.724598 0.228925
H32   H     H_    0.612685 0.712163 0.725654 0.184807
H33   H     H_    0.765251 0.513296 0.220604 0.132931
H34   H     H_    0.141267 0.600196 0.291492 0.181703
H35   H     H_    0.844596 0.543637 0.187628 0.163184
H36   H     H_    0.705419 0.574585 0.169306 0.173440
H37   H     H_    0.897038 0.459835 0.287200 0.127337
H38   H     H_    0.824617 0.561620 0.330053 0.183763
H39   H     H_    0.966862 0.463494 0.340004 0.128425
H40   H     H_    0.941359 0.481358 0.413987 0.120334
H41   H     H_    0.798127 0.579013 0.414926 0.203682
H42   H     H_    0.866636 0.476664 0.455600 0.160110
H43   H     H_    0.064550 0.525420 0.286245 0.133760
H44   H     H_    0.867272 0.125779 0.273860 0.195200
H45   H     H_    0.891260 0.065585 0.325079 0.199980
H46   H     H_    0.752848 0.141420 0.301232 0.218621
H47   H     H_    0.088163 0.922025 0.387420 0.180844
O1    O     O_R   0.688580 0.499770 0.460490 -0.502965
O2    O     O_R   0.346150 0.177650 0.050510 -0.489946
O3    O     O_R   0.314200 0.996600 0.036060 -0.507344
O4    O     O_R   0.480400 0.672610 0.462660 -0.445881
O5    O     O_R   0.168690 0.969990 0.933130 -0.489268
O6    O     O_R   0.991920 0.175870 0.937430 -0.481706
O7    O     O_R   0.974010 0.342590 0.941330 -0.502959
O8    O     O_R   0.182630 0.317940 0.955040 -0.502787
O9    O     O_R   0.347320 0.174720 0.953250 -0.503316
O10   O     O_R   0.315290 0.993890 0.945900 -0.488335
O11   O     O_3   0.162730 0.163890 0.991180 -0.268546
O12   O     O_R   0.348600 0.476260 0.536540 -0.520941
O13   O     O_R   0.315310 0.685650 0.451800 -0.521782
O14   O     O_R   0.346220 0.474990 0.446280 -0.513894
O15   O     O_R   0.492270 0.312460 0.441630 -0.443022
O16   O     O_R   0.669740 0.350480 0.455640 -0.449294
O17   O     O_R   0.691150 0.501150 0.557860 -0.496666
O18   O     O_R   0.482790 0.673890 0.552920 -0.484069
O19   O     O_R   0.317880 0.687030 0.549170 -0.503552
O20   O     O_R   0.494840 0.313840 0.539010 -0.441554
O21   O     O_R   0.672120 0.351750 0.545910 -0.475367
O22   O     O_3   0.500010 0.500010 0.500010 -0.276516
O23   O     O_R   0.167510 0.972920 0.030390 -0.487476
O24   O     O_R   0.990840 0.178580 0.027590 -0.460629
O25   O     O_R   0.972840 0.345510 0.038590 -0.453880
O26   O     O_R   0.181550 0.320660 0.045200 -0.494965

loop_
_geom_bond_atom_site_label_1
_geom_bond_atom_site_label_2
_ccdc_geom_bond_type
C25   C30   A    
Cr4   O6    S    
C36   C37   A    
C44   C46   A    
C84   H43   S    
C1    C18   S    
C12   C23   A    
C87   H4    S    
C96   H32   S    
C34   C76   A    
C40   O20   A    
C95   H28   S    
Cr4   O24   S    
C68   C69   A    
Cr2   O14   S    
Cr3   O21   S    
C4    O15   A    
C71   C72   S    
C84   H23   S    
C35   C41   A    
C98   H39   S    
C45   C83   A    
C10   C17   A    
C99   H40   S    
Br9   C23   S    
C18   C19   A    
C55   C57   A    
C86   H2    S    
C75   O25   A    
C94   H24   S    
C91   H15   S    
C80   O6    A    
Cr5   O11   S    
C23   C34   A    
C19   C20   A    
C79   O3    A    
C1    O4    A    
C90   H11   S    
C39   C41   A    
C55   C95   S    
C27   C33   A    
C56   C78   T    
C63   C73   T    
C37   C38   A    
C79   O23   A    
C90   H13   S    
C24   C86   S    
C28   C63   S    
Cr1   O17   S    
Cr6   O10   S    
C16   C89   S    
C92   H18   S    
Cr1   O4    S    
Cr3   O15   S    
C42   C47   A    
C29   C87   S    
C44   C50   A    
C26   H1    S    
C54   C59   A    
C34   C67   S    
C52   O21   A    
C18   C24   A    
C52   O17   A    
C95   H29   S    
C93   H22   S    
C76   C83   A    
C92   H19   S    
Cr1   O1    S    
C1    O13   A    
C8    C97   S    
C47   C48   S    
C8    C13   A    
C2    C3    A    
C27   C88   S    
C16   O1    A    
C22   C24   A    
C95   H27   S    
Cr4   O23   S    
Cr5   O7    S    
C12   C45   A    
Cr3   O22   S    
C76   C84   S    
C14   C15   T    
C35   C40   S    
C77   O26   A    
C27   C29   A    
Br6   C65   S    
C77   O2    A    
C86   H3    S    
C51   C61   T    
C48   C49   T    
Br4   C12   S    
C94   H25   S    
C91   H14   S    
C5    C6    A    
C97   H35   S    
Cr5   O8    S    
C74   C82   S    
C20   C21   A    
C60   C62   T    
C59   C60   S    
C88   H8    S    
Cr6   O2    S    
C62   C80   S    
C26   C33   A    
C98   H37   S    
C6    C7    A    
C72   C74   T    
C99   H42   S    
C5    C15   S    
C75   O24   A    
C43   C50   A    
Cr1   O22   S    
C28   O18   A    
Br15  C19   S    
Cr6   O11   S    
C10   C11   A    
C41   C93   S    
Cr2   O19   S    
Cr3   O16   S    
C43   C91   S    
C66   C71   A    
C77   C78   S    
C31   C32   T    
C65   C66   A    
C70   C73   S    
C40   O12   A    
Cr2   O13   S    
C51   C52   S    
C4    C64   S    
Br18  C36   S    
C80   O7    A    
Br14  C22   S    
C54   C94   S    
C88   H7    S    
C29   C30   A    
C30   C31   S    
C96   H30   S    
C3    C5    A    
Cr5   O25   S    
C65   C70   A    
C38   C49   S    
C7    C89   A    
C42   C92   S    
C82   O10   A    
C25   C26   A    
C85   H46   S    
C58   C61   S    
Br10  C9    S    
C87   H6    S    
C69   C96   S    
C35   C36   A    
C21   C22   A    
C86   H47   S    
C96   H31   S    
C90   H10   S    
C87   H5    S    
C94   H26   S    
Cr5   O26   S    
Cr1   O18   S    
C53   C54   A    
C82   O5    A    
Br12  C10   S    
C6    C98   S    
Cr3   O20   S    
C53   C58   A    
C85   H44   S    
C84   H34   S    
C97   H36   S    
C98   H38   S    
C21   C32   S    
C7    C99   S    
Br17  C39   S    
C99   H41   S    
Cr2   O22   S    
Br8   C68   S    
C44   H12   S    
C93   H20   S    
C28   O19   A    
C91   H16   S    
Br3   C53   S    
C3    C85   S    
C93   H21   S    
C97   H33   S    
C88   H9    S    
Br2   C37   S    
C13   C14   S    
C11   C13   A    
C57   C58   A    
C38   C39   A    
Br7   C66   S    
Br5   C57   S    
Cr4   O5    S    
C33   C79   S    
Br1   C11   S    
C45   C56   S    
Br11  C2    S    
Br19  C46   S    
C4    O14   A    
C42   C43   A    
Cr2   O12   S    
Cr6   O9    S    
C2    C89   A    
C92   H17   S    
Br16  C20   S    
C50   C81   S    
C17   C75   S    
Cr4   O11   S    
C64   C67   T    
Cr6   O3    S    
C69   C70   A    
C9    C17   A    
C16   O16   A    
C46   C47   A    
C55   C59   A    
C68   C71   A    
C8    C9    A    
C83   C90   S    
C81   O8    A    
Br13  C25   S    
C85   H45   S    
C81   O9    A    
