data_mof_unit_697.cif
_audit_creation_date              2013-03-05T16:11:03-0500
_audit_creation_method            fapswitch 2.2
_symmetry_space_group_name_H-M    P1
_symmetry_Int_Tables_number       1
_space_group_crystal_system       triclinic
_cell_length_a                    10.80209
_cell_length_b                    9.803577
_cell_length_c                    10.697543
_cell_angle_alpha                 90.931603
_cell_angle_beta                  91.285348
_cell_angle_gamma                 89.830549
_cell_volume                      1132.42183228

loop_
_atom_site_label
_atom_site_type_symbol
_atom_site_description
_atom_site_fract_x
_atom_site_fract_y
_atom_site_fract_z
_atom_type_partial_charge
O1    O     O_R   0.317570 0.620260 0.500070 -0.599795
O2    O     O_R   0.317570 0.379740 0.500070 -0.529027
C1    C     C_R   0.261160 0.499794 0.501195 0.845204
O3    O     O_R   0.499850 0.620240 0.316900 -0.544128
O4    O     O_R   0.499850 0.379760 0.316900 -0.528622
C2    C     C_R   0.506483 0.499019 0.261250 0.823905
Cu1   Cu    Cu3+1 0.499860 0.642410 0.500060 0.931189
Cu2   Cu    Cu3+1 0.499860 0.357590 0.500060 0.961830
O5    O     O_R   0.682190 0.620260 0.500030 -0.605643
O6    O     O_R   0.682190 0.379740 0.500030 -0.607791
O7    O     O_R   0.499910 0.620280 0.683200 -0.592280
O8    O     O_R   0.499910 0.379720 0.683200 -0.587410
C3    C     C_R   0.739226 0.500050 0.499295 0.736402
C4    C     C_R   0.498346 0.501221 0.739355 0.848756
C5    C     C_3   0.391372 0.505382 0.044707 0.187194
C6    C     C_3   0.562466 0.385998 0.036657 0.178725
C7    C     C_3   0.442109 0.393065 0.957228 0.119002
C8    C     C_3   0.499824 0.504160 0.876686 -0.094966
C9    C     C_3   0.449583 0.616312 0.964847 0.165248
C10   C     C_3   0.619535 0.497765 0.956686 0.076156
C11   C     C_3   0.569986 0.610179 0.045759 -0.198791
C12   C     C_3   0.511113 0.497525 0.124420 -0.089565
H1    H     H_    0.625809 0.697744 0.081827 0.196340
C13   C     C_3   0.073727 0.598528 0.605538 0.265578
C14   C     C_3   0.070674 0.351462 0.520291 0.278696
H2    H     H_    0.104851 0.703735 0.584465 0.115982
H3    H     H_    0.095929 0.288018 0.437250 0.125542
C15   C     C_3   0.930757 0.597898 0.603466 -0.399700
C16   C     C_3   0.929512 0.356972 0.526532 -0.399340
H4    H     H_    0.895414 0.567178 0.695234 0.199860
H5    H     H_    0.900019 0.329078 0.621542 0.218376
H6    H     H_    0.898678 0.702925 0.586931 0.153155
H7    H     H_    0.891952 0.283561 0.455902 0.159364
H8    H     H_    0.102719 0.654420 0.357339 0.197154
H9    H     H_    0.105674 0.482141 0.298851 0.191361
H10   H     H_    0.890967 0.645366 0.344320 0.181889
H11   H     H_    0.895249 0.470597 0.297223 0.170410
C17   C     C_3   0.070876 0.548733 0.375116 -0.549270
C18   C     C_3   0.122995 0.498680 0.503201 0.010931
C19   C     C_3   0.878479 0.500647 0.499507 0.062049
C20   C     C_3   0.927534 0.544304 0.371164 -0.405595
C21   C     C_3   0.629695 0.083422 0.495675 0.435796
C22   C     C_3   0.631249 0.914587 0.505698 0.475708
H12   H     H_    0.509810 0.109998 0.703819 0.178776
H13   H     H_    0.462327 0.872571 0.701241 0.204426
C23   C     C_3   0.451286 0.083844 0.621332 -0.362857
C24   C     C_3   0.434732 0.920245 0.612543 -0.379408
C25   C     C_3   0.410741 0.076683 0.407913 0.314337
C26   C     C_3   0.429149 0.916760 0.393125 0.271644
N1    N     N_3   0.500250 0.143650 0.502780 -0.183330
N2    N     N_3   0.500250 0.856350 0.502780 -0.197365
H14   H     H_    0.314681 0.089347 0.443213 0.112741
H15   H     H_    0.335344 0.869801 0.390068 0.119324
H16   H     H_    0.361123 0.131540 0.644003 0.234078
H17   H     H_    0.333924 0.896629 0.605877 0.170209
C27   C     C_3   0.366126 0.269857 0.915483 -0.708025
H18   H     H_    0.427575 0.190431 0.876734 0.211692
H19   H     H_    0.318398 0.226769 0.996546 0.272677
H20   H     H_    0.296302 0.301452 0.844654 0.297263
C28   C     C_3   0.716737 0.142597 0.605766 -0.725218
H21   H     H_    0.815272 0.128343 0.583209 0.214161
H22   H     H_    0.692317 0.241064 0.647200 0.254535
H23   H     H_    0.710537 0.098791 0.698444 0.156304
C29   C     C_3   0.695844 0.865945 0.633468 -0.764188
H24   H     H_    0.688731 0.758807 0.657260 0.265507
H25   H     H_    0.795580 0.892823 0.638317 0.198268
H26   H     H_    0.653318 0.907380 0.718768 0.176154
C30   C     C_3   0.684061 0.131674 0.369324 -0.747198
H27   H     H_    0.634461 0.083795 0.289368 0.251097
H28   H     H_    0.672129 0.237637 0.344865 0.273783
H29   H     H_    0.784858 0.110788 0.364012 0.179165
C31   C     C_3   0.714940 0.851175 0.398212 -0.684919
H30   H     H_    0.733795 0.905866 0.312634 0.187989
H31   H     H_    0.809514 0.828621 0.433710 0.185788
H32   H     H_    0.674049 0.762998 0.349449 0.285237
Cl1   Cl    Cl    0.378238 0.157127 0.262280 -0.635749
Cl2   Cl    Cl    0.483279 0.876554 0.238671 -0.674131
C32   C     C_3   0.261577 0.509337 0.096459 -0.814008
H33   H     H_    0.192217 0.515601 0.018934 0.290832
H34   H     H_    0.245717 0.414886 0.149336 0.244110
H35   H     H_    0.251957 0.599644 0.159408 0.231210
C33   C     C_3   0.633608 0.256118 0.066093 -0.808427
H36   H     H_    0.670525 0.211568 0.978403 0.227958
H37   H     H_    0.712103 0.279784 0.131319 0.213336
H38   H     H_    0.571191 0.180558 0.106354 0.297684
C34   C     C_3   0.387988 0.750472 0.929818 -0.706831
H39   H     H_    0.333270 0.789953 0.009158 0.274048
H40   H     H_    0.460245 0.826368 0.909080 0.213129
H41   H     H_    0.325942 0.735770 0.847005 0.256700
C35   C     C_3   0.749989 0.498236 0.906574 -0.835609
H42   H     H_    0.818121 0.485112 0.984671 0.254572
H43   H     H_    0.760812 0.414015 0.837045 0.226953
H44   H     H_    0.766442 0.597516 0.861711 0.225583
Cl3   Cl    Cl    0.133763 0.564820 0.759338 -0.665631
Cl4   Cl    Cl    0.130252 0.260287 0.652716 -0.658254

loop_
_geom_bond_atom_site_label_1
_geom_bond_atom_site_label_2
_geom_bond_distance
_ccdc_geom_bond_type
C22   C31   1.595606 S    
C4    C8    1.468653 S    
C9    C34   1.520748 S    
Cu1   Cu2   2.792254 S    
Cu1   O7    1.974616 S    
C28   H23   1.090337 S    
C9    C11   1.547619 S    
C13   H2    1.113856 S    
O3    Cu1   1.967862 S    
C17   C18   1.555894 S    
O7    C4    1.321700 A    
C34   H40   1.108432 S    
C5    C32   1.519061 S    
C15   C19   1.550866 S    
C2    C12   1.465553 S    
C16   H7    1.106226 S    
C13   C18   1.558236 S    
C27   H18   1.103424 S    
C28   H22   1.089835 S    
C8    C9    1.542259 S    
C25   Cl1   1.784961 S    
C3    C19   1.504201 S    
O5    C3    1.328196 A    
C5    C12   1.535639 S    
C27   H19   1.108820 S    
C30   H27   1.098568 S    
C26   N2    1.515298 S    
C8    C10   1.536268 S    
Cu2   O8    1.967604 S    
C25   N1    1.527696 S    
C1    C18   1.493183 S    
O1    Cu1   1.981690 S    
C11   C12   1.546167 S    
C21   C30   1.566415 S    
H10   C20   1.105419 S    
C31   H32   1.091678 S    
H12   C23   1.101182 S    
C22   C29   1.599662 S    
H13   C24   1.099325 S    
C14   C16   1.528554 S    
C29   H26   1.101968 S    
C15   H6    1.101172 S    
H9    C17   1.108201 S    
C17   C20   1.548739 S    
C31   H31   1.104871 S    
C21   C28   1.593388 S    
C34   H39   1.109066 S    
C6    C7    1.539120 S    
C24   N2    1.510871 S    
C10   C35   1.518945 S    
C34   H41   1.106605 S    
C28   H21   1.104629 S    
O1    C1    1.330883 A    
C29   H25   1.109752 S    
C5    C9    1.538272 S    
C13   Cl3   1.790323 S    
C35   H43   1.109949 S    
C6    C10   1.539681 S    
C23   H16   1.109163 S    
C6    C33   1.519011 S    
C7    C8    1.541382 S    
C7    C27   1.517872 S    
C21   N1    1.519216 S    
O3    C2    1.322962 A    
C25   C26   1.585588 S    
O8    C4    1.325533 A    
C14   Cl4   1.793547 S    
C33   H37   1.108598 S    
C11   H1    1.109623 S    
C21   C22   1.660404 S    
Cu2   N1    2.098043 S    
C35   H44   1.108720 S    
C24   H17   1.114419 S    
C5    C7    1.540937 S    
C23   C24   1.615310 S    
C19   C20   1.549857 S    
C6    C12   1.539801 S    
H8    C17   1.113307 S    
Cu2   O6    1.982125 S    
O2    Cu2   1.980413 S    
C13   C15   1.544066 S    
C31   H30   1.091801 S    
O6    C3    1.332525 A    
O4    Cu2   1.974887 S    
C14   H3    1.114595 S    
C33   H38   1.102349 S    
C23   N1    1.512610 S    
C27   H20   1.104334 S    
C29   H24   1.088079 S    
C15   H4    1.107834 S    
O2    C1    1.323751 A    
Cu1   N2    2.097121 S    
C16   H5    1.110580 S    
C14   C18   1.566494 S    
C32   H33   1.107438 S    
C32   H35   1.109631 S    
C22   N2    1.526945 S    
C35   H42   1.109736 S    
O4    C2    1.323454 A    
C30   H29   1.109850 S    
C26   H15   1.113791 S    
C16   C19   1.540430 S    
C26   Cl2   1.802246 S    
C32   H34   1.108614 S    
H11   C20   1.113533 S    
Cu1   O5    1.980848 S    
C25   H14   1.118055 S    
C10   C11   1.547317 S    
C30   H28   1.082004 S    
C33   H36   1.110031 S    
