data_mof_unit_1831.cif
_audit_creation_date              2012-12-10T19:01:20-0500
_audit_creation_method            fapswitch 2.2
_symmetry_space_group_name_H-M    P1
_symmetry_Int_Tables_number       1
_space_group_crystal_system       triclinic
_cell_length_a                    9.539335
_cell_length_b                    10.826231
_cell_length_c                    15.452091
_cell_angle_alpha                 89.495024
_cell_angle_beta                  74.472238
_cell_angle_gamma                 90.237151
_cell_volume                      1537.47479138

loop_
_atom_site_label
_atom_site_type_symbol
_atom_type_description
_atom_site_fract_x
_atom_site_fract_y
_atom_site_fract_z
_atom_type_partial_charge
C1    C     C_R   0.999003 0.262422 0.501648 0.804066
C2    C     C_R   0.675630 0.480300 0.909160 0.090980
C3    C     C_R   0.776459 0.510226 0.958638 0.159670
C4    C     C_R   0.526948 0.457538 0.955023 0.068382
C5    C     C_R   0.478120 0.479563 0.048938 0.066107
C6    C     C_R   0.582427 0.508645 0.095864 -0.201617
C7    C     C_R   0.728862 0.522189 0.051494 -0.221547
C8    C     C_R   0.426465 0.410288 0.910633 -0.219560
C9    C     C_R   0.282075 0.388750 0.956303 -0.225598
C10   C     C_R   0.231359 0.416310 0.047075 0.151646
C11   C     C_R   0.327333 0.466281 0.093553 0.094263
C12   C     C_R   0.918252 0.499660 0.672300 0.788900
C13   C     C_R   0.085769 0.391707 0.092263 -0.244493
C14   C     C_R   0.032986 0.415932 0.183795 -0.022632
C15   C     C_R   0.268875 0.501397 0.183212 -0.266404
C16   C     C_R   0.122653 0.064282 0.506075 0.030786
C17   C     C_R   0.995285 0.129383 0.509659 -0.070861
C18   C     C_R   0.863442 0.063691 0.524323 -0.186752
C19   C     C_R   0.863977 0.934836 0.523772 -0.206618
C20   C     C_R   0.996315 0.870827 0.508781 -0.068453
C21   C     C_R   0.123045 0.937229 0.506144 0.112650
C22   C     C_3   0.270980 0.931717 0.441656 -0.525126
C23   C     C_R   0.999724 0.737730 0.500954 0.800263
C24   C     C_3   0.271778 0.072566 0.442281 -0.196992
C25   C     C_R   0.590525 0.596752 0.462914 0.248461
C26   C     C_R   0.554627 0.411275 0.544722 -0.060027
C27   C     C_R   0.405659 0.411390 0.544861 -0.055850
C28   C     C_R   0.443458 0.595915 0.461913 0.258041
C29   C     C_3   0.482720 0.634738 0.365545 -0.502614
C30   C     C_3   0.640269 0.640438 0.368001 -0.487798
C31   C     C_R   0.081299 0.494169 0.327811 0.813030
C32   C     C_R   0.873070 0.499110 0.770981 -0.049299
C33   C     C_R   0.125005 0.473372 0.229889 -0.098367
C34   C     C_R   0.924130 0.528893 0.914502 -0.207899
C35   C     C_R   0.972464 0.522209 0.821229 -0.195977
C36   C     C_R   0.726407 0.478020 0.815054 -0.249860
Cu1   Cu    Cu3+1 0.140670 0.499980 0.500000 0.959854
Cu2   Cu    Cu3+1 0.859330 0.500020 0.500000 0.955829
H1    H     H_    0.805126 0.543928 0.090147 0.148556
H2    H     H_    0.014243 0.349503 0.056716 0.145468
H3    H     H_    0.761185 0.111251 0.532172 0.155599
H4    H     H_    0.761968 0.886077 0.531261 0.158056
H5    H     H_    0.352218 0.890851 0.473227 0.184935
H6    H     H_    0.268257 0.890121 0.376557 0.209650
H7    H     H_    0.352662 0.111743 0.474857 0.142654
H8    H     H_    0.594934 0.338191 0.579566 0.126146
H9    H     H_    0.334366 0.338461 0.579870 0.128044
H10   H     H_    0.462184 0.559890 0.322032 0.221048
H11   H     H_    0.333510 0.552018 0.218209 0.145997
H12   H     H_    0.438305 0.726138 0.354520 0.190963
H13   H     H_    0.710183 0.573156 0.322707 0.230676
H14   H     H_    0.684726 0.736113 0.362782 0.195579
H15   H     H_    0.209506 0.350031 0.920139 0.147200
H16   H     H_    0.001894 0.550569 0.952082 0.145621
H17   H     H_    0.086509 0.538474 0.788430 0.155990
H18   H     H_    0.652615 0.464200 0.774118 0.149431
H19   H     H_    0.555090 0.516723 0.167784 0.150650
H20   H     H_    0.457127 0.383395 0.841184 0.137054
N1    N     N_R   0.648210 0.500930 0.499430 -0.178125
N2    N     N_R   0.352300 0.500890 0.499430 -0.175844
O1    O     O_R   0.118810 0.319640 0.500000 -0.582065
O2    O     O_R   0.881230 0.319680 0.499990 -0.582172
O3    O     O_R   0.055580 0.499970 0.629840 -0.589158
O4    O     O_R   0.818000 0.500010 0.629830 -0.589599
O5    O     O_R   0.118770 0.680320 0.500010 -0.579678
O6    O     O_R   0.881190 0.680360 0.500000 -0.587336
O7    O     O_R   0.182000 0.499990 0.370170 -0.566416
O8    O     O_R   0.944420 0.500030 0.370160 -0.576038
C37   C     C_2   0.277017 0.132463 0.352757 0.905364
O9    O     O_2   0.194449 0.098660 0.309025 -0.597499
O10   O     O_R   0.376506 0.228270 0.320705 -0.744093
H21   H     H_    0.369681 0.262497 0.260687 0.333766
C38   C     C_1   0.887404 0.374110 0.228569 0.252719
N3    N     N_1   0.770948 0.339753 0.264058 -0.251725

loop_
_geom_bond_atom_site_label_1
_geom_bond_atom_site_label_2
_ccdc_geom_bond_type
C8    C9    A    
C30   H13   S    
C16   C21   A    
C38   N3    T    
C19   C20   A    
C4    C8    A    
C1    O2    A    
C14   C33   A    
C25   C28   A    
C31   O7    A    
C26   C27   A    
Cu1   Cu2   S    
C24   H7    S    
C32   C36   A    
C23   O6    A    
C28   C29   S    
C5    C11   A    
C3    C7    A    
C27   N2    A    
C5    C6    A    
C12   O4    A    
C27   H9    S    
C34   C35   A    
C37   O10   S    
C13   H2    S    
C8    H20   S    
C11   C15   A    
C22   H6    S    
Cu2   O6    S    
C16   C17   A    
Cu1   O5    S    
C31   C33   S    
C26   N1    A    
C19   H4    S    
C16   C24   S    
C21   C22   S    
C12   C32   S    
C6    H19   S    
Cu1   O3    S    
C24   C37   S    
Cu2   O4    S    
C29   H12   S    
C28   N2    A    
C31   O8    A    
C29   H10   S    
C35   H17   S    
C14   C38   S    
C18   H3    S    
C12   O3    A    
C18   C19   A    
C3    C34   A    
C2    C4    A    
C32   C35   A    
C29   C30   S    
C36   H18   S    
C22   H5    S    
C20   C23   S    
C17   C18   A    
Cu2   O8    S    
C34   H16   S    
C22   C24   S    
C9    H15   S    
C9    C10   A    
C2    C36   A    
C25   C30   S    
C30   H14   S    
C4    C5    A    
C10   C13   A    
C1    O1    A    
Cu1   O1    S    
C6    C7    A    
C1    C17   S    
C23   O5    A    
C2    C3    A    
O10   H21   S    
Cu1   O7    S    
C15   H11   S    
C37   O9    D    
Cu1   N2    S    
C10   C11   A    
C26   H8    S    
Cu2   N1    S    
C20   C21   A    
C7    H1    S    
C25   N1    A    
C13   C14   A    
C15   C33   A    
Cu2   O2    S    
