data_mof_unit_4956.cif
_audit_creation_date              2012-12-10T16:32:40-0500
_audit_creation_method            fapswitch 2.2
_symmetry_space_group_name_H-M    P1
_symmetry_Int_Tables_number       1
_space_group_crystal_system       triclinic
_cell_length_a                    17.461061
_cell_length_b                    17.461061
_cell_length_c                    17.461061
_cell_angle_alpha                 66.646762
_cell_angle_beta                  66.646754
_cell_angle_gamma                 66.646738
_cell_volume                      4302.56623779

loop_
_atom_site_label
_atom_site_type_symbol
_atom_type_description
_atom_site_fract_x
_atom_site_fract_y
_atom_site_fract_z
_atom_type_partial_charge
C1    C     C_R   0.593961 0.024658 0.594206 0.085353
C2    C     C_R   0.822551 0.564875 0.030552 0.875279
C3    C     C_R   0.184862 0.676679 0.056971 -0.171714
C4    C     C_R   0.210992 0.677743 0.970532 -0.100672
C5    C     C_R   0.249965 0.600043 0.947891 -0.009241
C6    C     C_R   0.296514 0.926163 0.544691 0.099598
C7    C     C_R   0.344345 0.843783 0.584624 -0.140370
C8    C     C_R   0.335112 0.819412 0.673317 -0.051151
C9    C     C_R   0.276478 0.876093 0.722992 -0.124847
C10   C     C_R   0.226207 0.956638 0.684679 -0.148816
C11   C     C_R   0.236876 0.982041 0.595658 -0.011569
C12   C     C_R   0.733122 0.988233 0.479451 0.101814
C13   C     C_R   0.432851 0.975429 0.176165 0.876696
C14   C     C_R   0.759356 0.901032 0.480599 -0.069058
C15   C     C_R   0.799615 0.879118 0.402251 -0.084275
C16   C     C_R   0.815137 0.943030 0.323321 -0.171713
C17   C     C_R   0.789008 0.029468 0.322256 -0.100673
C18   C     C_R   0.750035 0.052109 0.399957 -0.009241
C19   C     C_R   0.544691 0.296514 0.926163 0.099598
C20   C     C_R   0.584624 0.344344 0.843783 -0.140371
C21   C     C_R   0.673317 0.335112 0.819412 -0.051150
C22   C     C_R   0.722992 0.276478 0.876093 -0.124847
C23   C     C_R   0.684678 0.226206 0.956638 -0.148817
C24   C     C_R   0.564875 0.030551 0.822551 0.875279
C25   C     C_R   0.595658 0.236875 0.982041 -0.011569
C26   C     C_R   0.479451 0.733122 0.988233 0.101814
C27   C     C_R   0.480599 0.759356 0.901032 -0.069059
C28   C     C_R   0.402251 0.799615 0.879118 -0.084275
C29   C     C_R   0.323321 0.815137 0.943029 -0.171713
C30   C     C_R   0.322257 0.789008 0.029468 -0.100673
C31   C     C_R   0.399957 0.750035 0.052109 -0.009241
C32   C     C_R   0.926163 0.544691 0.296514 0.099598
C33   C     C_R   0.843783 0.584625 0.344344 -0.140371
C34   C     C_R   0.819412 0.673317 0.335112 -0.051151
C35   C     C_R   0.567149 0.823835 0.024571 0.876696
C36   C     C_R   0.876093 0.722992 0.276478 -0.124847
C37   C     C_R   0.956638 0.684678 0.226206 -0.148816
C38   C     C_R   0.982041 0.595658 0.236875 -0.011568
C39   C     C_R   0.988233 0.479451 0.733122 0.101814
C40   C     C_R   0.901032 0.480599 0.759356 -0.069058
C41   C     C_R   0.879118 0.402251 0.799616 -0.084275
C42   C     C_R   0.943029 0.323321 0.815137 -0.171714
C43   C     C_R   0.029468 0.322256 0.789008 -0.100672
C44   C     C_R   0.052109 0.399957 0.750035 -0.009241
C45   C     C_R   0.731336 0.062883 0.729543 0.206578
C46   C     C_R   0.435125 0.177449 0.969448 0.875280
C47   C     C_R   0.731608 0.148747 0.708502 -0.136490
C48   C     C_R   0.775171 0.167934 0.746986 -0.118290
C49   C     C_R   0.812980 0.103333 0.811049 -0.128491
C50   C     C_R   0.813193 0.017956 0.831659 -0.156717
C51   C     C_R   0.777316 0.996197 0.787472 -0.004633
C52   C     C_R   0.270457 0.937117 0.268664 0.206578
C53   C     C_R   0.212528 0.003803 0.222684 -0.004634
C54   C     C_R   0.168341 0.982044 0.186807 -0.156717
C55   C     C_R   0.188951 0.896667 0.187020 -0.128491
C56   C     C_R   0.253014 0.832066 0.224829 -0.118290
C57   C     C_R   0.024571 0.567149 0.823835 0.876695
C58   C     C_R   0.291498 0.851253 0.268392 -0.136491
C59   C     C_R   0.062883 0.729543 0.731336 0.206578
C60   C     C_R   0.996196 0.787472 0.777316 -0.004634
C61   C     C_R   0.017956 0.831659 0.813193 -0.156716
C62   C     C_R   0.103333 0.811049 0.812980 -0.128492
C63   C     C_R   0.167934 0.746986 0.775171 -0.118290
C64   C     C_R   0.148746 0.708502 0.731608 -0.136490
C65   C     C_R   0.937117 0.268664 0.270457 0.206578
C66   C     C_R   0.851253 0.268392 0.291498 -0.136490
C67   C     C_R   0.832066 0.224829 0.253014 -0.118290
C68   C     C_R   0.969448 0.435125 0.177449 0.875278
C69   C     C_R   0.896667 0.187020 0.188951 -0.128491
C70   C     C_R   0.982044 0.186807 0.168341 -0.156717
C71   C     C_R   0.003803 0.222684 0.212528 -0.004634
C72   C     C_R   0.729543 0.731336 0.062883 0.206578
C73   C     C_R   0.787472 0.777316 0.996196 -0.004634
C74   C     C_R   0.831659 0.813193 0.017956 -0.156717
C75   C     C_R   0.811049 0.812980 0.103333 -0.128492
C76   C     C_R   0.746986 0.775171 0.167934 -0.118290
C77   C     C_R   0.708502 0.731608 0.148747 -0.136491
C78   C     C_R   0.268664 0.270457 0.937117 0.206579
C79   C     C_R   0.823835 0.024570 0.567149 0.876695
C80   C     C_R   0.222684 0.212528 0.003804 -0.004634
C81   C     C_R   0.186807 0.168341 0.982044 -0.156717
C82   C     C_R   0.187020 0.188950 0.896667 -0.128491
C83   C     C_R   0.224829 0.253014 0.832066 -0.118290
C84   C     C_R   0.268392 0.291498 0.851253 -0.136490
C85   C     C_R   0.177449 0.969449 0.435125 0.875279
C86   C     C_R   0.543188 0.016461 0.544308 -0.006700
C87   C     C_R   0.405794 0.975342 0.406039 0.085353
C88   C     C_R   0.455691 0.983539 0.456812 -0.006700
C89   C     C_R   0.016461 0.544308 0.543188 -0.006700
C90   C     C_R   0.983539 0.456812 0.455692 -0.006700
C91   C     C_R   0.544308 0.543188 0.016461 -0.006700
C92   C     C_R   0.456812 0.455691 0.983539 -0.006700
C93   C     C_R   0.572660 0.025064 0.454097 0.299906
C94   C     C_R   0.413582 0.010285 0.533140 0.296968
C95   C     C_R   0.025065 0.454097 0.572660 0.299906
C96   C     C_R   0.010285 0.533140 0.413582 0.296968
C97   C     C_R   0.454097 0.572660 0.025064 0.299907
C98   C     C_R   0.024658 0.594206 0.593961 0.085353
C99   C     C_R   0.533140 0.413582 0.010285 0.296968
C100  C     C_R   0.545903 0.974935 0.427340 0.299906
C101  C     C_R   0.466860 0.989715 0.586418 0.296968
C102  C     C_R   0.427340 0.545903 0.974936 0.299906
C103  C     C_R   0.586418 0.466860 0.989715 0.296968
C104  C     C_R   0.974936 0.427340 0.545903 0.299906
C105  C     C_R   0.989715 0.586418 0.466860 0.296968
C106  C     C_R   0.551491 0.041418 0.677155 -0.023218
C107  C     C_R   0.439319 0.985841 0.314928 -0.051140
C108  C     C_R   0.041418 0.677155 0.551491 -0.023218
C109  C     C_R   0.975342 0.406039 0.405794 0.085353
C110  C     C_R   0.985841 0.314928 0.439319 -0.051140
C111  C     C_R   0.677155 0.551491 0.041418 -0.023218
C112  C     C_R   0.314928 0.439319 0.985841 -0.051140
C113  C     C_R   0.322845 0.958582 0.448509 -0.023218
C114  C     C_R   0.685072 0.014159 0.560681 -0.051140
C115  C     C_R   0.448509 0.322845 0.958582 -0.023218
C116  C     C_R   0.560681 0.685072 0.014159 -0.051139
C117  C     C_R   0.958582 0.448509 0.322845 -0.023218
C118  C     C_R   0.014159 0.560681 0.685072 -0.051140
C119  C     C_R   0.600510 0.039856 0.727205 -0.155096
C120  C     C_R   0.594206 0.593961 0.024658 0.085353
C121  C     C_R   0.395631 0.971230 0.269973 -0.159698
C122  C     C_R   0.039856 0.727205 0.600510 -0.155096
C123  C     C_R   0.971230 0.269973 0.395631 -0.159698
C124  C     C_R   0.727205 0.600510 0.039856 -0.155096
C125  C     C_R   0.269973 0.395631 0.971230 -0.159698
C126  C     C_R   0.272795 0.960144 0.399489 -0.155096
C127  C     C_R   0.730027 0.028770 0.604369 -0.159698
C128  C     C_R   0.399489 0.272795 0.960144 -0.155097
C129  C     C_R   0.604369 0.730026 0.028770 -0.159698
C130  C     C_R   0.960144 0.399489 0.272795 -0.155096
C131  C     C_R   0.406039 0.405794 0.975342 0.085353
C132  C     C_R   0.028770 0.604369 0.730027 -0.159698
C133  C     C_R   0.686868 0.042091 0.686759 -0.122159
C134  C     C_R   0.313241 0.957909 0.313132 -0.122159
C135  C     C_R   0.042091 0.686759 0.686868 -0.122159
C136  C     C_R   0.957909 0.313132 0.313241 -0.122159
C137  C     C_R   0.686759 0.686868 0.042091 -0.122159
C138  C     C_R   0.313132 0.313241 0.957909 -0.122159
C139  C     C_R   0.455309 0.073837 0.703486 0.099598
C140  C     C_R   0.415375 0.156217 0.655655 -0.140371
C141  C     C_R   0.326683 0.180588 0.664888 -0.051151
C142  C     C_R   0.975430 0.176165 0.432851 0.876695
C143  C     C_R   0.277008 0.123907 0.723522 -0.124847
C144  C     C_R   0.315321 0.043361 0.773794 -0.148817
C145  C     C_R   0.404342 0.017958 0.763125 -0.011569
C146  C     C_R   0.520549 0.011766 0.266878 0.101814
C147  C     C_R   0.519401 0.098968 0.240644 -0.069058
C148  C     C_R   0.597749 0.120882 0.200384 -0.084274
C149  C     C_R   0.676679 0.056971 0.184862 -0.171714
C150  C     C_R   0.677744 0.970532 0.210992 -0.100673
C151  C     C_R   0.600043 0.947891 0.249965 -0.009241
C152  C     C_R   0.073837 0.703486 0.455309 0.099598
C153  C     C_R   0.030551 0.822551 0.564875 0.875279
C154  C     C_R   0.156217 0.655655 0.415376 -0.140370
C155  C     C_R   0.180588 0.664888 0.326683 -0.051151
C156  C     C_R   0.123907 0.723522 0.277008 -0.124846
C157  C     C_R   0.043362 0.773794 0.315321 -0.148817
C158  C     C_R   0.017959 0.763124 0.404342 -0.011569
C159  C     C_R   0.011766 0.266877 0.520549 0.101814
C160  C     C_R   0.098968 0.240643 0.519401 -0.069058
C161  C     C_R   0.120882 0.200384 0.597749 -0.084275
C162  C     C_R   0.056970 0.184862 0.676679 -0.171714
C163  C     C_R   0.970532 0.210992 0.677744 -0.100673
C164  C     C_R   0.176165 0.432851 0.975429 0.876695
C165  C     C_R   0.947890 0.249965 0.600043 -0.009241
C166  C     C_R   0.703486 0.455309 0.073837 0.099598
C167  C     C_R   0.655655 0.415376 0.156217 -0.140370
C168  C     C_R   0.664888 0.326683 0.180588 -0.051150
C169  C     C_R   0.723522 0.277008 0.123907 -0.124846
C170  C     C_R   0.773793 0.315321 0.043362 -0.148817
C171  C     C_R   0.763124 0.404342 0.017959 -0.011569
C172  C     C_R   0.266877 0.520549 0.011767 0.101814
C173  C     C_R   0.240644 0.519400 0.098968 -0.069059
C174  C     C_R   0.200384 0.597749 0.120882 -0.084275
Cl1   Cl    Cl    0.488675 0.883164 0.654596 -0.663513
Cl2   Cl    Cl    0.390547 0.563574 0.133919 -0.655021
Cl3   Cl    Cl    0.116836 0.511325 0.345404 -0.663513
Cl4   Cl    Cl    0.133919 0.390547 0.563574 -0.655021
Cl5   Cl    Cl    0.609453 0.866081 0.436426 -0.655021
Cl6   Cl    Cl    0.883164 0.654596 0.488675 -0.663513
Cl7   Cl    Cl    0.866081 0.436426 0.609453 -0.655021
Cl8   Cl    Cl    0.654596 0.488675 0.883164 -0.663513
Cl9   Cl    Cl    0.436426 0.609453 0.866081 -0.655021
Cl10  Cl    Cl    0.345404 0.116836 0.511325 -0.663513
Cl11  Cl    Cl    0.563574 0.133919 0.390547 -0.655021
Cl12  Cl    Cl    0.511325 0.345404 0.116836 -0.663513
H1    H     H_    0.453833 0.199350 0.607812 0.160158
H2    H     H_    0.600816 0.880578 0.270301 0.139549
H3    H     H_    0.199350 0.607811 0.453833 0.160157
H4    H     H_    0.243175 0.626086 0.296423 0.194787
H5    H     H_    0.143486 0.732079 0.208220 0.105468
H6    H     H_    0.999995 0.819463 0.276429 0.110991
H7    H     H_    0.953339 0.798211 0.434638 0.166862
H8    H     H_    0.149074 0.253593 0.458644 0.187971
H9    H     H_    0.186956 0.183479 0.597628 0.209345
H10   H     H_    0.073547 0.154136 0.737434 0.101052
H11   H     H_    0.921285 0.203603 0.739023 0.109761
H12   H     H_    0.296423 0.243174 0.626086 0.194787
H13   H     H_    0.880578 0.270301 0.600816 0.139549
H14   H     H_    0.607812 0.453833 0.199350 0.160157
H15   H     H_    0.626086 0.296423 0.243175 0.194787
H16   H     H_    0.732079 0.208220 0.143486 0.105468
H17   H     H_    0.819463 0.276429 0.999995 0.110991
H18   H     H_    0.798211 0.434637 0.953339 0.166862
H19   H     H_    0.253593 0.458644 0.149074 0.187971
H20   H     H_    0.183479 0.597627 0.186956 0.209345
H21   H     H_    0.154136 0.737434 0.073547 0.101053
H22   H     H_    0.203602 0.739023 0.921286 0.109761
H23   H     H_    0.208219 0.143486 0.732080 0.105468
H24   H     H_    0.270301 0.600816 0.880578 0.139549
H25   H     H_    0.392188 0.800650 0.546166 0.160157
H26   H     H_    0.373914 0.756825 0.703577 0.194787
H27   H     H_    0.267921 0.856513 0.791780 0.105468
H28   H     H_    0.180537 0.000005 0.723571 0.110991
H29   H     H_    0.201789 0.046661 0.565363 0.166862
H30   H     H_    0.746407 0.850926 0.541356 0.187971
H31   H     H_    0.816521 0.813044 0.402372 0.209345
H32   H     H_    0.845864 0.926453 0.262566 0.101052
H33   H     H_    0.796397 0.078714 0.260977 0.109762
H34   H     H_    0.276429 0.999994 0.819463 0.110991
H35   H     H_    0.729698 0.119422 0.399184 0.139549
H36   H     H_    0.546167 0.392188 0.800650 0.160157
H37   H     H_    0.703577 0.373914 0.756825 0.194787
H38   H     H_    0.791780 0.267921 0.856514 0.105468
H39   H     H_    0.723571 0.180537 0.000005 0.110991
H40   H     H_    0.565362 0.201789 0.046661 0.166862
H41   H     H_    0.541356 0.746407 0.850926 0.187971
H42   H     H_    0.402373 0.816521 0.813044 0.209345
H43   H     H_    0.262566 0.845864 0.926453 0.101052
H44   H     H_    0.260977 0.796398 0.078714 0.109762
H45   H     H_    0.434638 0.953339 0.798211 0.166862
H46   H     H_    0.399184 0.729699 0.119422 0.139549
H47   H     H_    0.800650 0.546167 0.392188 0.160158
H48   H     H_    0.756825 0.703577 0.373914 0.194787
H49   H     H_    0.856514 0.791780 0.267920 0.105468
H50   H     H_    0.000006 0.723571 0.180537 0.110991
H51   H     H_    0.046661 0.565362 0.201789 0.166862
H52   H     H_    0.850926 0.541356 0.746407 0.187971
H53   H     H_    0.813044 0.402372 0.816521 0.209345
H54   H     H_    0.926453 0.262566 0.845864 0.101053
H55   H     H_    0.078714 0.260977 0.796398 0.109761
H56   H     H_    0.458644 0.149074 0.253593 0.187971
H57   H     H_    0.119422 0.399184 0.729699 0.139549
H58   H     H_    0.700032 0.199945 0.661068 0.116272
H59   H     H_    0.778838 0.233234 0.727125 0.126103
H60   H     H_    0.842312 0.118591 0.845250 0.100812
H61   H     H_    0.839996 0.969667 0.882752 0.093981
H62   H     H_    0.779165 0.929122 0.802697 0.087524
H63   H     H_    0.197303 0.070878 0.220835 0.087524
H64   H     H_    0.117248 0.030333 0.160004 0.093981
H65   H     H_    0.154750 0.881409 0.157688 0.100812
H66   H     H_    0.272875 0.766766 0.221161 0.126103
H67   H     H_    0.597627 0.186956 0.183479 0.209345
H68   H     H_    0.338932 0.800055 0.299967 0.116272
H69   H     H_    0.929122 0.802697 0.779165 0.087524
H70   H     H_    0.969667 0.882752 0.839996 0.093981
H71   H     H_    0.118591 0.845250 0.842312 0.100812
H72   H     H_    0.233234 0.727125 0.778839 0.126103
H73   H     H_    0.199945 0.661068 0.700032 0.116272
H74   H     H_    0.800055 0.299967 0.338932 0.116272
H75   H     H_    0.766765 0.221162 0.272875 0.126103
H76   H     H_    0.881409 0.157688 0.154750 0.100812
H77   H     H_    0.030333 0.160004 0.117248 0.093981
H78   H     H_    0.737434 0.073547 0.154136 0.101052
H79   H     H_    0.070878 0.220835 0.197303 0.087524
H80   H     H_    0.802697 0.779165 0.929122 0.087524
H81   H     H_    0.882752 0.839996 0.969667 0.093981
H82   H     H_    0.845250 0.842312 0.118590 0.100812
H83   H     H_    0.727126 0.778838 0.233234 0.126103
H84   H     H_    0.661068 0.700032 0.199945 0.116272
H85   H     H_    0.220835 0.197303 0.070878 0.087524
H86   H     H_    0.160004 0.117248 0.030333 0.093981
H87   H     H_    0.157688 0.154750 0.881409 0.100812
H88   H     H_    0.221161 0.272874 0.766766 0.126103
H89   H     H_    0.739023 0.921286 0.203602 0.109761
H90   H     H_    0.299967 0.338932 0.800055 0.116272
O1    O     O_R   0.982940 0.138950 0.510160 -0.630843
O2    O     O_R   0.982940 0.510160 0.138950 -0.639313
O3    O     O_R   0.861050 0.017060 0.489840 -0.630842
O4    O     O_R   0.138950 0.982940 0.510160 -0.639313
O5    O     O_R   0.867700 0.025880 0.612340 -0.627210
O6    O     O_R   0.132300 0.974120 0.387660 -0.627988
O7    O     O_R   0.025880 0.612340 0.867700 -0.627210
O8    O     O_R   0.974120 0.387660 0.132300 -0.627988
O9    O     O_R   0.612340 0.867700 0.025880 -0.627210
O10   O     O_R   0.387660 0.132300 0.974120 -0.627988
O11   O     O_R   0.387660 0.974120 0.132300 -0.627210
O12   O     O_R   0.017060 0.861050 0.489840 -0.639313
O13   O     O_R   0.612340 0.025880 0.867700 -0.627988
O14   O     O_R   0.132300 0.387660 0.974120 -0.627210
O15   O     O_R   0.867700 0.612340 0.025880 -0.627988
O16   O     O_R   0.974120 0.132300 0.387660 -0.627210
O17   O     O_R   0.025880 0.867700 0.612340 -0.627988
O18   O     O_R   0.138950 0.510160 0.982940 -0.630843
O19   O     O_R   0.861050 0.489840 0.017060 -0.639313
O20   O     O_R   0.510160 0.982940 0.138950 -0.630843
O21   O     O_R   0.489840 0.017060 0.861050 -0.639313
O22   O     O_R   0.489840 0.861050 0.017060 -0.630843
O23   O     O_R   0.510160 0.138950 0.982940 -0.639313
O24   O     O_R   0.017060 0.489840 0.861050 -0.630842
Zn1   Zn    Zn3+2 0.004880 0.004880 0.583590 0.965405
Zn2   Zn    Zn3+2 0.995120 0.995120 0.416410 0.965405
Zn3   Zn    Zn3+2 0.004880 0.583590 0.004880 0.965405
Zn4   Zn    Zn3+2 0.995120 0.416410 0.995120 0.965405
Zn5   Zn    Zn3+2 0.583590 0.004880 0.004880 0.965405
Zn6   Zn    Zn3+2 0.416410 0.995120 0.995120 0.965404

loop_
_geom_bond_atom_site_label_1
_geom_bond_atom_site_label_2
_ccdc_geom_bond_type
C99   C103  A    
C157  C158  A    
C19   C20   A    
C87   C88   S    
C57   O24   A    
C28   H42   S    
C143  H23   S    
C36   H49   S    
C5    H24   S    
C163  C165  A    
C68   O2    A    
O13   Zn5   S    
C143  C144  A    
C98   C108  A    
C73   C74   A    
C167  H14   S    
C83   H88   S    
C24   O13   A    
C17   H33   S    
C92   C102  A    
C104  Cl7   S    
C59   C60   A    
C21   C22   A    
C142  O1    A    
C23   H39   S    
C4    H22   S    
C45   C47   A    
C151  H2    S    
C158  H7    S    
C46   O10   A    
C124  C137  A    
C140  C141  A    
C63   H72   S    
C6    C11   A    
C42   H54   S    
C144  C145  A    
C9    H27   S    
C77   H84   S    
C166  C171  A    
C75   C76   A    
C37   C38   A    
C110  C123  A    
C76   H83   S    
C148  C149  A    
C93   C100  A    
C90   C104  A    
O18   Zn3   S    
C52   C58   A    
C168  C169  A    
C154  H3    S    
C84   H90   S    
C146  C147  A    
C79   C127  S    
C13   O20   A    
C21   H37   S    
C111  C124  A    
C140  H1    S    
C2    O19   A    
C91   C103  A    
C72   C73   A    
C87   C107  A    
C139  C140  A    
C6    C7    A    
C125  C138  A    
C79   O5    A    
C39   C118  S    
C45   C133  S    
C3    H21   S    
C164  O14   A    
C57   O7    A    
C27   H41   S    
C106  C139  S    
C58   H68   S    
C112  C131  A    
C69   C70   A    
C87   C113  A    
C73   H80   S    
O6    Zn2   S    
C116  C120  A    
C129  C137  A    
C20   C21   A    
C126  C134  A    
C155  C156  A    
C174  H20   S    
C22   C23   A    
C149  C150  A    
C52   C134  S    
C147  C148  A    
C32   C117  S    
C7    C8    A    
C53   C54   A    
O4    Zn1   S    
C36   C37   A    
C144  H34   S    
C66   H74   S    
C47   H58   S    
C78   C80   A    
C170  C171  A    
C171  H18   S    
C18   H35   S    
C128  C138  A    
C40   H52   S    
C169  H16   S    
C13   O11   A    
C35   O9    A    
C16   H32   S    
C9    C10   A    
O2    Zn3   S    
O3    Zn2   S    
C85   C126  S    
C67   H75   S    
C98   C118  A    
C12   C114  S    
C142  O16   A    
C88   C94   A    
C39   C40   A    
C107  C146  S    
O23   Zn5   S    
C113  C126  A    
C22   H38   S    
C81   H86   S    
C115  C128  A    
C159  C165  A    
C29   C30   A    
C86   C93   A    
C13   C121  S    
C74   H81   S    
C3    C174  A    
C83   C84   A    
C17   C18   A    
C14   H30   S    
C68   C130  S    
C96   Cl3   S    
C122  C153  S    
C101  Cl1   S    
C125  C164  S    
O11   Zn6   S    
O17   Zn1   S    
C3    C4    A    
C33   H47   S    
C52   C53   A    
C48   H59   S    
C1    C86   S    
C35   O22   A    
C54   C55   A    
C72   C137  S    
C49   H60   S    
C12   C14   A    
C7    H25   S    
C90   C96   A    
C39   C44   A    
C2    C124  S    
C89   C98   S    
C29   H43   S    
C24   O21   A    
C5    C172  A    
C56   C58   A    
C34   C36   A    
C61   C62   A    
C118  C132  A    
C10   C11   A    
C63   C64   A    
C156  H5    S    
C4    C5    A    
C163  H11   S    
C49   C50   A    
C89   C105  A    
C14   C15   A    
C90   C109  S    
C8    H26   S    
C92   C99   A    
C11   H29   S    
C68   O8    A    
C96   C105  A    
C106  C119  A    
C41   C42   A    
C57   C132  S    
O15   Zn3   S    
C164  O18   A    
C161  C162  A    
C109  C117  A    
O9    Zn5   S    
C172  C173  A    
C26   C27   A    
C102  Cl9   S    
C28   C29   A    
C141  C143  A    
C30   C31   A    
O20   Zn5   S    
C161  H9    S    
C108  C152  S    
O8    Zn4   S    
C16   C17   A    
C70   C71   A    
C121  C134  A    
C15   H31   S    
C97   C102  A    
C64   H73   S    
C145  H45   S    
C94   Cl10  S    
O1    Zn1   S    
C75   H82   S    
C152  C158  A    
C82   H87   S    
C46   O23   A    
C167  C168  A    
C10   H28   S    
C60   C61   A    
C89   C95   A    
C62   C63   A    
C155  H4    S    
C95   Cl4   S    
C159  C160  A    
C31   H46   S    
C50   C51   A    
C54   H64   S    
C91   C97   A    
C62   H71   S    
C170  H17   S    
C88   C100  A    
C48   C49   A    
C85   O6    A    
O14   Zn4   S    
C141  H12   S    
C107  C121  A    
C50   H61   S    
C162  C163  A    
C41   H53   S    
C24   C119  S    
O12   Zn2   S    
C127  C133  A    
C69   H76   S    
C80   H85   S    
C32   C33   A    
C51   H62   S    
C157  H6    S    
C109  C110  A    
C114  C127  A    
C112  C172  S    
C56   H66   S    
C123  C142  S    
C59   C135  S    
C122  C135  A    
C65   C136  S    
C79   O3    A    
C82   C83   A    
C162  H10   S    
C173  H19   S    
C99   Cl12  S    
O24   Zn4   S    
C93   Cl11  S    
C103  Cl8   S    
C169  C170  A    
C43   C44   A    
C81   C82   A    
C115  C131  A    
C173  C174  A    
C43   H55   S    
C59   C64   A    
C119  C133  A    
C46   C128  S    
C156  C157  A    
C165  H13   S    
C55   C56   A    
C45   C51   A    
C15   C16   A    
C25   H40   S    
C168  H15   S    
C116  C129  A    
C94   C101  A    
C8    C9    A    
O16   Zn2   S    
C32   C38   A    
C35   C129  S    
C149  H78   S    
C1    C106  A    
O10   Zn6   S    
C148  H67   S    
C71   H79   S    
C97   Cl2   S    
C1    C114  A    
C78   C138  S    
C70   H77   S    
C74   C75   A    
C92   C131  S    
C76   C77   A    
C147  H56   S    
C153  O17   A    
C65   C71   A    
C60   H69   S    
C146  C151  A    
C111  C120  A    
C67   C69   A    
C2    O15   A    
C6    C113  S    
C72   C77   A    
C47   C48   A    
C19   C115  S    
C153  O12   A    
C33   C34   A    
C154  C155  A    
C85   O4    A    
C111  C166  S    
C53   H63   S    
C117  C130  A    
C150  H89   S    
O22   Zn6   S    
C40   C41   A    
C152  C154  A    
C61   H70   S    
C166  C167  A    
C55   H65   S    
C105  Cl6   S    
C34   H48   S    
O5    Zn1   S    
O21   Zn6   S    
C95   C104  A    
C37   H50   S    
C160  H8    S    
O7    Zn3   S    
C139  C145  A    
C150  C151  A    
C130  C136  A    
C108  C122  A    
C80   C81   A    
C123  C136  A    
C160  C161  A    
C30   H44   S    
C38   H51   S    
C100  Cl5   S    
C132  C135  A    
C66   C67   A    
C23   C25   A    
C19   C25   A    
C26   C116  S    
C78   C84   A    
C26   C31   A    
C65   C66   A    
C42   C43   A    
C12   C18   A    
C27   C28   A    
C20   H36   S    
C91   C120  S    
C112  C125  A    
C86   C101  A    
C110  C159  S    
C44   H57   S    
O19   Zn4   S    
