data_mof_unit_420.cif
_audit_creation_date              2012-12-11T14:19:31-0500
_audit_creation_method            fapswitch 2.2
_symmetry_space_group_name_H-M    P1
_symmetry_Int_Tables_number       1
_space_group_crystal_system       triclinic
_cell_length_a                    19.427556
_cell_length_b                    7.229681
_cell_length_c                    17.817257
_cell_angle_alpha                 90.01938
_cell_angle_beta                  107.84544
_cell_angle_gamma                 89.951342
_cell_volume                      2382.11776715

loop_
_atom_site_label
_atom_site_type_symbol
_atom_type_description
_atom_site_fract_x
_atom_site_fract_y
_atom_site_fract_z
_atom_type_partial_charge
O1    O     O_R   0.414820 0.494320 0.416790 -0.517575
O2    O     O_R   0.585180 0.994320 0.583210 -0.519389
O3    O     O_R   0.560270 0.819500 0.430140 -0.543276
O4    O     O_R   0.439730 0.319500 0.569860 -0.516114
C1    C     C_R   0.582283 0.655194 0.415940 0.718768
C2    C     C_R   0.417496 0.155974 0.583795 0.714135
O5    O     O_R   0.413840 0.823740 0.407440 -0.559649
O6    O     O_R   0.586160 0.323740 0.592560 -0.556863
O7    O     O_R   0.437710 0.998590 0.560350 -0.543744
O8    O     O_R   0.562290 0.498590 0.439650 -0.514232
C3    C     C_R   0.388835 0.654440 0.383906 0.622334
C4    C     C_R   0.611035 0.154423 0.616244 0.628617
O9    O     O_3   0.508000 0.662290 0.550200 -0.374424
O10   O     O_3   0.492000 0.162290 0.449800 -0.371294
V1    V     V_3+5 0.498520 0.935380 0.490690 1.435853
V2    V     V_3+5 0.501480 0.435380 0.509310 1.479721
C5    C     C_2   0.783683 0.268235 0.789893 -0.114539
C6    C     C_2   0.215742 0.768173 0.210792 -0.116206
C7    C     C_2   0.823752 0.114316 0.813993 -0.263707
C8    C     C_2   0.175962 0.614121 0.186291 -0.264910
H1    H     H_    0.800400 0.396883 0.821711 0.142158
H2    H     H_    0.198925 0.897005 0.179138 0.141908
H3    H     H_    0.810812 0.987426 0.780349 0.192880
H4    H     H_    0.188923 0.487025 0.219780 0.192602
C9    C     C_2   0.718723 0.278204 0.718567 -0.242381
C10   C     C_2   0.280627 0.777951 0.282202 -0.239697
C11   C     C_2   0.673406 0.135526 0.689133 0.259417
C12   C     C_2   0.326205 0.635446 0.311325 0.258266
H5    H     H_    0.706410 0.413324 0.691099 0.120750
H6    H     H_    0.292876 0.912993 0.309757 0.124115
C13   C     C_R   0.317827 0.301357 0.628042 0.381040
C14   C     C_R   0.679827 0.490615 0.374105 0.386097
C15   C     C_R   0.365023 0.150451 0.629680 -0.182881
C16   C     C_R   0.633952 0.645803 0.369144 -0.183436
C17   C     C_R   0.361303 0.993559 0.674923 -0.275297
C18   C     C_R   0.638855 0.795070 0.320315 -0.276765
C19   C     C_R   0.313782 0.988031 0.720544 0.107317
C20   C     C_R   0.686740 0.789718 0.275222 0.102863
C21   C     C_R   0.268138 0.140372 0.720498 0.011437
C22   C     C_R   0.730979 0.632982 0.278575 0.011625
C23   C     C_R   0.270032 0.296484 0.673977 -0.032436
C24   C     C_R   0.727208 0.483349 0.327747 -0.033678
C25   C     C_R   0.311676 0.832815 0.766904 -0.179687
C26   C     C_R   0.690774 0.938673 0.226383 -0.180806
C27   C     C_R   0.264875 0.828001 0.812781 -0.159022
C28   C     C_R   0.738220 0.932953 0.181274 -0.148161
C29   C     C_R   0.219158 0.978210 0.813201 0.123828
C30   C     C_R   0.782574 0.778130 0.184054 0.126481
C31   C     C_R   0.220698 0.136316 0.767190 -0.039647
C32   C     C_R   0.779030 0.626305 0.232692 -0.039658
C33   C     C_R   0.174813 0.289092 0.767534 -0.029775
C34   C     C_R   0.823596 0.469137 0.235867 -0.027443
C35   C     C_R   0.174414 0.441316 0.717070 0.351494
C36   C     C_R   0.821434 0.322415 0.288077 0.357056
C37   C     C_R   0.223083 0.444619 0.672740 -0.264379
C38   C     C_R   0.772081 0.329682 0.331399 -0.267255
C39   C     C_R   0.172079 0.971640 0.859007 -0.261874
C40   C     C_R   0.830057 0.773564 0.138637 -0.266964
C41   C     C_R   0.127429 0.122568 0.862037 -0.139860
C42   C     C_R   0.873375 0.617758 0.139019 -0.141808
C43   C     C_R   0.129816 0.283221 0.817413 0.331848
C44   C     C_R   0.869577 0.464325 0.187270 0.332037
H7    H     H_    0.396610 0.876697 0.675948 0.163475
H8    H     H_    0.604686 0.915514 0.316656 0.163620
H9    H     H_    0.346240 0.714650 0.767639 0.134822
H10   H     H_    0.657283 0.060173 0.223176 0.129420
H11   H     H_    0.264261 0.705942 0.847869 0.115895
H12   H     H_    0.740379 0.050383 0.144270 0.109731
H13   H     H_    0.171605 0.849674 0.894212 0.133916
H14   H     H_    0.831840 0.890385 0.101148 0.136057
H15   H     H_    0.223322 0.564160 0.636296 0.167317
H16   H     H_    0.769576 0.213846 0.368832 0.167329
O11   O     O_R   0.937810 0.773680 0.060480 -0.543427
O12   O     O_R   0.062190 0.273680 0.939520 -0.513916
O13   O     O_R   0.086190 0.439740 0.092580 -0.540625
O14   O     O_R   0.913810 0.939740 0.907420 -0.543766
C45   C     C_R   0.111776 0.608485 0.115399 0.704575
C46   C     C_R   0.888146 0.108539 0.884681 0.703973
O15   O     O_R   0.939760 0.444210 0.069890 -0.517767
O16   O     O_R   0.060240 0.944210 0.930110 -0.546365
O17   O     O_R   0.914790 0.269640 0.916760 -0.535674
O18   O     O_R   0.085210 0.769640 0.083240 -0.539619
C47   C     C_R   0.920207 0.612271 0.086326 0.731306
C48   C     C_R   0.080086 0.112910 0.914038 0.734908
O19   O     O_3   0.992050 0.601530 0.949880 -0.367841
O20   O     O_3   0.007950 0.101530 0.050120 -0.373584
V3    V     V_3+5 0.001480 0.328340 0.009300 1.487690
V4    V     V_3+5 0.998520 0.828340 0.990700 1.444506
O21   O     O_3   0.087463 0.432110 0.822988 -0.600334
H17   H     H_    0.120722 0.538578 0.840157 0.309173
O22   O     O_3   0.911491 0.311206 0.186587 -0.599549
H18   H     H_    0.877393 0.206924 0.167818 0.308595
O23   O     O_3   0.125055 0.583403 0.709569 -0.625759
H19   H     H_    0.132478 0.678053 0.672521 0.295577
O24   O     O_3   0.868790 0.174953 0.298013 -0.623688
H20   H     H_    0.859543 0.085135 0.335871 0.294860
O25   O     O_3   0.685858 0.963226 0.724756 -0.549048
C49   C     C_3   0.639776 0.940896 0.771828 0.122009
H21   H     H_    0.581836 0.946988 0.735454 0.104202
H22   H     H_    0.650566 0.049266 0.818509 0.113166
C50   C     C_3   0.653873 0.752687 0.811786 -0.720235
H23   H     H_    0.711293 0.742209 0.848823 0.214322
H24   H     H_    0.618553 0.733993 0.849804 0.170511
H25   H     H_    0.642075 0.641367 0.766653 0.220289
O26   O     O_3   0.313682 0.463016 0.275827 -0.550497
C51   C     C_3   0.359387 0.440389 0.228340 0.121200
H26   H     H_    0.417426 0.446958 0.264327 0.107044
H27   H     H_    0.348150 0.548322 0.181467 0.113391
C52   C     C_3   0.345334 0.251769 0.188736 -0.720637
H28   H     H_    0.287812 0.240801 0.152093 0.214090
H29   H     H_    0.380347 0.232790 0.150387 0.170451
H30   H     H_    0.357565 0.140900 0.234069 0.220419
O27   O     O_3   0.319938 0.457798 0.583948 -0.551767
C53   C     C_3   0.270649 0.436961 0.507383 0.093522
H31   H     H_    0.220229 0.362076 0.506813 0.110213
H32   H     H_    0.297117 0.360372 0.469589 0.137971
C54   C     C_3   0.248579 0.627696 0.472014 -0.689570
H33   H     H_    0.297218 0.711712 0.475477 0.216543
H34   H     H_    0.215204 0.614123 0.409343 0.188381
H35   H     H_    0.216471 0.700411 0.504929 0.208063
O28   O     O_3   0.677834 0.343265 0.423091 -0.549393
C55   C     C_3   0.729533 0.371618 0.497833 0.089469
H36   H     H_    0.703752 0.447023 0.536548 0.128650
H37   H     H_    0.777942 0.451756 0.495355 0.112144
C56   C     C_3   0.756161 0.184698 0.534845 -0.696616
H38   H     H_    0.788470 0.114623 0.501503 0.207038
H39   H     H_    0.790810 0.204085 0.596695 0.191042
H40   H     H_    0.709714 0.094838 0.534072 0.222985

loop_
_geom_bond_atom_site_label_1
_geom_bond_atom_site_label_2
_ccdc_geom_bond_type
O15   C47   A    
O4    V2    S    
C50   H23   S    
C26   H10   S    
O24   H20   S    
O1    C3    A    
O16   C48   A    
O2    C4    A    
C2    O7    A    
O15   V3    S    
C53   H31   S    
C29   C31   A    
C20   C26   A    
O23   H19   S    
C8    C45   S    
C45   O18   A    
C17   C19   A    
O14   C46   A    
C54   H34   S    
C42   C47   S    
C22   C32   A    
C39   C41   A    
C51   H26   S    
C40   C42   A    
C42   C44   A    
O6    V2    S    
C27   C29   A    
C23   C37   A    
C24   C38   A    
C6    C10   S    
C17   H7    S    
C8    H4    S    
C26   C28   A    
C38   H16   S    
C33   C43   A    
C27   H11   S    
C56   H40   S    
C32   C34   A    
C13   C15   A    
O12   V3    S    
O14   V4    S    
C16   C18   A    
O6    C4    A    
C34   C36   A    
C30   C32   A    
C50   H24   S    
C1    C16   S    
C43   O21   S    
O25   C49   S    
C28   C30   A    
C55   H36   S    
C35   C37   A    
C9    H5    S    
C36   C38   A    
C41   C43   A    
C4    C11   S    
C35   O23   S    
C41   C48   S    
C21   C23   A    
C54   H35   S    
O22   H18   S    
O20   V3    S    
C40   H14   S    
C31   C33   A    
C5    H1    S    
C33   C35   A    
C14   C16   A    
C19   C25   A    
C7    C46   S    
C7    H3    S    
O11   V4    S    
C28   H12   S    
C29   C39   A    
O13   C45   A    
O5    C3    A    
C12   O26   S    
C25   H9    S    
C44   O22   S    
C36   O24   S    
O1    V2    S    
O2    V1    S    
C25   C27   A    
O28   C55   S    
O17   V3    S    
O4    C2    A    
C21   C31   A    
C10   H6    S    
C50   H25   S    
C49   H22   S    
C56   H38   S    
C52   H30   S    
C55   H37   S    
C18   C20   A    
O3    V1    S    
O27   C53   S    
O19   V4    S    
O13   V3    S    
C11   O25   S    
C13   C23   A    
C6    H2    S    
C14   O28   S    
O12   C48   A    
C22   C24   A    
O3    C1    A    
C53   H32   S    
C30   C40   A    
C9    C11   D    
C49   C50   S    
O26   C51   S    
C10   C12   D    
C2    C15   S    
C5    C9    S    
C55   C56   S    
C52   H29   S    
O7    V1    S    
C1    O8    A    
C19   C21   A    
C34   C44   A    
C54   H33   S    
C20   C22   A    
C46   O17   A    
C51   H27   S    
C3    C12   S    
O18   V4    S    
O5    V1    S    
C15   C17   A    
O11   C47   A    
C6    C8    D    
C53   C54   S    
C5    C7    D    
O16   V4    S    
C49   H21   S    
O9    V2    S    
C52   H28   S    
C56   H39   S    
C14   C24   A    
O10   V1    S    
O8    V2    S    
C39   H13   S    
O21   H17   S    
C18   H8    S    
C13   O27   S    
C37   H15   S    
C51   C52   S    
