data_mof_unit_4702.cif
_audit_creation_date              2013-03-05T15:46:31-0500
_audit_creation_method            fapswitch 2.2
_symmetry_space_group_name_H-M    P1
_symmetry_Int_Tables_number       1
_space_group_crystal_system       triclinic
_cell_length_a                    6.934286
_cell_length_b                    16.710655
_cell_length_c                    17.153075
_cell_angle_alpha                 100.311623
_cell_angle_beta                  91.890881
_cell_angle_gamma                 89.212031
_cell_volume                      1954.40774262

loop_
_atom_site_label
_atom_site_type_symbol
_atom_site_description
_atom_site_fract_x
_atom_site_fract_y
_atom_site_fract_z
_atom_type_partial_charge
O1    O     O_R   0.506180 0.438940 0.579430 -0.595444
O2    O     O_R   0.170520 0.406230 0.413590 -0.590437
O3    O     O_R   0.005180 0.561060 0.420570 -0.597107
C1    C     C_R   0.338804 0.383202 0.385068 0.936097
O4    O     O_R   0.176140 0.429310 0.578370 -0.588720
O5    O     O_R   0.010830 0.584300 0.586530 -0.592183
C2    C     C_R   0.349308 0.413793 0.605033 0.932563
O6    O     O_R   0.500520 0.415700 0.413470 -0.584375
O7    O     O_3   0.340830 0.550820 0.502480 -0.277691
V1    V     V_3+5 0.064040 0.490570 0.499540 1.172275
O8    O     O_R   0.681400 0.593770 0.586410 -0.594244
C3    C     C_R   0.851476 0.617089 0.614020 0.934106
O9    O     O_R   0.675790 0.570690 0.421630 -0.606815
C4    C     C_R   0.840614 0.587480 0.395431 0.928005
V2    V     V_3+5 0.564650 0.509430 0.500460 1.168089
O10   O     O_3   0.837730 0.449180 0.497520 -0.261265
C5    C     C_R   0.932576 0.862851 0.168895 -0.118023
C6    C     C_R   0.833506 0.642704 0.335747 -0.139283
C7    C     C_R   0.641168 0.706171 0.240676 -0.206278
C8    C     C_R   0.660032 0.650214 0.292162 -0.150358
C9    C     C_R   0.989793 0.692400 0.325557 -0.280379
C10   C     C_R   0.970733 0.749773 0.274239 0.219082
C11   C     C_R   0.794679 0.756948 0.231669 0.188116
C12   C     C_R   0.775687 0.813976 0.180120 -0.196334
C13   C     C_R   0.105826 0.855861 0.212751 -0.106042
C14   C     C_R   0.124312 0.800509 0.264968 -0.218169
H1    H     H_    0.641551 0.818119 0.146727 0.164982
H2    H     H_    0.229225 0.892779 0.205910 0.124957
H3    H     H_    0.505709 0.709952 0.208145 0.146966
H4    H     H_    0.259842 0.796793 0.297453 0.123998
H5    H     H_    0.536911 0.612830 0.298205 0.138094
H6    H     H_    0.123855 0.688022 0.358927 0.138049
H7    H     H_    0.164559 0.616791 0.953962 0.206458
C15   C     C_R   0.724561 0.902967 0.738559 -0.215352
C16   C     C_R   0.627878 0.915294 0.669157 -0.101334
C17   C     C_R   0.617740 0.853252 0.603747 -0.067080
C18   C     C_R   0.699864 0.777728 0.607935 -0.190104
C19   C     C_R   0.788899 0.761726 0.679218 0.118661
C20   C     C_R   0.803465 0.825736 0.746056 0.128944
C21   C     C_R   0.864986 0.683759 0.683938 -0.253431
C22   C     C_R   0.950033 0.668313 0.756136 0.068871
C23   C     C_R   0.962285 0.731382 0.824372 -0.035894
C24   C     C_R   0.895403 0.811906 0.818200 -0.292007
C25   C     C_R   0.014321 0.588636 0.762239 -0.322039
C26   C     C_R   0.097439 0.570672 0.832099 0.361089
C27   C     C_R   0.111535 0.631872 0.898205 -0.287780
C28   C     C_R   0.035653 0.709643 0.896781 0.318545
H8    H     H_    0.735008 0.955068 0.785758 0.126645
H9    H     H_    0.562363 0.973716 0.665735 0.139515
H10   H     H_    0.546719 0.863786 0.549290 0.129669
H11   H     H_    0.691439 0.732266 0.554539 0.116629
H12   H     H_    0.998494 0.538564 0.713149 0.174256
H13   H     H_    0.081580 0.465413 0.140552 0.137196
C29   C     C_R   0.497935 0.225736 0.403730 -0.295602
C30   C     C_R   0.584538 0.152269 0.415462 0.432163
C31   C     C_R   0.615234 0.091134 0.349790 -0.243561
C32   C     C_R   0.560132 0.102588 0.273790 -0.249244
C33   C     C_R   0.473211 0.176155 0.260655 0.139165
C34   C     C_R   0.441689 0.239291 0.327084 0.079354
C35   C     C_R   0.414398 0.186621 0.183078 -0.298424
C36   C     C_R   0.323924 0.260930 0.172450 0.116017
C37   C     C_R   0.292552 0.324247 0.238908 0.114310
C38   C     C_R   0.351766 0.313791 0.316498 -0.282585
C39   C     C_R   0.266267 0.274220 0.095839 -0.161564
C40   C     C_R   0.179265 0.347221 0.084865 -0.076914
C41   C     C_R   0.148586 0.408712 0.149493 -0.096800
C42   C     C_R   0.204875 0.397804 0.225658 -0.190370
H14   H     H_    0.472191 0.271755 0.455317 0.151669
H15   H     H_    0.681462 0.033782 0.357123 0.171006
H16   H     H_    0.586137 0.052723 0.225569 0.133935
H17   H     H_    0.289649 0.228810 0.043483 0.107914
H18   H     H_    0.136376 0.356277 0.025773 0.154572
H19   H     H_    0.179092 0.447768 0.273808 0.120218
C43   C     C_R   0.388312 0.137331 0.832774 -0.186429
C44   C     C_R   0.377962 0.361843 0.666405 -0.096096
C45   C     C_R   0.584513 0.320756 0.770442 -0.125919
C46   C     C_R   0.542707 0.373072 0.717160 -0.063105
C47   C     C_R   0.254132 0.297277 0.670652 -0.142672
C48   C     C_R   0.294488 0.243193 0.724391 0.139828
C49   C     C_R   0.463553 0.255243 0.774186 0.205124
C50   C     C_R   0.508793 0.202590 0.827916 -0.283824
C51   C     C_R   0.223020 0.124756 0.782614 -0.155617
C52   C     C_R   0.170792 0.177543 0.729624 0.118384
H20   H     H_    0.635093 0.213535 0.867188 0.146390
H21   H     H_    0.133492 0.073345 0.786609 0.144659
H22   H     H_    0.713279 0.331125 0.808296 0.152127
H23   H     H_    0.641185 0.422409 0.715199 0.139385
H24   H     H_    0.130009 0.288854 0.630287 0.118506
O11   O     O_R   0.265840 0.084300 0.086750 -0.598793
O12   O     O_R   0.589750 0.070740 0.921690 -0.606253
O13   O     O_R   0.755020 0.915730 0.913400 -0.575344
C53   C     C_R   0.416834 0.086280 0.895048 0.937436
O14   O     O_R   0.595830 0.093740 0.086480 -0.597597
O15   O     O_R   0.761150 0.938890 0.079360 -0.593579
C54   C     C_R   0.427437 0.117188 0.114636 0.927536
O16   O     O_R   0.259710 0.061140 0.920790 -0.605356
O17   O     O_3   0.425260 0.949200 0.997610 -0.244940
V3    V     V_3+5 0.702060 0.009430 0.000450 1.182506
O18   O     O_R   0.090530 0.929220 0.078150 -0.571468
C55   C     C_R   0.926178 0.915841 0.107171 1.041602
O19   O     O_R   0.084440 0.906220 0.913360 -0.589411
C56   C     C_R   0.913719 0.881832 0.886097 1.017616
V4    V     V_3+5 0.201450 0.990520 0.999290 1.204004
O20   O     O_3   0.928380 0.050800 0.002390 -0.290503
N1    N     N_R   0.153387 0.488694 0.837707 0.236913
O21   O     O_R   0.275029 0.474368 0.893084 -0.411930
O22   O     O_R   0.069881 0.427616 0.791979 -0.454795
N2    N     N_R   0.003685 0.758841 0.972060 0.214230
O23   O     O_R   0.826180 0.770817 0.993874 -0.437829
O24   O     O_R   0.141271 0.765076 0.026222 -0.413583
N3    N     N_R   0.639658 0.139567 0.493997 0.224469
O25   O     O_R   0.712140 0.070067 0.505136 -0.445501
O26   O     O_R   0.616599 0.197101 0.555100 -0.463428
C57   C     C_3   0.982592 0.166538 0.680465 -0.298202
C58   C     C_3   0.850540 0.099235 0.696294 -0.827897
H25   H     H_    0.918499 0.038843 0.676169 0.255380
H26   H     H_    0.818538 0.107103 0.760179 0.232657
H27   H     H_    0.711445 0.102116 0.663127 0.303230
H28   H     H_    0.898733 0.224306 0.692589 0.210922
H29   H     H_    0.016606 0.154004 0.616546 0.228221

loop_
_geom_bond_atom_site_label_1
_geom_bond_atom_site_label_2
_geom_bond_distance
_ccdc_geom_bond_type
O18   V4    2.014221 S    
C30   C31   1.398502 A    
O11   C54   1.293809 A    
O19   C56   1.301824 A    
C6    C9    1.408518 A    
C22   C23   1.429072 A    
C4    C6    1.495265 S    
O2    C1    1.306560 A    
N3    O25   1.301935 A    
C12   H1    1.084120 S    
C1    O6    1.294511 A    
O17   V3    2.174609 S    
C26   C27   1.386190 A    
C31   C32   1.391596 A    
C13   H2    1.083346 S    
N1    O22   1.300754 A    
C1    C38   1.500853 S    
C18   C19   1.417892 A    
C37   C42   1.415101 A    
C51   H21   1.080151 S    
C17   C18   1.390039 A    
O5    C3    1.291846 A    
C19   C20   1.423051 A    
C18   H11   1.080750 S    
C29   H14   1.081338 S    
O15   V3    1.977574 S    
C33   C35   1.418875 A    
V2    O10   2.130186 S    
C53   O16   1.292018 A    
N2    O23   1.300738 A    
C15   C16   1.392989 A    
C39   H17   1.082081 S    
C43   C53   1.488475 S    
C29   C30   1.403044 A    
O8    V2    2.006009 S    
C7    C8    1.398599 A    
C58   H26   1.109508 S    
C16   H9    1.081432 S    
C11   C12   1.413475 A    
C42   H19   1.081659 S    
C32   H16   1.081663 S    
O7    V1    2.174551 S    
C57   H28   1.110838 S    
C25   H12   1.079536 S    
C41   C42   1.393592 A    
O19   V4    2.006122 S    
O9    C4    1.294152 A    
O11   V4    2.009784 S    
H7    C27   1.083479 S    
C52   C57   1.525267 S    
C43   C51   1.405355 A    
C44   C47   1.401608 A    
C31   H15   1.082805 S    
C26   N1    1.437535 S    
C57   C58   1.526805 S    
C29   C34   1.414999 A    
C9    H6    1.084065 S    
C5    C12   1.407917 A    
C15   C20   1.420150 A    
C45   C46   1.394715 A    
O4    C2    1.309951 A    
C47   C48   1.420938 A    
C2    C44   1.486586 S    
C13   C14   1.399990 A    
C35   C36   1.421576 A    
C16   C17   1.385280 A    
C3    C21   1.485075 S    
C36   C39   1.415421 A    
C7    C11   1.399862 A    
C37   C38   1.419737 A    
O12   C53   1.308342 A    
O18   C55   1.296497 A    
O15   C55   1.305026 A    
C58   H27   1.108428 S    
N3    O26   1.301737 A    
H13   C41   1.082768 S    
C44   C46   1.407115 A    
O17   V4    1.688947 S    
O3    C4    1.305719 A    
O1    V2    2.001853 S    
C21   C22   1.417789 A    
C14   H4    1.083422 S    
O6    V2    2.004042 S    
O9    V2    2.014026 S    
C22   C25   1.418790 A    
C15   H8    1.079009 S    
C23   C24   1.437893 A    
C43   C50   1.398689 A    
O2    V1    2.001109 S    
C45   H22   1.083803 S    
C50   H20   1.084267 S    
C17   H10   1.082689 S    
C25   C26   1.391651 A    
C47   H24   1.081258 S    
C28   N2    1.423449 S    
C27   C28   1.399343 A    
C30   N3    1.439456 S    
O1    C2    1.289549 A    
C45   C49   1.400048 A    
C49   C50   1.409123 A    
O5    V1    1.999909 S    
C20   C24   1.427422 A    
O8    C3    1.294887 A    
C40   H18   1.082830 S    
N1    O21   1.301569 A    
C34   C38   1.422592 A    
C5    C13   1.410951 A    
C39   C40   1.393560 A    
C33   C34   1.427915 A    
C24   C56   1.498345 S    
O4    V1    1.971012 S    
O3    V1    1.977503 S    
V1    O10   1.720457 S    
C19   C21   1.413676 A    
C32   C33   1.412506 A    
V3    O20   1.720496 S    
N2    O24   1.301457 A    
C6    C8    1.411303 A    
C23   C28   1.431157 A    
C40   C41   1.389889 A    
O13   V3    1.999874 S    
O7    V2    1.689329 S    
C36   C37   1.429888 A    
C5    C55   1.496166 S    
C48   C49   1.422444 A    
C48   C52   1.418998 A    
C35   C54   1.499703 S    
C46   H23   1.083556 S    
O14   C54   1.306579 A    
C51   C52   1.411365 A    
C10   C14   1.400905 A    
O16   V4    1.996713 S    
V4    O20   2.130267 S    
C10   C11   1.416484 A    
O13   C56   1.293490 A    
C9    C10   1.415086 A    
O14   V3    2.001017 S    
O12   V3    1.971155 S    
C57   H29   1.111352 S    
C58   H25   1.110246 S    
C8    H5    1.083330 S    
C7    H3    1.083536 S    
