data_mof_unit_1215.cif
_audit_creation_date              2012-12-10T19:03:34-0500
_audit_creation_method            fapswitch 2.2
_symmetry_space_group_name_H-M    P1
_symmetry_Int_Tables_number       1
_space_group_crystal_system       triclinic
_cell_length_a                    15.874144
_cell_length_b                    10.853893
_cell_length_c                    9.569944
_cell_angle_alpha                 90.126739
_cell_angle_beta                  89.682937
_cell_angle_gamma                 90.635798
_cell_volume                      1648.7349874

loop_
_atom_site_label
_atom_site_type_symbol
_atom_type_description
_atom_site_fract_x
_atom_site_fract_y
_atom_site_fract_z
_atom_type_partial_charge
C1    C     C_R   0.502497 0.262796 0.499979 0.811615
C2    C     C_3   0.950049 0.487621 0.647558 -0.464624
C3    C     C_3   0.917087 0.499305 0.496358 0.236133
C4    C     C_3   0.952651 0.622599 0.434067 0.022759
C5    C     C_3   0.051066 0.622998 0.435578 -0.482926
C6    C     C_1   0.824841 0.499508 0.497967 -0.038219
C7    C     C_1   0.175268 0.499790 0.499333 -0.072794
C8    C     C_1   0.250758 0.500022 0.500624 -0.182952
C9    C     C_R   0.502396 0.062048 0.621894 0.163949
C10   C     C_R   0.507930 0.130182 0.499401 -0.122856
C11   C     C_R   0.518453 0.064451 0.373235 -0.231017
C12   C     C_R   0.340322 0.499971 0.500342 0.844226
C13   C     C_R   0.516667 0.935234 0.372636 -0.223069
C14   C     C_R   0.505877 0.869780 0.498844 -0.093152
C15   C     C_R   0.500789 0.937817 0.621255 0.090650
C16   C     C_3   0.489315 0.927382 0.775294 -0.479599
C17   C     C_3   0.491658 0.069569 0.776838 -0.063134
C18   C     C_R   0.549115 0.582019 0.073211 0.084956
C19   C     C_R   0.444881 0.427283 0.075927 0.458046
C20   C     C_R   0.441652 0.432765 0.925422 0.434490
C21   C     C_R   0.550030 0.580481 0.926285 0.097031
C22   C     C_3   0.643576 0.592343 0.918557 -0.435572
C23   C     C_R   0.501484 0.737198 0.499967 0.784676
C24   C     C_3   0.643165 0.594573 0.077586 -0.035749
C25   C     C_R   0.659703 0.500077 0.499622 0.806497
C26   C     C_3   0.047391 0.494205 0.648388 -0.445994
C27   C     C_3   0.048114 0.390588 0.398782 0.657937
C28   C     C_3   0.949535 0.386686 0.411853 -0.405328
C29   C     C_1   0.749311 0.499801 0.498832 -0.179183
C30   C     C_3   0.083129 0.498796 0.496070 0.234823
Cu1   Cu    Cu3+1 0.500000 0.499980 0.640670 0.969375
Cu2   Cu    Cu3+1 0.500000 0.500020 0.359330 0.973433
H1    H     H_    0.928034 0.399312 0.694701 0.176575
H2    H     H_    0.067152 0.579358 0.705082 0.177647
H3    H     H_    0.924506 0.563020 0.713894 0.178649
H4    H     H_    0.527878 0.112069 0.275350 0.157813
H5    H     H_    0.523386 0.887420 0.273811 0.160093
H6    H     H_    0.426670 0.887826 0.803727 0.170396
H7    H     H_    0.544000 0.883065 0.826235 0.210894
H8    H     H_    0.432073 0.113587 0.811328 0.166650
H9    H     H_    0.073409 0.419274 0.712433 0.162964
H10   H     H_    0.673894 0.508577 0.875294 0.186759
H11   H     H_    0.664042 0.680332 0.868915 0.199573
H12   H     H_    0.675502 0.514687 0.125182 0.180025
H13   H     H_    0.927017 0.300029 0.461587 0.156437
H14   H     H_    0.919613 0.385492 0.306992 0.154852
H15   H     H_    0.073871 0.701328 0.501067 0.158403
H16   H     H_    0.077674 0.640791 0.329724 0.191961
H17   H     H_    0.931022 0.699189 0.502786 0.149060
N1    N     N_R   0.500530 0.500930 0.147930 -0.252399
N2    N     N_R   0.500530 0.500890 0.852020 -0.239322
O1    O     O_R   0.500000 0.319640 0.618810 -0.554308
O2    O     O_R   0.500010 0.319680 0.381230 -0.554189
O3    O     O_R   0.379430 0.499990 0.618840 -0.545370
O4    O     O_R   0.379440 0.500030 0.381260 -0.525620
O5    O     O_R   0.499990 0.680320 0.618770 -0.577676
O6    O     O_R   0.500000 0.680360 0.381190 -0.593267
O7    O     O_R   0.620560 0.499970 0.618740 -0.581852
O8    O     O_R   0.620570 0.500010 0.381160 -0.590687
N3    N     N_3   0.919643 0.645589 0.293661 -0.582865
H18   H     H_    0.937135 0.735039 0.264212 0.219318
H19   H     H_    0.947204 0.585828 0.221487 0.245477
N4    N     N_3   0.567345 0.118660 0.843955 -0.567901
H20   H     H_    0.565308 0.092735 0.949066 0.206440
H21   H     H_    0.564095 0.214779 0.842396 0.237729
O9    O     O_3   0.389769 0.353249 0.152001 -0.545718
C31   C     C_3   0.398984 0.228072 0.114856 -0.276020
H22   H     H_    0.381731 0.170843 0.206710 0.185688
H23   H     H_    0.464522 0.204487 0.083865 0.115120
H24   H     H_    0.354664 0.202151 0.030365 0.180919
O10   O     O_3   0.381862 0.365645 0.852253 -0.563274
C32   C     C_3   0.301453 0.416917 0.876042 -0.298599
H25   H     H_    0.257306 0.378779 0.797081 0.172099
H26   H     H_    0.275896 0.391248 0.980231 0.180427
H27   H     H_    0.301881 0.519116 0.864441 0.153965
N5    N     N_3   0.671301 0.713356 0.134625 -0.559743
H28   H     H_    0.634497 0.784511 0.094810 0.214427
H29   H     H_    0.661272 0.711740 0.242649 0.245278
N6    N     N_3   0.068485 0.422079 0.252712 -0.639685
H30   H     H_    0.133943 0.423597 0.239352 0.230716
H31   H     H_    0.045995 0.352059 0.186974 0.219156
O11   O     O_3   0.084621 0.272005 0.420404 -0.579828
C33   C     C_3   0.081838 0.225454 0.557630 -0.335359
H32   H     H_    0.021927 0.243144 0.613296 0.149038
H33   H     H_    0.137289 0.259250 0.617038 0.168841
H34   H     H_    0.087689 0.123881 0.551572 0.185864

loop_
_geom_bond_atom_site_label_1
_geom_bond_atom_site_label_2
_ccdc_geom_bond_type
C2    H3    S    
N4    H21   S    
C18   C21   A    
C19   C20   A    
Cu1   O1    S    
C3    C6    S    
C7    C8    T    
C5    H15   S    
C28   H14   S    
C33   H32   S    
C18   C24   S    
Cu1   O7    S    
C3    C28   S    
N5    H29   S    
C20   N2    A    
C27   N6    S    
C15   C16   S    
C19   O9    S    
N3    H19   S    
C1    O2    A    
C26   H2    S    
Cu1   Cu2   S    
C16   C17   S    
C20   O10   S    
Cu1   O5    S    
C9    C10   A    
Cu2   O4    S    
C13   H5    S    
O9    C31   S    
C7    C30   S    
C21   C22   S    
C27   C30   S    
Cu2   O6    S    
C32   H27   S    
C25   C29   S    
C5    H16   S    
C28   H13   S    
C31   H22   S    
C23   O5    A    
N5    H28   S    
C32   H26   S    
N6    H31   S    
C24   N5    S    
N6    H30   S    
N3    H18   S    
C31   H23   S    
C17   H8    S    
C14   C23   S    
C22   H11   S    
C8    C12   S    
C4    N3    S    
C2    C26   S    
Cu2   N1    S    
C2    H1    S    
C9    C17   S    
C33   H33   S    
C26   C30   S    
C24   H12   S    
C22   C24   S    
C25   O7    A    
C3    C4    S    
Cu2   O2    S    
C21   N2    A    
C18   N1    A    
C5    C30   S    
C23   O6    A    
C11   H4    S    
C27   O11   S    
C1    C10   S    
Cu1   N2    S    
C32   H25   S    
C6    C29   T    
C4    H17   S    
C31   H24   S    
C2    C3    S    
C9    C15   A    
O10   C32   S    
C17   N4    S    
C11   C13   A    
C19   N1    A    
C22   H10   S    
Cu1   O3    S    
C1    O1    A    
C12   O4    A    
C10   C11   A    
C16   H7    S    
N4    H20   S    
C4    C5    S    
C33   H34   S    
O11   C33   S    
C27   C28   S    
C14   C15   A    
C25   O8    A    
Cu2   O8    S    
C13   C14   A    
C12   O3    A    
C26   H9    S    
C16   H6    S    
