data_mof_unit_577.cif
_audit_creation_date              2012-12-10T18:07:35-0500
_audit_creation_method            fapswitch 2.2
_symmetry_space_group_name_H-M    P1
_symmetry_Int_Tables_number       1
_space_group_crystal_system       triclinic
_cell_length_a                    11.538784
_cell_length_b                    12.717937
_cell_length_c                    13.036662
_cell_angle_alpha                 82.564396
_cell_angle_beta                  91.677252
_cell_angle_gamma                 102.242452
_cell_volume                      1853.89270509

loop_
_atom_site_label
_atom_site_type_symbol
_atom_type_description
_atom_site_fract_x
_atom_site_fract_y
_atom_site_fract_z
_atom_type_partial_charge
C1    C     C_R   0.486958 0.439155 0.691392 0.862861
C2    C     C_R   0.723125 0.561795 0.932982 -0.040592
C3    C     C_R   0.660766 0.496706 0.861649 -0.025687
C4    C     C_R   0.717690 0.501746 0.497875 0.897731
C5    C     C_R   0.485530 0.544963 0.126075 0.326878
C6    C     C_R   0.669260 0.650445 0.184500 -0.247423
C7    C     C_R   0.467257 0.399215 0.800804 -0.098266
C8    C     C_R   0.327887 0.086937 0.348347 0.255318
C9    C     C_R   0.633509 0.800109 0.636147 0.535542
C10   C     C_R   0.635913 0.892704 0.682247 -0.254196
C11   C     C_R   0.571350 0.967074 0.638701 -0.250395
C12   C     C_R   0.552150 0.595675 0.202969 -0.101870
C13   C     C_R   0.514169 0.955037 0.542697 0.065727
C14   C     C_R   0.500007 0.852288 0.507057 0.160043
C15   C     C_R   0.465458 0.038139 0.484070 -0.073677
C16   C     C_R   0.514984 0.560437 0.308997 0.912579
C17   C     C_R   0.384664 0.009331 0.402672 -0.001216
C18   C     C_R   0.363577 0.903806 0.375645 -0.152074
C19   C     C_R   0.423213 0.828003 0.424880 -0.178143
C20   C     C_R   0.497579 0.149714 0.498396 -0.037711
C21   C     C_R   0.355186 0.192899 0.372871 0.435494
C22   C     C_R   0.282394 0.499254 0.499220 0.907015
C23   C     C_R   0.362982 0.322809 0.829190 -0.198580
C24   C     C_1   0.838971 0.504203 0.495336 -0.113454
C25   C     C_1   0.941101 0.503264 0.494428 0.042861
C26   C     C_1   0.059394 0.500367 0.495052 0.040834
C27   C     C_1   0.161385 0.498543 0.496691 -0.119200
C28   C     C_R   0.723309 0.645986 0.091960 -0.155633
C29   C     C_1   0.598130 0.192646 0.559930 0.285718
C30   C     C_1   0.848327 0.609297 0.916476 0.245372
C31   C     C_1   0.727049 0.461077 0.784896 0.231276
C32   C     C_R   0.326710 0.302273 0.931811 -0.104674
C33   C     C_R   0.387344 0.365734 0.003731 -0.065456
C34   C     C_R   0.487978 0.448189 0.974118 0.070342
C35   C     C_R   0.539008 0.449941 0.877106 0.013897
C36   C     C_R   0.544089 0.523252 0.040265 -0.014029
C37   C     C_R   0.663898 0.578732 0.020562 0.040590
Cl1   Cl    Cl    0.222298 0.053512 0.249814 -0.553842
Cl2   Cl    Cl    0.725936 0.714308 0.687963 -0.608763
Cl3   Cl    Cl    0.329358 0.528108 0.133983 -0.571174
Cl4   Cl    Cl    0.279650 0.288729 0.308613 -0.479423
H1    H     H_    0.721350 0.690401 0.244397 0.177263
H2    H     H_    0.303653 0.879263 0.313654 0.213674
H3    H     H_    0.564698 0.031201 0.683189 0.176485
H4    H     H_    0.686410 0.906389 0.752405 0.193951
H5    H     H_    0.406309 0.750219 0.397989 0.212366
H6    H     H_    0.814480 0.688935 0.080601 0.170332
H7    H     H_    0.308258 0.281267 0.771636 0.164295
H8    H     H_    0.357513 0.346597 0.082941 0.224228
H9    H     H_    0.248514 0.240710 0.954759 0.184209
N1    N     N_R   0.440320 0.222190 0.444690 -0.181214
N2    N     N_R   0.559060 0.776980 0.554780 -0.163102
N3    N     N_1   0.679188 0.226133 0.609542 -0.188466
N4    N     N_1   0.948005 0.647108 0.903193 -0.137575
N5    N     N_1   0.781151 0.431517 0.725399 -0.187510
O1    O     O_R   0.471500 0.366730 0.627160 -0.624051
O2    O     O_R   0.509620 0.544830 0.662520 -0.561029
O3    O     O_R   0.646490 0.410960 0.482310 -0.616538
O4    O     O_R   0.684610 0.589050 0.517670 -0.558705
O5    O     O_R   0.490380 0.455170 0.337480 -0.559305
O6    O     O_R   0.528500 0.633270 0.372840 -0.647139
O7    O     O_R   0.315390 0.410950 0.482330 -0.552821
O8    O     O_R   0.353510 0.589040 0.517690 -0.637088
Zn1   Zn    Zn3+2 0.474550 0.381080 0.476390 1.015040
Zn2   Zn    Zn3+2 0.525450 0.618920 0.523610 0.998098

loop_
_geom_bond_atom_site_label_1
_geom_bond_atom_site_label_2
_ccdc_geom_bond_type
O8    Zn2   S    
C28   H6    S    
C1    O2    A    
C22   O7    A    
C11   C13   A    
C9    C10   A    
C8    C17   A    
C2    C30   S    
O5    Zn1   S    
C10   C11   A    
C32   C33   A    
C10   H4    S    
O1    Zn1   S    
C2    C3    A    
C25   C26   S    
C19   H5    S    
C11   H3    S    
C1    C7    S    
C18   H2    S    
C23   C32   A    
C3    C31   S    
C30   N4    T    
C2    C37   A    
C32   H9    S    
C26   C27   T    
C15   C20   A    
C9    N2    A    
C8    Cl1   S    
C28   C37   A    
C7    C23   A    
C4    O4    A    
C7    C35   A    
C36   C37   A    
C1    O1    A    
C33   C34   A    
C20   N1    A    
C34   C36   A    
C20   C29   S    
C13   C15   A    
O3    Zn1   S    
C22   C27   S    
C4    C24   S    
C21   Cl4   S    
C5    C36   A    
C16   O6    A    
N1    Zn1   S    
C3    C35   A    
C6    C12   A    
O6    Zn2   S    
C6    C28   A    
C21   N1    A    
C24   C25   T    
C5    C12   A    
C17   C18   A    
C34   C35   A    
C6    H1    S    
C5    Cl3   S    
C4    O3    A    
C15   C17   A    
C18   C19   A    
O7    Zn1   S    
C23   H7    S    
C13   C14   A    
C31   N5    T    
C22   O8    A    
O4    Zn2   S    
C16   O5    A    
C33   H8    S    
C14   C19   A    
C9    Cl2   S    
C14   N2    A    
N2    Zn2   S    
C12   C16   S    
O2    Zn2   S    
C29   N3    T    
C8    C21   A    
