data_mof_unit_4288.cif
_audit_creation_date              2013-03-05T15:47:46-0500
_audit_creation_method            fapswitch 2.2
_symmetry_space_group_name_H-M    P1
_symmetry_Int_Tables_number       1
_space_group_crystal_system       triclinic
_cell_length_a                    10.85473
_cell_length_b                    13.005652
_cell_length_c                    11.632697
_cell_angle_alpha                 99.873198
_cell_angle_beta                  96.057823
_cell_angle_gamma                 90.238993
_cell_volume                      1608.4488929

loop_
_atom_site_label
_atom_site_type_symbol
_atom_site_description
_atom_site_fract_x
_atom_site_fract_y
_atom_site_fract_z
_atom_type_partial_charge
O1    O     O_R   0.506570 0.354460 0.582000 -0.591526
O2    O     O_R   0.493430 0.645540 0.418000 -0.591523
O3    O     O_R   0.490940 0.341410 0.386200 -0.604735
O4    O     O_R   0.509060 0.658590 0.613800 -0.604734
C1    C     C_R   0.498139 0.298931 0.478515 0.840077
C2    C     C_R   0.501861 0.701069 0.521485 0.840081
O5    O     O_R   0.327470 0.506520 0.597900 -0.575295
O6    O     O_R   0.672530 0.493480 0.402100 -0.575295
O7    O     O_R   0.311840 0.493460 0.402100 -0.592902
O8    O     O_R   0.688160 0.506540 0.597900 -0.592902
C3    C     C_R   0.261758 0.509260 0.498213 0.810757
C4    C     C_R   0.738241 0.490740 0.501787 0.810760
Cu1   Cu    Cu3+1 0.509250 0.507730 0.615930 0.948122
Cu2   Cu    Cu3+1 0.490750 0.492270 0.384070 0.948123
C5    C     C_R   0.141426 0.622031 0.693442 -0.208383
C6    C     C_R   0.858574 0.377969 0.306558 -0.208383
C7    C     C_R   0.098599 0.641935 0.803387 -0.188947
C8    C     C_R   0.901400 0.358065 0.196614 -0.188947
C9    C     C_R   0.988327 0.594892 0.822005 0.402641
C10   C     C_R   0.011673 0.405107 0.177994 0.402641
C11   C     C_R   0.915955 0.536299 0.725520 -0.218715
C12   C     C_R   0.084045 0.463701 0.274480 -0.218715
C13   C     C_R   0.952543 0.524065 0.610261 0.017080
C14   C     C_R   0.047457 0.475935 0.389739 0.017080
C15   C     C_R   0.074024 0.555483 0.598441 0.084422
C16   C     C_R   0.925976 0.444516 0.401558 0.084423
C17   C     C_R   0.874176 0.479582 0.507384 -0.171974
C18   C     C_R   0.125824 0.520418 0.492616 -0.171974
H1    H     H_    0.227775 0.659681 0.683265 0.164334
H2    H     H_    0.772225 0.340318 0.316735 0.164334
H3    H     H_    0.154482 0.690775 0.874868 0.184436
H4    H     H_    0.845518 0.309224 0.125132 0.184435
H5    H     H_    0.835507 0.496009 0.744002 0.209919
H6    H     H_    0.164492 0.503990 0.255997 0.209920
C19   C     C_R   0.503473 0.814368 0.534179 -0.143270
C20   C     C_R   0.496528 0.185632 0.465820 -0.143237
C21   C     C_R   0.472715 0.014899 0.342304 0.517979
C22   C     C_R   0.527285 0.985100 0.657694 0.517988
C23   C     C_R   0.474649 0.123493 0.354441 -0.272189
C24   C     C_R   0.525347 0.876507 0.645559 -0.272168
C25   C     C_R   0.515311 0.139513 0.566013 -0.223361
C26   C     C_R   0.484695 0.860487 0.433986 -0.223317
C27   C     C_R   0.511078 0.031419 0.556390 0.000043
C28   C     C_R   0.488924 0.968581 0.443609 0.000068
H7    H     H_    0.467813 0.811850 0.348151 0.207284
H8    H     H_    0.532197 0.188150 0.651848 0.207274
H9    H     H_    0.542165 0.841148 0.723423 0.164397
H10   H     H_    0.457821 0.158855 0.276579 0.164374
N1    N     N_R   0.523180 0.519350 0.790130 -0.194700
N2    N     N_R   0.476820 0.480650 0.209870 -0.194701
C29   C     C_R   0.408951 0.384287 0.016939 -0.236392
C30   C     C_R   0.591049 0.615713 0.983061 -0.236383
C31   C     C_R   0.414073 0.397698 0.140053 0.104694
C32   C     C_R   0.585927 0.602302 0.859947 0.104695
C33   C     C_R   0.535657 0.552592 0.159810 0.060427
C34   C     C_R   0.464343 0.447408 0.840190 0.060422
C35   C     C_R   0.532029 0.542733 0.036148 0.057175
C36   C     C_R   0.467972 0.457267 0.963852 0.057179
H11   H     H_    0.413302 0.382799 0.784030 0.129567
H12   H     H_    0.586699 0.617200 0.215970 0.129576
H13   H     H_    0.632122 0.658994 0.820348 0.127737
H14   H     H_    0.367878 0.341006 0.179652 0.127733
H15   H     H_    0.358790 0.317504 0.963816 0.150499
H16   H     H_    0.641210 0.682496 0.036184 0.150513
N3    N     N_R   0.050043 0.393605 0.061768 0.139098
O9    O     O_R   0.991696 0.328643 0.975414 -0.349648
O10   O     O_R   0.140012 0.451325 0.040019 -0.361611
N4    N     N_R   0.949957 0.606394 0.938232 0.139099
O11   O     O_R   0.008304 0.671356 0.024586 -0.349645
O12   O     O_R   0.859988 0.548674 0.959980 -0.361611
O13   O     O_3   0.445228 0.954355 0.232394 -0.580551
C37   C     C_3   0.551606 0.950147 0.172000 -0.334650
H17   H     H_    0.631843 0.918573 0.221822 0.165756
H18   H     H_    0.575923 0.028089 0.152502 0.168018
H19   H     H_    0.531557 0.896504 0.086864 0.194343
O14   O     O_3   0.554766 0.045638 0.767608 -0.580538
C38   C     C_3   0.448339 0.049941 0.827936 -0.334735
H20   H     H_    0.423853 0.972010 0.847356 0.168036
H21   H     H_    0.368205 0.081635 0.778102 0.165764
H22   H     H_    0.468410 0.103526 0.913109 0.194333

loop_
_geom_bond_atom_site_label_1
_geom_bond_atom_site_label_2
_geom_bond_distance
_ccdc_geom_bond_type
C24   H9    1.083455 S    
O7    Cu2   1.975038 S    
C22   O14   1.384193 S    
C38   H20   1.112604 S    
C15   C18   1.412551 A    
O5    C3    1.301761 A    
C16   C17   1.412551 A    
O1    C1    1.287300 A    
C9    C11   1.404704 A    
C14   C16   1.406316 A    
C5    C15   1.414813 A    
C11   H5    1.076000 S    
C6    H2    1.082493 S    
N1    C32   1.365298 A    
C1    C20   1.455330 S    
C2    C19   1.455332 S    
O4    Cu1   1.966438 S    
C19   C26   1.396552 A    
N4    O11   1.301622 A    
N3    O10   1.300930 A    
C25   H8    1.083755 S    
C13   C17   1.426212 A    
C33   H12   1.082257 S    
C25   C27   1.391191 A    
C20   C25   1.396550 A    
O2    C2    1.287302 A    
C26   C28   1.391193 A    
C37   H19   1.109603 S    
C30   C32   1.407836 A    
C5    H1    1.082493 S    
C38   H21   1.114038 S    
C11   C13   1.421430 A    
C6    C16   1.414813 A    
C12   H6    1.076000 S    
N2    C31   1.365300 A    
C4    C17   1.478934 S    
C10   N3    1.440080 S    
C29   H15   1.083377 S    
O14   C38   1.410105 S    
C37   H18   1.112621 S    
C30   H16   1.083378 S    
C29   C31   1.407836 A    
C26   H7    1.083755 S    
C27   C28   1.418098 A    
C31   H14   1.081396 S    
O5    Cu1   1.961863 S    
O6    C4    1.301759 A    
C9    N4    1.440078 S    
C29   C36   1.404328 A    
O7    C3    1.279932 A    
O3    Cu2   1.966441 S    
O8    C4    1.279934 A    
Cu1   N1    1.995541 S    
O4    C2    1.284776 A    
C10   C12   1.404704 A    
C33   C35   1.418475 A    
C7    H3    1.082616 S    
C12   C14   1.421430 A    
C8    H4    1.082617 S    
C38   H22   1.109597 S    
C5    C7    1.389884 A    
O6    Cu2   1.961864 S    
C20   C23   1.400927 A    
C14   C18   1.426213 A    
C37   H17   1.114066 S    
O3    C1    1.284775 A    
O8    Cu1   1.975038 S    
C32   H13   1.081396 S    
N1    C34   1.372158 A    
N2    C33   1.372156 A    
C34   H11   1.082257 S    
C6    C8    1.389883 A    
C21   C28   1.408245 A    
C21   O13   1.384204 S    
C19   C24   1.400926 A    
O13   C37   1.410121 S    
C21   C23   1.394922 A    
C22   C24   1.394907 A    
C35   C36   1.405643 A    
Cu2   N2    1.995541 S    
C3    C18   1.478935 S    
C7    C9    1.395721 A    
C34   C36   1.418475 A    
C8    C10   1.395721 A    
C13   C15   1.406317 A    
O2    Cu2   1.964040 S    
C30   C35   1.404327 A    
C22   C27   1.408248 A    
O1    Cu1   1.964043 S    
N4    O12   1.300931 A    
N3    O9    1.301622 A    
Cu1   Cu2   2.656082 S    
C23   H10   1.083453 S    
