data_mof_unit_1862.cif
_audit_creation_date              2012-12-11T15:12:49-0500
_audit_creation_method            fapswitch 2.2
_symmetry_space_group_name_H-M    P1
_symmetry_Int_Tables_number       1
_space_group_crystal_system       triclinic
_cell_length_a                    22.329245
_cell_length_b                    6.942861
_cell_length_c                    19.375976
_cell_angle_alpha                 89.999959
_cell_angle_beta                  99.181729
_cell_angle_gamma                 89.999678
_cell_volume                      2965.34762437

loop_
_atom_site_label
_atom_site_type_symbol
_atom_type_description
_atom_site_fract_x
_atom_site_fract_y
_atom_site_fract_z
_atom_type_partial_charge
O1    O     O_R   0.448420 0.506120 0.415750 -0.536239
O2    O     O_R   0.551580 0.006120 0.584250 -0.536242
O3    O     O_R   0.436490 0.174470 0.555610 -0.537513
O4    O     O_R   0.563510 0.674470 0.444390 -0.537513
C1    C     C_R   0.421116 0.344677 0.575850 0.718613
C2    C     C_R   0.578884 0.844676 0.424150 0.718618
O5    O     O_R   0.441310 0.176330 0.414520 -0.536371
O6    O     O_R   0.558690 0.676330 0.585480 -0.536373
O7    O     O_R   0.556430 0.007110 0.442150 -0.535701
O8    O     O_R   0.443570 0.507110 0.557850 -0.535702
C3    C     C_R   0.426785 0.345063 0.388361 0.714054
C4    C     C_R   0.573215 0.845062 0.611639 0.714048
O9    O     O_3   0.537770 0.339560 0.509230 -0.366236
O10   O     O_3   0.462230 0.839560 0.490770 -0.366235
V1    V     V_3+5 0.492990 0.064280 0.498290 1.424537
V2    V     V_3+5 0.507010 0.564280 0.501710 1.424535
C5    C     C_R   0.866765 0.980789 0.695878 -0.167222
C6    C     C_R   0.133229 0.480698 0.304125 -0.167218
H1    H     H_    0.953988 0.007335 0.759841 0.102722
H2    H     H_    0.046005 0.507250 0.240162 0.102720
H3    H     H_    0.784354 0.980311 0.581309 0.117568
H4    H     H_    0.215637 0.480176 0.418697 0.117568
H5    H     H_    0.885059 0.009830 0.648372 0.108954
H6    H     H_    0.114933 0.509698 0.351634 0.108954
C7    C     C_R   0.884375 0.941478 0.821541 -0.042074
C8    C     C_R   0.115623 0.441469 0.178460 -0.042070
C9    C     C_R   0.589877 0.815364 0.739700 -0.269189
C10   C     C_R   0.410124 0.315427 0.260298 -0.268987
C11   C     C_R   0.626269 0.816052 0.805938 0.525031
C12   C     C_R   0.373731 0.316129 0.194067 0.524898
C13   C     C_R   0.688822 0.843354 0.810957 -0.222012
C14   C     C_R   0.311177 0.343390 0.189042 -0.222148
C15   C     C_R   0.716366 0.879779 0.751389 0.003482
C16   C     C_R   0.283632 0.379778 0.248611 0.003527
C17   C     C_R   0.678199 0.885474 0.684590 0.065410
C18   C     C_R   0.321799 0.385451 0.315412 0.065408
C19   C     C_R   0.780536 0.910382 0.755965 0.102541
C20   C     C_R   0.219462 0.410363 0.244036 0.102543
C21   C     C_R   0.804450 0.947522 0.693525 0.143649
C22   C     C_R   0.195545 0.447454 0.306478 0.143641
C23   C     C_R   0.766160 0.952325 0.628967 -0.206767
C24   C     C_R   0.233834 0.452229 0.371037 -0.206770
C25   C     C_R   0.704177 0.921534 0.624446 -0.169868
C26   C     C_R   0.295818 0.421462 0.375557 -0.169858
C27   C     C_R   0.822061 0.906856 0.820044 -0.214467
C28   C     C_R   0.177939 0.406870 0.179956 -0.214471
C29   C     C_R   0.906197 0.978952 0.759287 -0.170977
C30   C     C_R   0.093798 0.478889 0.240716 -0.170980
C31   C     C_R   0.614802 0.852010 0.679296 -0.141671
C32   C     C_R   0.385197 0.352018 0.320705 -0.141757
H7    H     H_    0.807598 0.880422 0.869644 0.095500
H8    H     H_    0.192404 0.380477 0.130354 0.095491
H9    H     H_    0.541884 0.783983 0.734736 0.112165
H10   H     H_    0.458119 0.284069 0.265246 0.112239
H11   H     H_    0.714600 0.836313 0.862834 0.132914
H12   H     H_    0.285403 0.336350 0.137163 0.132902
H13   H     H_    0.676653 0.926411 0.573130 0.105191
H14   H     H_    0.323341 0.426320 0.426874 0.105187
C33   C     C_3   0.807961 0.748736 0.261676 -0.328182
C34   C     C_3   0.192032 0.248769 0.738314 -0.328187
C35   C     C_3   0.786195 0.102940 0.247883 -0.331151
C36   C     C_3   0.213816 0.602957 0.752131 -0.331153
C37   C     C_3   0.738149 0.085500 0.297644 -0.327848
C38   C     C_3   0.261863 0.585519 0.702370 -0.327850
H15   H     H_    0.782275 0.752193 0.366409 0.137212
H16   H     H_    0.217720 0.252264 0.633582 0.137210
H17   H     H_    0.853266 0.778065 0.293065 0.136649
H18   H     H_    0.146729 0.278133 0.706926 0.136649
H19   H     H_    0.773445 0.223066 0.210371 0.136866
H20   H     H_    0.226571 0.723060 0.789652 0.136861
H21   H     H_    0.831074 0.139598 0.278925 0.136856
H22   H     H_    0.168939 0.639650 0.721091 0.136855
H23   H     H_    0.760174 0.113731 0.352377 0.136994
H24   H     H_    0.239840 0.613785 0.647640 0.136995
H25   H     H_    0.702581 0.197469 0.283831 0.135489
H26   H     H_    0.297436 0.697464 0.716192 0.135478
C39   C     C_1   0.624648 0.854866 0.378658 -0.190612
C40   C     C_1   0.375353 0.354868 0.621343 -0.190631
C41   C     C_3   0.790964 0.912128 0.207358 0.286647
C42   C     C_3   0.209037 0.412127 0.792643 0.286669
C43   C     C_3   0.759864 0.731266 0.311372 -0.328337
C44   C     C_3   0.240129 0.231300 0.688618 -0.328336
C45   C     C_3   0.708667 0.882377 0.292478 0.289108
C46   C     C_3   0.291334 0.382378 0.707523 0.289133
C47   C     C_3   0.679265 0.848792 0.215285 -0.328035
C48   C     C_3   0.320734 0.348743 0.784714 -0.328052
C49   C     C_3   0.727356 0.866111 0.165551 -0.321092
C50   C     C_3   0.272642 0.366062 0.834448 -0.321102
C51   C     C_1   0.662531 0.866211 0.340102 -0.101239
C52   C     C_1   0.337470 0.366213 0.659899 -0.101260
C53   C     C_1   0.837159 0.928253 0.159789 -0.098054
C54   C     C_1   0.162841 0.428252 0.840212 -0.098066
C55   C     C_1   0.875127 0.939563 0.121325 -0.190257
C56   C     C_1   0.124874 0.439561 0.878675 -0.190268
H27   H     H_    0.729074 0.728877 0.136246 0.142696
H28   H     H_    0.270916 0.228815 0.863743 0.142677
H29   H     H_    0.713496 0.981510 0.126390 0.144116
H30   H     H_    0.286508 0.481436 0.873617 0.144083
H31   H     H_    0.658081 0.703361 0.209607 0.137074
H32   H     H_    0.341909 0.203300 0.790383 0.137062
H33   H     H_    0.811271 0.609202 0.234245 0.136537
H34   H     H_    0.188715 0.109223 0.765734 0.136537
H35   H     H_    0.740254 0.583524 0.307503 0.137448
H36   H     H_    0.259732 0.083547 0.692476 0.137449
H37   H     H_    0.642525 0.956018 0.199808 0.139379
H38   H     H_    0.357478 0.455945 0.800200 0.139321
O11   O     O_R   0.056480 0.288780 0.942210 -0.535706
O12   O     O_R   0.943520 0.788780 0.057790 -0.535706
O13   O     O_R   0.058700 0.616820 0.085490 -0.537896
O14   O     O_R   0.941300 0.116820 0.914510 -0.537894
C57   C     C_R   0.073245 0.448404 0.111698 0.694825
C58   C     C_R   0.926754 0.948406 0.888302 0.694828
O15   O     O_R   0.063520 0.618570 0.944410 -0.537545
O16   O     O_R   0.936480 0.118570 0.055590 -0.537544
O17   O     O_R   0.948420 0.787670 0.915740 -0.536169
O18   O     O_R   0.051580 0.287670 0.084260 -0.536169
C59   C     C_R   0.079017 0.449773 0.924074 0.726517
C60   C     C_R   0.920983 0.949773 0.075926 0.726520
O19   O     O_3   0.962260 0.453430 0.990800 -0.366268
O20   O     O_3   0.037740 0.953430 0.009200 -0.366271
V3    V     V_3+5 0.007000 0.728750 0.001710 1.424486
V4    V     V_3+5 0.993000 0.228750 0.998290 1.424492
O21   O     O_3   0.603507 0.774612 0.866968 -0.551671
C61   C     C_3   0.549884 0.879351 0.870635 -0.258874
H39   H     H_    0.509899 0.804812 0.840870 0.133954
H40   H     H_    0.552553 0.031022 0.852485 0.134352
H41   H     H_    0.543028 0.884869 0.926057 0.165820
O22   O     O_3   0.396518 0.274709 0.133058 -0.551694
C62   C     C_3   0.449930 0.380429 0.129256 -0.258892
H42   H     H_    0.490065 0.306909 0.159135 0.133917
H43   H     H_    0.446950 0.532188 0.147196 0.134462
H44   H     H_    0.456785 0.385637 0.073830 0.165810

loop_
_geom_bond_atom_site_label_1
_geom_bond_atom_site_label_2
_ccdc_geom_bond_type
C12   C14   A    
C50   H28   S    
O4    V2    S    
O17   V3    S    
C9    C11   A    
O1    C3    A    
O12   V3    S    
O2    C4    A    
O22   C62   S    
C2    O7    A    
C41   C49   S    
C4    C31   S    
O3    V1    S    
O21   C61   S    
C21   C23   A    
C40   C52   T    
O5    C3    A    
C39   C51   T    
C5    H5    S    
C46   C52   S    
C6    H6    S    
C36   C42   S    
C46   C48   S    
O13   C57   A    
C43   H35   S    
C56   C59   S    
C48   C50   S    
C53   C55   T    
C27   H7    S    
C28   H8    S    
C36   H20   S    
C5    C21   A    
C35   C37   S    
C6    C22   A    
C38   C46   S    
C36   C38   S    
C7    C58   S    
C33   H17   S    
C10   C32   A    
C26   H14   S    
C49   H27   S    
C17   C31   A    
C13   C15   A    
C57   O18   A    
C48   H32   S    
C7    C29   A    
C41   C53   S    
C8    C30   A    
C62   H44   S    
C35   H21   S    
C47   C49   S    
O6    V2    S    
C11   C13   A    
C23   C25   A    
C48   H38   S    
C24   C26   A    
C34   H34   S    
C43   C45   S    
O20   V4    S    
O19   V3    S    
C45   C51   S    
C12   O22   S    
C33   H33   S    
O12   C60   A    
O4    C2    A    
C33   C41   S    
C10   H10   S    
C2    C39   S    
C49   H29   S    
C37   H23   S    
C15   C19   A    
C37   C45   S    
C14   C16   A    
C42   C54   S    
C47   H31   S    
H16   C44   S    
H15   C43   S    
O6    C4    A    
C54   C56   T    
C38   H26   S    
C36   H22   S    
O1    V2    S    
O16   C60   A    
O2    V1    S    
H2    C30   S    
C34   C44   S    
C61   H41   S    
O15   C59   A    
C45   C47   S    
C44   C46   S    
O9    V1    S    
H3    C23   S    
C18   C26   A    
C55   C60   S    
C19   C27   A    
C7    C27   A    
C18   C32   A    
O20   V3    S    
C61   H40   S    
C62   H42   S    
O18   V4    S    
O19   V4    S    
C35   H19   S    
C34   C42   S    
C38   H24   S    
C16   C20   A    
C5    C29   A    
C22   C24   A    
O3    C1    A    
C6    C30   A    
C9    H9    S    
H1    C29   S    
C10   C12   A    
O7    V1    S    
C17   C25   A    
C1    O8    A    
C42   C50   S    
C3    C32   S    
O8    V2    S    
O14   V4    S    
C20   C22   A    
O13   V3    S    
H4    C24   S    
C37   H25   S    
C35   C41   S    
C11   O21   S    
O5    V1    S    
C15   C17   A    
C16   C18   A    
O11   C59   A    
O10   V2    S    
O14   C58   A    
C20   C28   A    
C25   H13   S    
O16   V4    S    
O15   V3    S    
C34   H18   S    
C19   C21   A    
O9    V2    S    
C33   C43   S    
C44   H36   S    
O10   V1    S    
C47   H37   S    
O11   V4    S    
C13   H11   S    
C1    C40   S    
C8    C28   A    
C8    C57   S    
C14   H12   S    
C58   O17   A    
C50   H30   S    
C9    C31   A    
C61   H39   S    
C62   H43   S    
