data_mof_unit_1057.cif
_audit_creation_date              2012-12-11T15:59:30-0500
_audit_creation_method            fapswitch 2.2
_symmetry_space_group_name_H-M    P1
_symmetry_Int_Tables_number       1
_space_group_crystal_system       triclinic
_cell_length_a                    10.716711
_cell_length_b                    10.779895
_cell_length_c                    17.05503
_cell_angle_alpha                 99.37222
_cell_angle_beta                  99.577537
_cell_angle_gamma                 60.555884
_cell_volume                      1684.32156173

loop_
_atom_site_label
_atom_site_type_symbol
_atom_type_description
_atom_site_fract_x
_atom_site_fract_y
_atom_site_fract_z
_atom_type_partial_charge
C1    C     C_R   0.356694 0.768608 0.397524 0.525376
C2    C     C_R   0.824306 0.348085 0.325753 -0.043468
C3    C     C_R   0.359548 0.813554 0.156532 0.008457
C4    C     C_R   0.366285 0.343700 0.358544 0.551057
C5    C     C_R   0.447150 0.853176 0.215503 0.005114
C6    C     C_R   0.433107 0.856810 0.296708 -0.004542
C7    C     C_R   0.290358 0.733023 0.255929 -0.108554
C8    C     C_R   0.297728 0.736278 0.176380 0.243114
C9    C     C_R   0.546312 0.891502 0.196096 -0.042188
C10   C     C_R   0.617465 0.945606 0.254670 -0.127671
C11   C     C_R   0.598599 0.955568 0.333981 -0.108929
C12   C     C_R   0.853830 0.207739 0.198033 -0.018144
C13   C     C_R   0.504290 0.915524 0.355237 -0.094727
C14   C     C_R   0.350313 0.799215 0.316543 -0.042101
C15   C     C_R   0.287698 0.250137 0.792723 -0.045474
C16   C     C_R   0.776461 0.377334 0.403996 0.535784
C17   C     C_R   0.396646 0.137598 0.743907 -0.000357
C18   C     C_R   0.383679 0.163322 0.663044 -0.101138
C19   C     C_R   0.197099 0.408386 0.686647 0.240832
C20   C     C_R   0.180432 0.373317 0.757976 -0.165354
C21   C     C_R   0.518211 0.002586 0.767177 0.234486
C22   C     C_R   0.604521 0.901370 0.709298 -0.080991
C23   C     C_R   0.867242 0.214141 0.281967 0.008183
C24   C     C_R   0.580168 0.927601 0.630288 0.259658
C25   C     C_R   0.459602 0.050982 0.606481 -0.091696
C26   C     C_R   0.305745 0.304327 0.640474 0.015324
C27   C     C_1   0.845270 0.329248 0.705579 -0.043014
C28   C     C_R   0.357105 0.771246 0.626943 0.535888
C29   C     C_1   0.891888 0.294516 0.772255 -0.054026
C30   C     C_1   0.337950 0.813884 0.708853 -0.057862
C31   C     C_1   0.312870 0.841325 0.777119 -0.045081
C32   C     C_R   0.891050 0.309240 0.087163 0.562472
C33   C     C_R   0.291293 0.261529 0.122407 0.565690
C34   C     C_R   0.787076 0.469203 0.287851 -0.134135
C35   C     C_R   0.298725 0.887154 0.083924 0.552453
C36   C     C_R   0.942175 0.274063 0.854588 0.537647
C37   C     C_R   0.277433 0.246116 0.877679 0.561919
C38   C     C_R   0.279046 0.885614 0.857072 0.538975
C39   C     C_R   0.363998 0.344143 0.581046 0.552188
C40   C     C_R   0.777199 0.378688 0.629061 0.549369
C41   C     C_1   0.325208 0.318082 0.276802 -0.048400
C42   C     C_1   0.305585 0.293339 0.206302 -0.046893
C43   C     C_R   0.831116 0.329101 0.161783 -0.002379
C44   C     C_3   0.125105 0.646638 0.715559 0.018635
C45   C     C_R   0.795880 0.460122 0.207934 0.233012
C46   C     C_3   0.013820 0.794392 0.692481 -0.346538
C47   C     C_3   0.685887 0.955282 0.876690 0.015851
C48   C     C_3   0.724426 0.904092 0.959758 -0.341277
C49   C     C_3   0.736391 0.892090 0.543149 -0.110460
C50   C     C_3   0.875300 0.620626 0.204352 -0.090936
C51   C     C_3   0.335693 0.563282 0.073009 -0.071469
C52   C     C_R   0.868664 0.078659 0.154137 -0.063131
C53   C     C_R   0.923021 0.954256 0.191690 -0.117666
C54   C     C_R   0.951526 0.957999 0.274343 -0.138594
C55   C     C_R   0.921172 0.087451 0.319595 -0.085310
Cr1   Cr    Cr6+3 0.608100 0.610860 0.522250 1.089314
Cr2   Cr    Cr6+3 0.288890 0.599990 0.488420 1.016817
Cr3   Cr    Cr6+3 0.603040 0.289190 0.489390 0.979818
Cr4   Cr    Cr6+3 0.053960 0.052250 0.967380 0.985846
Cr5   Cr    Cr6+3 0.059890 0.373160 0.992710 1.007248
Cr6   Cr    Cr6+3 0.373370 0.061690 0.991710 0.999430
H1    H     H_    0.747044 0.575091 0.319565 0.166739
H2    H     H_    0.992121 0.861544 0.303571 0.114923
H3    H     H_    0.942750 0.087206 0.383874 0.122397
H4    H     H_    0.239257 0.675151 0.270000 0.152050
H5    H     H_    0.578065 0.872309 0.136635 0.158036
H6    H     H_    0.234759 0.631477 0.713707 0.150441
H7    H     H_    0.111420 0.642451 0.778135 0.117982
H8    H     H_    0.905094 0.811701 0.698926 0.147950
H9    H     H_    0.031366 0.877953 0.731986 0.120799
H10   H     H_    0.020997 0.803817 0.629873 0.177015
H11   H     H_    0.677258 0.063513 0.881708 0.148248
H12   H     H_    0.688985 0.978073 0.238307 0.127208
H13   H     H_    0.776259 0.879421 0.840828 0.096362
H14   H     H_    0.727020 0.799147 0.956759 0.157446
H15   H     H_    0.832415 0.891258 0.984159 0.079088
H16   H     H_    0.644131 0.982723 0.000484 0.168085
H17   H     H_    0.781648 0.948456 0.589453 0.100701
H18   H     H_    0.657147 0.971555 0.502737 0.103902
H19   H     H_    0.824285 0.808140 0.508391 0.130440
H20   H     H_    0.857169 0.677271 0.265212 0.099687
H21   H     H_    0.985934 0.527585 0.205149 0.141235
H22   H     H_    0.869766 0.694593 0.164411 0.129502
H23   H     H_    0.658338 0.994600 0.378460 0.126253
H24   H     H_    0.413376 0.475653 0.110441 0.134194
H25   H     H_    0.394311 0.600034 0.042770 0.104394
H26   H     H_    0.280940 0.519279 0.025083 0.190248
H27   H     H_    0.487152 0.931670 0.417327 0.130203
H28   H     H_    0.089554 0.450737 0.790013 0.146958
H29   H     H_    0.691526 0.798833 0.725991 0.144775
H30   H     H_    0.432215 0.064742 0.543377 0.120240
H31   H     H_    0.836501 0.072126 0.090870 0.133644
H32   H     H_    0.941390 0.855315 0.156299 0.133000
O1    O     O_R   0.749810 0.499790 0.438040 -0.503594
O2    O     O_R   0.411730 0.181020 0.091530 -0.534523
O3    O     O_R   0.365010 0.944360 0.063320 -0.546235
O4    O     O_R   0.477660 0.726260 0.439290 -0.480619
O5    O     O_R   0.159380 0.906670 0.876210 -0.542279
O6    O     O_R   0.930820 0.177420 0.886730 -0.499294
O7    O     O_R   0.910360 0.395420 0.895720 -0.507990
O8    O     O_R   0.186010 0.361730 0.919870 -0.535188
O9    O     O_R   0.400000 0.173010 0.914630 -0.461909
O10   O     O_R   0.354140 0.936940 0.899340 -0.454290
O11   O     O_3   0.162410 0.162370 0.983930 -0.308998
O12   O     O_R   0.298970 0.468800 0.557390 -0.455112
O13   O     O_R   0.260150 0.743000 0.412270 -0.538405
O14   O     O_R   0.297740 0.466550 0.394720 -0.509359
O15   O     O_R   0.488080 0.253500 0.386430 -0.523605
O16   O     O_R   0.722670 0.303800 0.421940 -0.507580
O17   O     O_R   0.751130 0.502220 0.613520 -0.460285
O18   O     O_R   0.478890 0.728510 0.601960 -0.461007
O19   O     O_R   0.261470 0.745430 0.587750 -0.533164
O20   O     O_3   0.104588 0.542596 0.661228 -0.530207
O21   O     O_3   0.553290 0.959950 0.843384 -0.511871
O22   O     O_3   0.672645 0.827832 0.576533 -0.529774
O23   O     O_R   0.489400 0.255930 0.561910 -0.545369
O24   O     O_3   0.767140 0.581143 0.174194 -0.559603
O25   O     O_3   0.230681 0.675920 0.118946 -0.572204
O26   O     O_R   0.723890 0.306050 0.584610 -0.511826
O27   O     O_3   0.500010 0.500010 0.500020 -0.251306
O28   O     O_R   0.171100 0.914680 0.053100 -0.465864
O29   O     O_R   0.941680 0.184840 0.050710 -0.522747
O30   O     O_R   0.922080 0.403420 0.072610 -0.469629
O31   O     O_R   0.196880 0.369150 0.083850 -0.497754

loop_
_geom_bond_atom_site_label_1
_geom_bond_atom_site_label_2
_ccdc_geom_bond_type
Cr4   O28   S    
C47   O21   S    
Cr2   O12   S    
C27   C29   T    
C50   O24   S    
Cr4   O6    S    
C41   C42   T    
C48   H15   S    
C19   C20   A    
C18   C26   A    
C38   O5    A    
C51   H24   S    
Cr6   O3    S    
C8    O25   S    
C7    C8    A    
C35   O3    A    
C28   O19   A    
Cr1   O1    S    
C4    O15   A    
C29   C36   S    
C33   C42   S    
Cr6   O10   S    
C12   C43   A    
C37   O9    A    
C10   H12   S    
C26   C39   S    
Cr2   O19   S    
C7    H4    S    
C4    C41   S    
C19   O20   S    
Cr3   O16   S    
C34   H1    S    
C51   O25   S    
C49   H17   S    
C15   C17   A    
Cr5   O31   S    
C19   C26   A    
C9    H5    S    
C15   C37   S    
C46   H8    S    
C7    C14   A    
C50   H22   S    
C33   O31   A    
C2    C16   S    
C9    C10   A    
Cr1   O18   S    
C1    O13   A    
C2    C34   A    
Cr4   O29   S    
Cr2   O13   S    
C21   C22   A    
Cr3   O23   S    
Cr1   O27   S    
C48   H14   S    
C18   C25   A    
Cr1   O4    S    
C33   O2    A    
C51   H25   S    
Cr1   O17   S    
C12   C52   A    
C44   C46   S    
C16   O16   A    
C28   O18   A    
C15   C20   A    
C4    O14   A    
C25   H30   S    
C53   H32   S    
C32   O29   A    
C35   O28   A    
Cr6   O11   S    
C24   C25   A    
C3    C8    A    
C51   H26   S    
C40   O17   A    
C3    C5    A    
C53   C54   A    
C17   C21   A    
C49   H18   S    
C32   O30   A    
C48   H16   S    
Cr5   O30   S    
C5    C9    A    
C38   O10   A    
C6    C14   A    
C47   C48   S    
C12   C23   A    
C3    C35   S    
C27   C40   S    
C55   H3    S    
Cr3   O27   S    
C17   C18   A    
C22   H29   S    
C36   O7    A    
C34   C45   A    
C43   C45   A    
C46   H10   S    
Cr2   O27   S    
Cr2   O14   S    
C44   O20   S    
C22   C24   A    
C52   H31   S    
Cr4   O11   S    
C1    O4    A    
Cr5   O8    S    
Cr4   O5    S    
C52   C53   A    
C50   H21   S    
C45   O24   S    
C39   O12   A    
C54   C55   A    
C49   O22   S    
C47   H13   S    
C21   O21   S    
Cr5   O7    S    
Cr6   O2    S    
C23   C55   A    
C11   H23   S    
C20   H28   S    
C16   O1    A    
C31   C38   S    
C28   C30   S    
Cr6   O9    S    
C6    C13   A    
C37   O8    A    
C11   C13   A    
C30   C31   T    
C5    C6    A    
C13   H27   S    
Cr3   O26   S    
C32   C43   S    
C36   O6    A    
Cr3   O15   S    
C47   H11   S    
C46   H9    S    
C44   H7    S    
C10   C11   A    
C40   O26   A    
C24   O22   S    
C39   O23   A    
C54   H2    S    
C2    C23   A    
C49   H19   S    
C44   H6    S    
C1    C14   S    
Cr5   O11   S    
C50   H20   S    
