data_mof_unit_1078.cif
_audit_creation_date              2012-10-26T19:59:41-0400
_audit_creation_method            fapswitch 2.2
_symmetry_space_group_name_H-M    P1
_symmetry_Int_Tables_number       1
_space_group_crystal_system       triclinic
_cell_length_a                    10.740415
_cell_length_b                    8.680571
_cell_length_c                    7.482591
_cell_angle_alpha                 103.139375
_cell_angle_beta                  94.618457
_cell_angle_gamma                 92.802797
_cell_volume                      675.529362387

loop_
_atom_site_label
_atom_site_type_symbol
_atom_type_description
_atom_site_fract_x
_atom_site_fract_y
_atom_site_fract_z
_atom_type_partial_charge
C1    C     C_R   0.496066 0.199735 0.453132 0.545087
C2    C     C_R   0.503906 0.800261 0.546888 0.530183
C3    C     C_R   0.737361 0.506606 0.499385 0.537752
C4    C     C_R   0.153376 0.772703 0.735823 -0.102251
C5    C     C_R   0.099210 0.898865 0.845800 -0.119812
C6    C     C_R   0.969622 0.900570 0.842117 -0.122653
C7    C     C_R   0.893428 0.776155 0.728360 -0.109562
C8    C     C_R   0.946315 0.645557 0.617872 0.025676
C9    C     C_R   0.077972 0.643747 0.621746 0.025517
C10   C     C_R   0.129742 0.515232 0.506046 0.005715
C11   C     C_R   0.053336 0.395886 0.383793 -0.150054
C12   C     C_R   0.925027 0.397687 0.380041 -0.151478
C13   C     C_R   0.871451 0.518793 0.498678 0.002982
C14   C     C_2   0.493947 0.031566 0.427090 -0.153854
C15   C     C_2   0.505768 0.968396 0.573008 -0.163523
C16   C     C_R   0.262998 0.504781 0.502366 0.533517
Cu1   Cu    Cu3+1 0.513920 0.517380 0.684380 0.944904
Cu2   Cu    Cu3+1 0.486080 0.482620 0.315620 0.982954
H1    H     H_    0.093462 0.299055 0.293076 0.121332
H2    H     H_    0.608194 0.761227 0.056278 0.213483
H3    H     H_    0.710917 0.620135 0.032090 0.229406
H4    H     H_    0.254252 0.779353 0.739266 0.141578
H5    H     H_    0.158049 0.996713 0.932490 0.112203
H6    H     H_    0.927906 0.999758 0.925905 0.110933
H7    H     H_    0.793318 0.785424 0.725505 0.129789
H8    H     H_    0.867183 0.301640 0.287824 0.123972
H9    H     H_    0.482593 0.959466 0.286745 0.130104
H10   H     H_    0.516929 0.040493 0.713391 0.128769
H11   H     H_    0.400644 0.378572 0.948897 0.211836
N1    N     N_2   0.465100 0.456430 0.038520 -0.192013
N2    N     N_2   0.534900 0.543570 0.961480 -0.076346
N3    N     N_3   0.623688 0.648660 0.077637 -0.426809
O1    O     O_R   0.509050 0.286130 0.619770 -0.507855
O2    O     O_R   0.485540 0.256780 0.308360 -0.507619
O3    O     O_R   0.331410 0.514680 0.655740 -0.518759
O4    O     O_R   0.307900 0.485330 0.344330 -0.502441
O5    O     O_R   0.514460 0.743220 0.691640 -0.527195
O6    O     O_R   0.490950 0.713870 0.380230 -0.468580
O7    O     O_R   0.692100 0.514670 0.655670 -0.514524
O8    O     O_R   0.668590 0.485320 0.344260 -0.472365

loop_
_geom_bond_atom_site_label_1
_geom_bond_atom_site_label_2
_ccdc_geom_bond_type
C3    C13   S    
C3    O8    A    
C11   C12   A    
C6    C7    A    
Cu2   N1    S    
C14   H9    S    
C4    H4    S    
C9    C10   A    
C2    O6    A    
N2    N3    S    
C5    H5    S    
N1    N2    D    
C6    H6    S    
Cu1   Cu2   S    
Cu2   O6    S    
C3    O7    A    
C7    C8    A    
Cu1   O5    S    
C16   O4    A    
C2    C15   S    
Cu2   O2    S    
C2    O5    A    
C11   H1    S    
C15   H10   S    
H11   N1    S    
Cu1   O1    S    
C1    O2    A    
C16   O3    A    
Cu1   O7    S    
C5    C6    A    
Cu1   N2    S    
H3    N3    S    
C10   C11   A    
C1    O1    A    
C8    C13   A    
C12   C13   A    
H2    N3    S    
Cu2   O8    S    
C14   C15   D    
C8    C9    A    
C10   C16   S    
C1    C14   S    
Cu1   O3    S    
C4    C9    A    
Cu2   O4    S    
C12   H8    S    
C4    C5    A    
C7    H7    S    
