data_mof_unit_1257.cif
_audit_creation_date              2012-12-11T19:42:16-0500
_audit_creation_method            fapswitch 2.2
_symmetry_space_group_name_H-M    P1
_symmetry_Int_Tables_number       1
_space_group_crystal_system       triclinic
_cell_length_a                    8.252863
_cell_length_b                    15.269553
_cell_length_c                    26.997509
_cell_angle_alpha                 98.434254
_cell_angle_beta                  92.483879
_cell_angle_gamma                 81.474662
_cell_volume                      3327.36751577

loop_
_atom_site_label
_atom_site_type_symbol
_atom_type_description
_atom_site_fract_x
_atom_site_fract_y
_atom_site_fract_z
_atom_type_partial_charge
Ba1   Ba    Ba6+2 0.860050 0.456430 0.522530 1.702314
Ba2   Ba    Ba6+2 0.329780 0.543490 0.477460 1.678315
C1    C     C_3   0.514771 0.233091 0.718770 -0.216699
C2    C     C_R   0.961726 0.601581 0.188510 0.627321
C3    C     C_2   0.769058 0.573710 0.276041 -0.092715
C4    C     C_3   0.027946 0.223565 0.648594 0.192969
C5    C     C_3   0.741794 0.597493 0.331607 -0.075662
C6    C     C_1   0.985804 0.487417 0.344069 0.043226
C7    C     C_2   0.024681 0.479469 0.295911 -0.079816
C8    C     C_2   0.910615 0.523981 0.258955 0.213837
C9    C     C_R   0.047715 0.520953 0.106891 -0.084810
C10   C     C_R   0.037020 0.439991 0.125126 -0.037704
C11   C     C_R   0.064210 0.359879 0.091868 -0.035772
C12   C     C_3   0.544543 0.267218 0.669839 0.275991
C13   C     C_R   0.009245 0.602142 0.138936 -0.025775
C14   C     C_2   0.852968 0.539015 0.363122 -0.279130
C15   C     C_2   0.343928 0.490156 0.644360 -0.265515
C16   C     C_3   0.960706 0.143294 0.664183 -0.201574
C17   C     C_R   0.197945 0.438143 0.975590 -0.008535
C18   C     C_R   0.131547 0.602553 0.986306 0.026212
C19   C     C_R   0.181679 0.519892 0.955303 0.057816
C20   C     C_R   0.280132 0.359630 0.946613 -0.081308
C21   C     C_R   0.304354 0.358224 0.894699 -0.054347
C22   C     C_R   0.266439 0.438059 0.872570 -0.090410
C23   C     C_3   0.508885 0.686211 0.632202 0.339261
C24   C     C_R   0.217425 0.519383 0.903840 -0.069709
C25   C     C_R   0.202921 0.600556 0.883527 -0.020392
C26   C     C_R   0.238513 0.599773 0.832605 0.611456
C27   C     C_R   0.281256 0.439874 0.820271 0.675256
C28   C     C_3   0.238367 0.263972 0.403979 0.331491
C29   C     C_2   0.461379 0.491329 0.730819 -0.090638
C30   C     C_3   0.496539 0.494952 0.676371 -0.066140
C31   C     C_1   0.204512 0.534141 0.662421 -0.003560
C32   C     C_2   0.172909 0.546930 0.711754 -0.033641
C33   C     C_2   0.308009 0.518858 0.748396 0.223701
C34   C     C_3   0.487531 0.721153 0.687764 -0.334249
C35   C     C_R   0.137121 0.438622 0.024724 0.042433
C36   C     C_R   0.094702 0.520901 0.056372 0.058756
C37   C     C_R   0.096812 0.603123 0.037825 0.020850
C38   C     C_R   0.108469 0.359596 0.042491 -0.052962
C39   C     C_R   0.018602 0.682729 0.120840 -0.026082
C40   C     C_3   0.308305 0.171177 0.378184 -0.325343
C41   C     C_R   0.117142 0.682199 0.964456 -0.092727
C42   C     C_R   0.153281 0.681115 0.914490 -0.041997
C43   C     C_R   0.061515 0.683365 0.071589 -0.094590
C44   C     C_R   0.838791 0.827594 0.459371 0.009567
C45   C     C_3   0.982787 0.774829 0.342482 0.297942
C46   C     C_R   0.767837 0.918708 0.460678 -0.023504
C47   C     C_R   0.627855 0.104081 0.467029 -0.090767
C48   C     C_R   0.766418 0.066458 0.436631 0.008158
C49   C     C_R   0.836672 0.976993 0.435753 -0.058167
C50   C     C_R   0.567570 0.198281 0.477966 0.041285
C51   C     C_R   0.422336 0.226009 0.504519 -0.240971
C52   C     C_3   0.972910 0.728434 0.581424 0.275431
C53   C     C_R   0.614787 0.800710 0.507213 0.007088
C54   C     C_R   0.547344 0.891491 0.510400 -0.061643
C55   C     C_R   0.619813 0.951043 0.486127 0.004992
C56   C     C_3   0.966535 0.835657 0.301441 -0.266766
C57   C     C_R   0.406142 0.922904 0.536631 -0.040628
C58   C     C_R   0.323800 0.008039 0.535654 0.012776
C59   C     C_R   0.395216 0.073081 0.514670 -0.045691
C60   C     C_R   0.547306 0.043104 0.489150 0.002152
C61   C     C_R   0.329921 0.166196 0.520629 0.017742
C62   C     C_R   0.755109 0.769250 0.479895 -0.283874
C63   C     C_3   0.915579 0.829225 0.594723 -0.237733
C64   C     C_3   0.691140 0.357512 0.375287 0.299877
C65   C     C_3   0.705038 0.340258 0.318555 -0.354299
C66   C     C_2   0.572136 0.190262 0.627971 0.783046
C67   C     C_3   0.477986 0.784954 0.372664 0.388438
C68   C     C_2   0.010100 0.871164 0.638430 0.997779
C69   C     C_2   0.121567 0.826396 0.271791 0.970784
C70   C     C_2   0.389385 0.275707 0.865431 0.984099
C71   C     C_2   0.371422 0.286428 0.972254 0.850040
C72   C     C_2   0.074535 0.283923 0.694866 0.944260
C73   C     C_2   0.006753 0.582037 0.731071 0.951276
C74   C     C_2   0.828741 0.108886 0.397583 0.872651
C75   C     C_2   0.163959 0.018934 0.557944 0.909298
C76   C     C_3   0.444020 0.875585 0.354334 -0.310817
C77   C     C_R   0.993865 0.441292 0.175673 0.603454
H1    H     H_    0.414268 0.175974 0.355272 0.147625
H2    H     H_    0.705838 0.403700 0.303474 0.068291
H3    H     H_    0.598661 0.309302 0.301462 0.140196
H4    H     H_    0.434694 0.313142 0.660426 -0.035322
H5    H     H_    0.389724 0.215055 0.718870 0.141109
H6    H     H_    0.616125 0.632750 0.627912 0.042070
H7    H     H_    0.360828 0.755387 0.694681 0.150203
H8    H     H_    0.510381 0.665597 0.710433 0.056709
H9    H     H_    0.574944 0.768946 0.700640 0.159027
H10   H     H_    0.531747 0.285333 0.750806 0.187083
H11   H     H_    0.858525 0.780743 0.357991 -0.070560
H12   H     H_    0.214744 0.141413 0.353026 0.168472
H13   H     H_    0.864555 0.818458 0.275363 0.097843
H14   H     H_    0.931617 0.906454 0.318869 0.039007
H15   H     H_    0.611590 0.771025 0.379908 -0.110581
H16   H     H_    0.415436 0.789365 0.408681 0.087540
H17   H     H_    0.930628 0.262374 0.628049 0.112314
H18   H     H_    0.141513 0.442337 0.283143 0.112255
H19   H     H_    0.048616 0.296836 0.103665 0.129858
H20   H     H_    0.561511 0.472335 0.756324 0.114516
H21   H     H_    0.115068 0.296507 0.018116 0.096797
H22   H     H_    0.992267 0.746387 0.144862 0.132108
H23   H     H_    0.870999 0.695406 0.563283 -0.017812
H24   H     H_    0.074799 0.747100 0.984721 0.082035
H25   H     H_    0.139778 0.744340 0.899929 0.137882
H26   H     H_    0.068124 0.748394 0.061432 0.081141
H27   H     H_    0.835407 0.551813 0.403270 0.079142
H28   H     H_    0.345836 0.443045 0.609901 0.050568
H29   H     H_    0.943870 0.952285 0.413413 0.091203
H30   H     H_    0.351216 0.879602 0.556964 0.150118
H31   H     H_    0.378444 0.296923 0.512320 0.042630
H32   H     H_    0.862164 0.165321 0.691528 0.102257
H33   H     H_    0.806111 0.699379 0.477770 0.056046
H34   H     H_    0.074250 0.718229 0.554826 0.085248
H35   H     H_    0.907988 0.103730 0.631552 0.138690
H36   H     H_    0.341425 0.299748 0.418562 -0.015442
H37   H     H_    0.699455 0.136630 0.566712 0.302990
H38   H     H_    0.348272 0.125775 0.406188 0.062723
H39   H     H_    0.230538 0.892240 0.668860 0.329680
H40   H     H_    0.586144 0.410655 0.384807 0.082916
H41   H     H_    0.396365 0.658450 0.617428 0.003002
H42   H     H_    0.058596 0.100399 0.682594 0.180815
H43   H     H_    0.021069 0.703567 0.326208 0.089399
H44   H     H_    0.121639 0.960686 0.277419 0.268624
H45   H     H_    0.783416 0.840982 0.603523 0.085686
H46   H     H_    0.505100 0.925181 0.379866 0.057323
H47   H     H_    0.310620 0.899785 0.354137 0.144034
H48   H     H_    0.492394 0.870698 0.316112 0.157498
H49   H     H_    0.377216 0.150121 0.831781 0.328112
H50   H     H_    0.521837 0.253449 0.029699 0.324595
H51   H     H_    0.684415 0.607154 0.250506 0.117935
H52   H     H_    0.150148 0.367161 0.653892 0.254510
H53   H     H_    0.811469 0.678412 0.733735 0.300611
H54   H     H_    0.805722 0.132710 0.325943 0.316190
H55   H     H_    0.922595 0.015145 0.547444 0.289175
H56   H     H_    0.931028 0.862754 0.561897 0.002199
H57   H     H_    0.160035 0.257701 0.435321 0.066852
H58   H     H_    0.804461 0.379710 0.392456 0.011959
H59   H     H_    0.603825 0.173190 0.724398 0.112893
H60   H     H_    0.819702 0.294755 0.307979 0.133603
N1    N     N_R   0.957198 0.521769 0.206983 -0.425795
N2    N     N_R   0.275790 0.519738 0.801378 -0.423221
O1    O     O_2   0.906480 0.548660 0.619050 -0.457458
O2    O     O_2   0.173381 0.822882 0.473794 -0.481360
O3    O     O_3   0.099706 0.801901 0.378791 -0.606047
O4    O     O_3   0.138490 0.548590 0.558870 -0.499233
O5    O     O_3   0.572560 0.389960 0.472890 -0.505284
O6    O     O_2   0.345660 0.723580 0.528500 -0.463068
O7    O     O_3   0.536332 0.756972 0.607453 -0.616787
O8    O     O_2   0.419906 0.543607 0.323004 -0.473218
O9    O     O_3   0.421428 0.718273 0.337003 -0.539489
O10   O     O_2   0.986669 0.370937 0.191463 -0.585173
O11   O     O_2   0.293874 0.370344 0.791232 -0.547119
O12   O     O_3   0.666775 0.277926 0.391716 -0.622590
O13   O     O_2   0.923944 0.672733 0.215355 -0.607883
O14   O     O_2   0.234970 0.670321 0.815972 -0.582224
O15   O     O_3   0.686300 0.382310 0.585700 -0.446547
O16   O     O_2   0.829158 0.441447 0.670208 -0.449609
O17   O     O_3   0.025457 0.692140 0.624894 -0.590468
O18   O     O_3   0.686295 0.308935 0.677509 -0.629585
O19   O     O_2   0.844040 0.276390 0.471470 -0.429864
O20   O     O_3   0.101510 0.335500 0.560330 -0.510777
O21   O     O_2   0.984027 0.184218 0.536539 -0.440498
O22   O     O_2   0.510338 0.122343 0.628586 -0.600411
O23   O     O_3   0.169254 0.193985 0.619514 -0.622083
O24   O     O_R   0.673073 0.195922 0.588880 -0.754307
O25   O     O_2   0.937169 0.915397 0.674286 -0.583302
O26   O     O_R   0.181090 0.858746 0.638058 -0.734851
O27   O     O_2   0.189737 0.751966 0.254617 -0.518940
O28   O     O_R   0.187032 0.901838 0.262233 -0.733557
O29   O     O_2   0.530655 0.272926 0.852831 -0.598878
O30   O     O_R   0.306981 0.201958 0.852050 -0.668411
O31   O     O_2   0.362388 0.207959 0.956404 -0.565222
O32   O     O_R   0.466364 0.308257 0.015252 -0.744230
O33   O     O_2   0.052638 0.267890 0.736881 -0.520232
O34   O     O_2   0.283210 0.451310 0.380920 -0.472849
O35   O     O_R   0.143882 0.359335 0.690119 -0.718331
O36   O     O_2   0.948245 0.544511 0.761601 -0.581422
O37   O     O_R   0.919676 0.659700 0.716136 -0.728076
O38   O     O_2   0.962260 0.134618 0.403328 -0.625473
O39   O     O_R   0.745296 0.107817 0.351385 -0.764646
O40   O     O_2   0.158644 0.015951 0.602543 -0.607775
O41   O     O_R   0.024363 0.013633 0.527509 -0.751228
O42   O     O_3   0.051220 0.451340 0.441120 -0.498399
O43   O     O_3   0.503410 0.617620 0.414290 -0.487215
O44   O     O_3   0.143225 0.308492 0.368906 -0.624965
O45   O     O_3   0.617150 0.609960 0.527100 -0.493174
O46   O     O_3   0.088210 0.664420 0.439670 -0.478776
P1    P     P_3+3 0.071950 0.575820 0.612140 1.022826
P2    P     P_3+3 0.664370 0.290050 0.457240 1.022182
P3    P     P_3+3 0.143362 0.219266 0.557432 0.971028
P4    P     P_3+3 0.117760 0.424110 0.387850 0.990042
P5    P     P_3+3 0.048032 0.780036 0.437574 0.959265
P6    P     P_3+3 0.667227 0.408277 0.651113 0.990867
P7    P     P_3+3 0.532850 0.722879 0.542695 0.952547
P8    P     P_3+3 0.521677 0.614612 0.350092 0.991023

loop_
_geom_bond_atom_site_label_1
_geom_bond_atom_site_label_2
_ccdc_geom_bond_type
C51   H31   S    
C2    O13   D    
C53   C54   A    
C52   H34   S    
C61   P3    S    
C40   H1    S    
Ba1   O15   S    
H39   O26   S    
Ba1   O4    S    
C63   H56   S    
O45   P7    S    
C19   C24   A    
C74   O38   D    
C16   H35   S    
Ba2   O45   S    
C42   H25   S    
C46   C55   A    
C52   C63   S    
O12   P2    S    
Ba1   O45   S    
C34   H9    S    
Ba2   O4    S    
C24   C25   A    
C8    N1    S    
O16   P6    D    
C67   O9    S    
C17   C19   A    
C56   H14   S    
C22   C24   A    
O19   P2    D    
C72   O33   D    
C35   C38   A    
C15   H28   S    
O34   P4    D    
C36   C37   A    
C32   C33   S    
C56   C69   S    
C62   H33   S    
C52   O17   S    
C6    P4    S    
C63   C68   S    
C10   C77   A    
H52   O35   S    
C54   C55   A    
O6    P7    D    
Ba1   Ba2   S    
C63   H45   S    
C11   H19   S    
C59   C61   A    
C73   O37   S    
Ba2   O46   S    
C11   C38   A    
Ba1   O1    S    
C17   C35   A    
C22   C27   A    
C9    C13   A    
C25   C42   A    
C46   C49   A    
C49   H29   S    
C26   O14   D    
C75   O40   D    
C21   C22   A    
C69   O28   S    
O5    P2    S    
O44   P4    S    
C29   H20   S    
C23   O7    S    
C65   H60   S    
C7    C8    S    
C14   H27   S    
C32   C73   S    
C37   C43   A    
C66   O24   S    
C77   N1    Am   
Ba1   O20   S    
C57   C58   A    
C6    C14   D    
H50   O32   S    
C67   C76   S    
C15   C31   D    
C12   H4    S    
H55   O41   S    
O23   P3    S    
C76   H48   S    
C43   H26   S    
C4    C72   S    
C28   H36   S    
C34   H8    S    
Ba1   O42   S    
C4    C16   S    
C44   C46   A    
C58   C75   S    
O4    P1    S    
C70   O30   S    
C55   C60   A    
C17   C20   A    
Ba2   P4    S    
C13   C39   A    
C67   H15   S    
C3    C5    S    
C18   C37   A    
C6    C7    D    
C45   H43   S    
O3    P5    S    
C67   H16   S    
Ba2   O6    S    
C45   O3    S    
O42   P4    S    
C58   C59   A    
C70   O29   D    
C9    C36   A    
C41   C42   A    
C28   O44   S    
C72   O35   S    
C35   C36   A    
C48   C74   S    
Ba2   O34   S    
C2    N1    Am   
C29   C30   S    
O2    P5    D    
C47   C50   A    
C27   N2    Am   
C53   C62   A    
C18   C19   A    
C23   H6    S    
C31   C32   D    
H54   O39   S    
C1    H59   S    
Ba2   O43   S    
C16   H32   S    
C71   O31   D    
O46   P5    S    
H44   O28   S    
C1    C12   S    
C33   N2    S    
O7    P7    S    
C3    H51   S    
Ba1   P1    S    
C4    O23   S    
C65   H2    S    
C4    H17   S    
C69   O27   D    
C45   H11   S    
C29   C33   D    
H37   O24   S    
C5    P8    S    
C76   H47   S    
C23   H41   S    
O21   P3    D    
C18   C41   A    
C50   C51   A    
C77   O10   D    
C66   O22   D    
O18   P6    S    
C5    C14   S    
C7    H18   S    
C47   C60   A    
C75   O41   S    
C21   C70   S    
C52   H23   S    
Ba1   O19   S    
C12   C66   S    
C44   P5    S    
C30   P6    S    
C74   O39   S    
O17   P1    S    
C38   H21   S    
C64   O12   S    
C9    C10   A    
C40   H38   S    
Ba2   O5    S    
O43   P8    S    
O1    P1    D    
C16   H42   S    
C48   C49   A    
C28   H57   S    
C54   C57   A    
C1    H10   S    
C12   O18   S    
C64   H40   S    
C34   H7    S    
C2    C13   A    
C68   O25   D    
O15   P6    S    
C3    C8    D    
C68   O26   S    
O8    P8    D    
C27   O11   D    
C51   C61   A    
C64   H58   S    
C57   H30   S    
C39   H22   S    
C64   C65   S    
C31   P1    S    
C50   P2    S    
H49   O30   S    
C71   O32   S    
C59   C60   A    
C73   O36   D    
O20   P3    S    
C41   H24   S    
O9    P8    S    
C1    H5    S    
C23   C34   S    
C53   P7    S    
Ba1   O5    S    
C10   C11   A    
C65   H3    S    
C47   C48   A    
C44   C62   A    
C25   C26   A    
C15   C30   S    
C39   C43   A    
C20   C21   A    
C28   C40   S    
C26   N2    Am   
C20   C71   S    
C76   H46   S    
C56   H13   S    
Ba2   O42   S    
C40   H12   S    
H53   O37   S    
C45   C56   S    
Ba1   P2    S    
