data_mof_unit_585.cif
_audit_creation_date              2012-10-26T19:58:23-0400
_audit_creation_method            fapswitch 2.2
_symmetry_space_group_name_H-M    P1
_symmetry_Int_Tables_number       1
_space_group_crystal_system       triclinic
_cell_length_a                    7.41615
_cell_length_b                    8.715486
_cell_length_c                    13.36189
_cell_angle_alpha                 94.012227
_cell_angle_beta                  76.811576
_cell_angle_gamma                 103.206676
_cell_volume                      818.48748585

loop_
_atom_site_label
_atom_site_type_symbol
_atom_type_description
_atom_site_fract_x
_atom_site_fract_y
_atom_site_fract_z
_atom_type_partial_charge
C1    C     C_R   0.544855 0.800172 0.503183 0.582665
C2    C     C_R   0.329807 0.492893 0.808756 0.033524
C3    C     C_2   0.568629 0.967757 0.504842 -0.117005
C4    C     C_R   0.397211 0.495609 0.695129 0.562826
C5    C     C_2   0.426862 0.032728 0.495983 0.324143
C6    C     C_R   0.454392 0.200053 0.497213 0.558448
C7    C     C_R   0.603296 0.512809 0.305396 0.561038
C8    C     C_R   0.877812 0.692598 0.050687 0.369861
C9    C     C_R   0.668045 0.541695 0.194237 -0.020759
C10   C     C_R   0.145700 0.405074 0.854013 0.085740
C11   C     C_R   0.098825 0.374435 0.958357 -0.054054
C12   C     C_R   0.417470 0.506618 0.976317 0.025124
C13   C     C_R   0.232986 0.418994 0.017983 -0.123039
C14   C     C_R   0.457716 0.559816 0.873703 0.071161
C15   C     C_R   0.560904 0.547222 0.034645 -0.027804
C16   C     C_R   0.735245 0.651356 0.993670 0.028347
C17   C     C_R   0.761028 0.720231 0.898890 -0.097658
C18   C     C_R   0.621779 0.681071 0.840932 0.085228
C19   C     C_R   0.535226 0.488353 0.133284 -0.172582
C20   C     C_R   0.843924 0.640207 0.151585 0.091494
Cu1   Cu    Cu3+1 0.321300 0.483160 0.488710 1.017214
Cu2   Cu    Cu3+1 0.678700 0.516840 0.511290 0.997797
F1    F     F_    0.253890 0.945936 0.485588 -0.617833
F2    F     F_    0.046727 0.789941 0.010430 -0.653374
H1    H     H_    0.010512 0.616993 0.579607 0.253773
H2    H     H_    0.053523 0.263093 0.740072 0.257032
H3    H     H_    0.971353 0.434053 0.762866 0.256346
H4    H     H_    0.770715 0.781370 0.706269 0.248239
H5    H     H_    0.635704 0.892761 0.783360 0.237835
H6    H     H_    0.989445 0.382919 0.420449 0.242027
H7    H     H_    0.887294 0.809864 0.870646 0.176810
H8    H     H_    0.409399 0.403390 0.166683 0.137505
H9    H     H_    0.184587 0.387272 0.097611 0.108620
H10   H     H_    0.957857 0.309415 0.993178 0.146496
H11   H     H_    0.705509 0.038988 0.513274 0.096682
H12   H     H_    0.011645 0.816975 0.215965 0.269608
H13   H     H_    0.109103 0.660350 0.173744 0.258866
N1    N     N_2   0.947230 0.542220 0.528320 -0.235834
N2    N     N_2   0.052770 0.457780 0.471680 -0.246335
N3    N     N_3   0.983963 0.693805 0.211905 -0.563325
N4    N     N_3   0.003325 0.341683 0.796509 -0.626384
N5    N     N_3   0.638117 0.777961 0.755444 -0.601226
O1    O     O_R   0.383920 0.714220 0.492660 -0.426322
O2    O     O_R   0.685730 0.742660 0.511730 -0.484688
O3    O     O_R   0.275440 0.478800 0.636790 -0.530719
O4    O     O_R   0.577250 0.507240 0.655860 -0.487079
O5    O     O_R   0.314270 0.257340 0.488270 -0.461382
O6    O     O_R   0.616080 0.285780 0.507340 -0.558796
O7    O     O_R   0.422750 0.492760 0.344140 -0.508594
O8    O     O_R   0.724560 0.521200 0.363210 -0.469654

loop_
_geom_bond_atom_site_label_1
_geom_bond_atom_site_label_2
_ccdc_geom_bond_type
C2    C10   A    
Cu2   O6    S    
C13   H9    S    
H5    N5    S    
C1    O1    A    
H3    N4    S    
C1    O2    A    
C2    C4    S    
C5    F1    S    
C12   C15   A    
C3    H11   S    
Cu2   O8    S    
Cu1   O7    S    
C17   C18   A    
C2    C14   A    
C8    C16   A    
C4    O4    A    
Cu1   Cu2   S    
C10   N4    S    
C15   C19   A    
C11   C13   A    
C8    C20   A    
C6    O6    A    
C20   N3    S    
C19   H8    S    
H4    N5    S    
Cu2   O4    S    
C17   H7    S    
C12   C14   A    
H6    N2    S    
H13   N3    S    
Cu1   O3    S    
C4    O3    A    
C18   N5    S    
C5    C6    S    
H1    N1    S    
Cu1   O5    S    
C10   C11   A    
C15   C16   A    
Cu2   N1    S    
C3    C5    D    
H12   N3    S    
N1    N2    D    
C12   C13   A    
C7    O7    A    
C6    O5    A    
C7    O8    A    
C7    C9    S    
C14   C18   A    
C9    C20   A    
C8    F2    S    
Cu1   O1    S    
C9    C19   A    
C11   H10   S    
Cu2   O2    S    
H2    N4    S    
C16   C17   A    
C1    C3    S    
Cu1   N2    S    
