data_mof_unit_4761.cif
_audit_creation_date              2012-12-10T16:52:02-0500
_audit_creation_method            fapswitch 2.2
_symmetry_space_group_name_H-M    P1
_symmetry_Int_Tables_number       1
_space_group_crystal_system       triclinic
_cell_length_a                    7.77489
_cell_length_b                    8.561122
_cell_length_c                    14.897903
_cell_angle_alpha                 91.054407
_cell_angle_beta                  86.031853
_cell_angle_gamma                 93.672798
_cell_volume                      987.124738778

loop_
_atom_site_label
_atom_site_type_symbol
_atom_type_description
_atom_site_fract_x
_atom_site_fract_y
_atom_site_fract_z
_atom_type_partial_charge
C1    C     C_R   0.545750 0.794678 0.497590 0.946016
C2    C     C_R   0.562824 0.645450 0.813059 0.423015
C3    C     C_R   0.490910 0.493055 0.232496 -0.195381
C4    C     C_R   0.509090 0.506945 0.767504 -0.195381
C5    C     C_R   0.545168 0.629605 0.187804 -0.228682
C6    C     C_R   0.454832 0.370395 0.812196 -0.228682
C7    C     C_R   0.548470 0.633146 0.095366 0.104079
C8    C     C_R   0.451529 0.366854 0.904634 0.104079
C9    C     C_R   0.497056 0.497215 0.046938 -0.076347
C10   C     C_R   0.502943 0.502785 0.953062 -0.076347
C11   C     C_R   0.440355 0.356092 0.092456 0.032870
C12   C     C_R   0.454250 0.205322 0.502410 0.946016
C13   C     C_R   0.559643 0.643908 0.907544 0.032871
C14   C     C_R   0.603839 0.771614 0.051500 -0.314229
C15   C     C_R   0.396159 0.228386 0.948500 -0.314229
C16   C     C_R   0.610183 0.779270 0.957794 0.469769
C17   C     C_R   0.389815 0.220731 0.042206 0.469769
C18   C     C_2   0.569835 0.958222 0.496323 -0.352979
C19   C     C_2   0.430165 0.041777 0.503676 -0.352979
C20   C     C_R   0.502750 0.501671 0.672562 0.872040
C21   C     C_R   0.497250 0.498329 0.327438 0.872039
C22   C     C_R   0.437176 0.354550 0.186941 0.423015
H1    H     H_    0.585704 0.733586 0.225733 0.166242
H2    H     H_    0.608221 0.768915 0.702303 0.317159
H3    H     H_    0.694656 0.999294 0.960453 0.330478
H4    H     H_    0.305342 0.000707 0.039547 0.330478
H5    H     H_    0.414295 0.266414 0.774267 0.166243
H6    H     H_    0.642452 0.874629 0.090505 0.177095
H7    H     H_    0.357546 0.125371 0.909495 0.177095
H8    H     H_    0.701751 0.009308 0.489388 0.185736
H9    H     H_    0.298249 0.990692 0.510612 0.185736
H10   H     H_    0.013617 0.382672 0.432107 0.201074
H11   H     H_    0.986383 0.617328 0.567893 0.201073
H12   H     H_    0.391784 0.231084 0.297697 0.317158
N1    N     N_2   0.950330 0.457950 0.475660 -0.168446
N2    N     N_2   0.049670 0.542050 0.524340 -0.168446
O1    O     O_R   0.389250 0.738570 0.505970 -0.610515
O2    O     O_3   0.615827 0.782356 0.767935 -0.697822
O3    O     O_3   0.665237 0.917466 0.915059 -0.694760
O4    O     O_3   0.334761 0.082535 0.084941 -0.694760
O5    O     O_R   0.610750 0.261430 0.494030 -0.610515
O6    O     O_R   0.678390 0.711620 0.490370 -0.631311
O7    O     O_R   0.321610 0.288380 0.509630 -0.631311
O8    O     O_R   0.355420 0.513510 0.639950 -0.604931
O9    O     O_R   0.644580 0.486490 0.360050 -0.604931
O10   O     O_R   0.644560 0.486560 0.624350 -0.617969
O11   O     O_R   0.355440 0.513440 0.375650 -0.617968
O12   O     O_3   0.384173 0.217644 0.232065 -0.697822
Zn1   Zn    Zn3+2 0.306940 0.517990 0.510420 0.967799
Zn2   Zn    Zn3+2 0.693060 0.482010 0.489580 0.967798

loop_
_geom_bond_atom_site_label_1
_geom_bond_atom_site_label_2
_ccdc_geom_bond_type
O8    Zn1   S    
C2    C4    A    
C1    O6    A    
C5    C7    A    
C12   O5    A    
C18   H8    S    
C8    C15   A    
O1    Zn1   S    
C9    C10   A    
C2    O2    S    
C11   C22   A    
C22   O12   S    
N1    N2    D    
C5    H1    S    
C1    O1    A    
C19   H9    S    
N1    Zn2   S    
O11   Zn1   S    
C21   O11   A    
H3    O3    S    
C9    C11   A    
H4    O4    S    
C1    C18   S    
O9    Zn2   S    
O6    Zn2   S    
C12   C19   S    
C4    C6    A    
C20   O8    A    
C15   H7    S    
C12   O7    A    
C21   O9    A    
C14   C16   A    
C3    C21   S    
H12   O12   S    
C16   O3    S    
O7    Zn1   S    
H2    O2    S    
C4    C20   S    
H10   N1    S    
C7    C9    A    
O5    Zn2   S    
H11   N2    S    
C8    C10   A    
C18   C19   D    
C13   C16   A    
C15   C17   A    
C2    C13   A    
O10   Zn2   S    
C11   C17   A    
C3    C22   A    
C6    C8    A    
C14   H6    S    
C17   O4    S    
C7    C14   A    
C20   O10   A    
N2    Zn1   S    
C6    H5    S    
C3    C5    A    
C10   C13   A    
