data_mof_unit_66.cif
_audit_creation_date              2012-12-11T16:26:29-0500
_audit_creation_method            fapswitch 2.2
_symmetry_space_group_name_H-M    P1
_symmetry_Int_Tables_number       1
_space_group_crystal_system       monoclinic
_cell_length_a                    13.98789
_cell_length_b                    13.987891
_cell_length_c                    31.885317
_cell_angle_alpha                 90.0
_cell_angle_beta                  90.0
_cell_angle_gamma                 120.000239
_cell_volume                      5402.87316799

loop_
_atom_site_label
_atom_site_type_symbol
_atom_type_description
_atom_site_fract_x
_atom_site_fract_y
_atom_site_fract_z
_atom_type_partial_charge
Br1   Br    Br    0.875921 0.647598 0.855765 -0.267786
Br2   Br    Br    0.647595 0.875918 0.144235 -0.267789
Br3   Br    Br    0.124081 0.771677 0.355765 -0.267788
Br4   Br    Br    0.228322 0.352404 0.144235 -0.267789
Br5   Br    Br    0.911058 0.267595 0.063947 -0.293244
Br6   Br    Br    0.356537 0.088940 0.436053 -0.293243
Br7   Br    Br    0.732404 0.643463 0.063947 -0.293242
Br8   Br    Br    0.911060 0.267595 0.436053 -0.293243
Br9   Br    Br    0.356538 0.088942 0.063947 -0.293243
Br10  Br    Br    0.732404 0.643464 0.436053 -0.293242
Br11  Br    Br    0.267596 0.911063 0.563946 -0.293242
Br12  Br    Br    0.771677 0.124080 0.644235 -0.267786
Br13  Br    Br    0.088934 0.356533 0.936054 -0.293241
Br14  Br    Br    0.643467 0.732403 0.563946 -0.293241
Br15  Br    Br    0.267597 0.911065 0.936054 -0.293241
Br16  Br    Br    0.088937 0.356534 0.563946 -0.293242
Br17  Br    Br    0.643468 0.732402 0.936054 -0.293240
Br18  Br    Br    0.352402 0.228322 0.855764 -0.267786
Br19  Br    Br    0.875920 0.647597 0.644235 -0.267787
Br20  Br    Br    0.771677 0.124079 0.855764 -0.267785
Br21  Br    Br    0.352402 0.228322 0.644235 -0.267787
Br22  Br    Br    0.647596 0.875918 0.355765 -0.267789
Br23  Br    Br    0.124082 0.771677 0.144235 -0.267789
Br24  Br    Br    0.228322 0.352403 0.355765 -0.267788
C1    C     C_R   0.566280 0.444904 0.810214 0.570440
C2    C     C_R   0.444904 0.566280 0.189785 0.570441
C3    C     C_R   0.433720 0.878624 0.310214 0.570439
C4    C     C_R   0.121376 0.555096 0.189785 0.570439
C5    C     C_1   0.002233 0.497513 0.018783 0.076936
C6    C     C_1   0.495278 0.997765 0.481217 0.076936
C7    C     C_1   0.502486 0.504720 0.018783 0.076936
C8    C     C_1   0.002235 0.497513 0.481217 0.076936
C9    C     C_1   0.495279 0.997766 0.018783 0.076936
C10   C     C_1   0.502486 0.504721 0.481217 0.076936
C11   C     C_1   0.497514 0.002237 0.518782 0.076936
C12   C     C_R   0.878624 0.433720 0.689786 0.570439
C13   C     C_1   0.997760 0.495276 0.981218 0.076935
C14   C     C_1   0.504722 0.502485 0.518782 0.076936
C15   C     C_1   0.497515 0.002239 0.981218 0.076935
C16   C     C_1   0.997762 0.495277 0.518782 0.076936
C17   C     C_1   0.504723 0.502484 0.981218 0.076936
C18   C     C_R   0.939159 0.474286 0.850648 -0.007895
C19   C     C_R   0.535126 0.060841 0.649352 -0.007895
C20   C     C_R   0.525714 0.464873 0.850648 -0.007895
C21   C     C_R   0.939159 0.474286 0.649352 -0.007895
C22   C     C_R   0.535126 0.060841 0.850648 -0.007895
C23   C     C_R   0.555096 0.121376 0.810214 0.570439
C24   C     C_R   0.525714 0.464873 0.649352 -0.007895
C25   C     C_R   0.474286 0.939159 0.350648 -0.007895
C26   C     C_R   0.060840 0.535126 0.149352 -0.007895
C27   C     C_R   0.464873 0.525714 0.350648 -0.007895
C28   C     C_R   0.474286 0.939159 0.149352 -0.007895
C29   C     C_R   0.060841 0.535126 0.350648 -0.007895
C30   C     C_R   0.464873 0.525714 0.149352 -0.007895
C31   C     C_R   0.925589 0.550366 0.875858 0.118237
C32   C     C_R   0.624777 0.074411 0.624142 0.118237
C33   C     C_R   0.449633 0.375222 0.875858 0.118237
C34   C     C_R   0.566280 0.444904 0.689786 0.570441
C35   C     C_R   0.925589 0.550366 0.624142 0.118237
C36   C     C_R   0.624777 0.074411 0.875858 0.118237
C37   C     C_R   0.449633 0.375222 0.624142 0.118237
C38   C     C_R   0.550366 0.925589 0.375858 0.118237
C39   C     C_R   0.074410 0.624777 0.124142 0.118237
C40   C     C_R   0.375222 0.449633 0.375858 0.118237
C41   C     C_R   0.550366 0.925589 0.124142 0.118237
C42   C     C_R   0.074411 0.624777 0.375858 0.118237
C43   C     C_R   0.375222 0.449633 0.124142 0.118237
C44   C     C_R   0.949205 0.558277 0.918481 -0.106675
C45   C     C_R   0.878624 0.433720 0.810214 0.570439
C46   C     C_R   0.609071 0.050794 0.581519 -0.106675
C47   C     C_R   0.441722 0.390928 0.918480 -0.106675
C48   C     C_R   0.949206 0.558277 0.581519 -0.106675
C49   C     C_R   0.609071 0.050794 0.918480 -0.106675
C50   C     C_R   0.441722 0.390928 0.581519 -0.106675
C51   C     C_R   0.558277 0.949207 0.418480 -0.106674
C52   C     C_R   0.050791 0.609070 0.081520 -0.106674
C53   C     C_R   0.390929 0.441722 0.418480 -0.106674
C54   C     C_R   0.558278 0.949208 0.081519 -0.106674
C55   C     C_R   0.050792 0.609070 0.418480 -0.106674
C56   C     C_R   0.555096 0.121376 0.689786 0.570440
C57   C     C_R   0.390929 0.441721 0.081520 -0.106674
C58   C     C_R   0.989820 0.495224 0.936493 -0.036226
C59   C     C_R   0.505403 0.010178 0.563507 -0.036226
C60   C     C_R   0.504775 0.494596 0.936493 -0.036226
C61   C     C_R   0.989822 0.495225 0.563507 -0.036226
C62   C     C_R   0.505404 0.010179 0.936493 -0.036227
C63   C     C_R   0.504775 0.494596 0.563507 -0.036226
C64   C     C_R   0.495226 0.989824 0.436493 -0.036225
C65   C     C_R   0.010174 0.505401 0.063508 -0.036225
C66   C     C_R   0.494597 0.504773 0.436493 -0.036225
C67   C     C_R   0.444904 0.566280 0.310214 0.570441
C68   C     C_R   0.495227 0.989825 0.063507 -0.036225
C69   C     C_R   0.010176 0.505402 0.436493 -0.036226
C70   C     C_R   0.494597 0.504773 0.063507 -0.036225
C71   C     C_R   0.019953 0.432658 0.911211 0.204345
C72   C     C_R   0.412704 0.980046 0.588789 0.204345
C73   C     C_R   0.567342 0.587295 0.911211 0.204345
C74   C     C_R   0.019954 0.432659 0.588789 0.204346
C75   C     C_R   0.412704 0.980047 0.911211 0.204345
C76   C     C_R   0.567342 0.587295 0.588789 0.204345
C77   C     C_R   0.432660 0.019956 0.411211 0.204346
C78   C     C_R   0.433720 0.878624 0.189785 0.570440
C79   C     C_R   0.980042 0.412703 0.088789 0.204346
C80   C     C_R   0.587296 0.567340 0.411211 0.204346
C81   C     C_R   0.432661 0.019957 0.088789 0.204346
C82   C     C_R   0.980044 0.412703 0.411211 0.204346
C83   C     C_R   0.587296 0.567340 0.088789 0.204346
C84   C     C_R   0.997282 0.424276 0.867941 0.245775
C85   C     C_R   0.426993 0.002717 0.632059 0.245775
C86   C     C_R   0.575724 0.573006 0.867941 0.245775
C87   C     C_R   0.997283 0.424277 0.632059 0.245775
C88   C     C_R   0.426993 0.002717 0.867941 0.245775
C89   C     C_R   0.121376 0.555096 0.310214 0.570439
C90   C     C_R   0.575724 0.573007 0.632059 0.245775
C91   C     C_R   0.424278 0.997284 0.367941 0.245776
C92   C     C_R   0.002715 0.426992 0.132059 0.245775
C93   C     C_R   0.573007 0.575723 0.367941 0.245775
C94   C     C_R   0.424278 0.997285 0.132059 0.245775
C95   C     C_R   0.002715 0.426992 0.367941 0.245775
C96   C     C_R   0.573007 0.575723 0.132059 0.245775
Cl1   Cl    Cl    0.953502 0.308378 0.164173 -0.351584
Cl2   Cl    Cl    0.308378 0.953504 0.835828 -0.351584
Cl3   Cl    Cl    0.046497 0.354876 0.664172 -0.351584
Cl4   Cl    Cl    0.645126 0.691621 0.835828 -0.351583
Cl5   Cl    Cl    0.354878 0.046498 0.335827 -0.351584
Cl6   Cl    Cl    0.691621 0.645124 0.164172 -0.351583
Cl7   Cl    Cl    0.953502 0.308378 0.335828 -0.351584
Cl8   Cl    Cl    0.354878 0.046498 0.164173 -0.351584
Cl9   Cl    Cl    0.691621 0.645124 0.335828 -0.351583
Cl10  Cl    Cl    0.308378 0.953503 0.664172 -0.351584
Cl11  Cl    Cl    0.046496 0.354876 0.835828 -0.351584
Cl12  Cl    Cl    0.645125 0.691621 0.664172 -0.351584
Cr1   Cr    Cr6+3 0.504240 0.249200 0.750000 1.206320
Cr2   Cr    Cr6+3 0.744960 0.495760 0.750000 1.206320
Cr3   Cr    Cr6+3 0.750800 0.255040 0.750000 1.206320
Cr4   Cr    Cr6+3 0.249200 0.504240 0.250000 1.206320
Cr5   Cr    Cr6+3 0.495760 0.744960 0.250000 1.206320
Cr6   Cr    Cr6+3 0.255040 0.750800 0.250000 1.206320
H1    H     H_    0.067424 0.679243 0.062003 0.192319
H2    H     H_    0.679244 0.067427 0.937997 0.192319
H3    H     H_    0.932573 0.611817 0.562003 0.192319
H4    H     H_    0.388182 0.320755 0.937997 0.192319
H5    H     H_    0.611817 0.932574 0.437997 0.192319
H6    H     H_    0.320756 0.388181 0.062003 0.192319
H7    H     H_    0.067425 0.679243 0.437997 0.192319
H8    H     H_    0.611818 0.932575 0.062003 0.192319
H9    H     H_    0.320756 0.388181 0.437997 0.192319
H10   H     H_    0.679244 0.067427 0.562003 0.192319
H11   H     H_    0.932572 0.611817 0.937997 0.192319
H12   H     H_    0.388182 0.320755 0.562003 0.192319
O1    O     O_R   0.480350 0.140770 0.796330 -0.424396
O2    O     O_R   0.140770 0.480350 0.203670 -0.424395
O3    O     O_R   0.519650 0.660420 0.296330 -0.424395
O4    O     O_R   0.339580 0.859230 0.203670 -0.424395
O5    O     O_R   0.514930 0.348530 0.793250 -0.468439
O6    O     O_R   0.833600 0.485070 0.706750 -0.468439
O7    O     O_R   0.651470 0.166400 0.793250 -0.468439
O8    O     O_R   0.514930 0.348530 0.706750 -0.468439
O9    O     O_R   0.833600 0.485070 0.793250 -0.468439
O10   O     O_R   0.651470 0.166400 0.706750 -0.468439
O11   O     O_R   0.348530 0.514930 0.293250 -0.468439
O12   O     O_R   0.660420 0.519650 0.703670 -0.424396
O13   O     O_R   0.485070 0.833600 0.206750 -0.468439
O14   O     O_R   0.166400 0.651470 0.293250 -0.468439
O15   O     O_R   0.348530 0.514930 0.206750 -0.468439
O16   O     O_R   0.485070 0.833600 0.293250 -0.468439
O17   O     O_R   0.166400 0.651470 0.206750 -0.468439
O18   O     O_3   0.666667 0.333333 0.750000 -0.329817
O19   O     O_3   0.333333 0.666667 0.250000 -0.329817
O20   O     O_R   0.859230 0.339580 0.796330 -0.424395
O21   O     O_R   0.480350 0.140770 0.703670 -0.424396
O22   O     O_R   0.660420 0.519650 0.796330 -0.424396
O23   O     O_R   0.859230 0.339580 0.703670 -0.424395
O24   O     O_R   0.140770 0.480350 0.296330 -0.424395
O25   O     O_R   0.519650 0.660420 0.203670 -0.424395
O26   O     O_R   0.339580 0.859230 0.296330 -0.424395

loop_
_geom_bond_atom_site_label_1
_geom_bond_atom_site_label_2
_ccdc_geom_bond_type
Br11  C72   S    
C20   C86   A    
Br5   C79   S    
C2    O15   A    
Cr3   O7    S    
C22   C88   A    
C82   C95   A    
C1    O5    A    
C40   C53   A    
Cr1   O1    S    
Br2   C41   S    
C5    C65   S    
C48   C61   A    
C55   H7    S    
C74   C87   A    
C42   C55   A    
C28   C78   S    
C9    C15   T    
C6    C11   T    
Br13  C71   S    
C60   C73   A    
Cr3   O23   S    
Cr5   O25   S    
C30   C96   A    
C69   C82   A    
C96   Cl6   S    
Cr3   O20   S    
C39   C52   A    
C75   C88   A    
Br9   C81   S    
C36   C49   A    
Cr1   O8    S    
Br6   C77   S    
C28   C41   A    
C67   O3    A    
C84   Cl11  S    
C61   C74   A    
C4    O17   A    
C27   C67   S    
C4    C26   S    
C57   H6    S    
Cr2   O6    S    
C78   O13   A    
Cr1   O5    S    
Cr3   O18   S    
C58   C71   A    
C50   C63   A    
Br20  C36   S    
C93   Cl9   S    
C78   O4    A    
Br21  C37   S    
C35   C48   A    
C86   Cl4   S    
Cr6   O4    S    
Br23  C39   S    
Cr2   O9    S    
C12   O23   A    
Br24  C40   S    
Cr2   O22   S    
C65   C79   A    
Cr6   O19   S    
C26   C39   A    
C94   Cl8   S    
C2    C30   S    
C1    C20   S    
Cr5   O16   S    
Cr4   O2    S    
C29   C89   S    
C64   C77   A    
Cr4   O11   S    
C48   H3    S    
C70   C83   A    
Cr4   O24   S    
C53   C66   A    
C92   Cl1   S    
C87   Cl3   S    
C51   C64   A    
C76   C90   A    
C57   C70   A    
C34   O8    A    
C9    C68   S    
Cr5   O13   S    
C31   C44   A    
C30   C43   A    
Br19  C35   S    
C19   C56   S    
C17   C60   S    
C18   C45   S    
Cr2   O12   S    
Cr6   O17   S    
C16   C61   S    
C47   C60   A    
C10   C66   S    
C88   Cl2   S    
C62   C75   A    
C18   C31   A    
Br22  C38   S    
C19   C32   A    
Br18  C33   S    
C20   C33   A    
C26   C92   A    
C21   C87   A    
Cr5   O3    S    
C12   C21   S    
C33   C47   A    
C24   C34   S    
C46   C59   A    
C66   C80   A    
Br12  C32   S    
C51   H5    S    
C47   H4    S    
C1    O22   A    
C25   C91   A    
C23   O1    A    
C43   C57   A    
C32   C46   A    
Cr6   O26   S    
C77   C91   A    
Br7   C83   S    
C81   C94   A    
Cr1   O18   S    
Br3   C42   S    
C46   H10   S    
C6    C64   S    
C34   O12   A    
C83   C96   A    
C12   O6    A    
C24   C90   A    
C63   C76   A    
C23   O7    A    
C52   H1    S    
C53   H9    S    
C22   C23   S    
C21   C35   A    
C11   C59   S    
C41   C54   A    
C7    C17   T    
C22   C36   A    
C10   C14   T    
C90   Cl12  S    
Cr5   O19   S    
C50   H12   S    
C27   C40   A    
Br15  C75   S    
Br8   C82   S    
C3    O26   A    
Br4   C43   S    
C29   C95   A    
C55   C69   A    
C49   H2    S    
C37   C50   A    
C7    C70   S    
C72   C85   A    
C52   C65   A    
C91   Cl5   S    
C14   C63   S    
Cr3   O10   S    
C54   C68   A    
C4    O2    A    
Br10  C80   S    
C79   C92   A    
Br1   C31   S    
C44   C58   A    
C29   C42   A    
C89   O14   A    
C73   C86   A    
Br16  C74   S    
C24   C37   A    
Br14  C76   S    
C18   C84   A    
C2    O25   A    
C59   C72   A    
C45   O9    A    
C8    C69   S    
Cr2   O18   S    
C45   O20   A    
C8    C16   T    
Cr1   O21   S    
C13   C58   S    
C49   C62   A    
C56   O10   A    
C71   C84   A    
C54   H8    S    
C3    O16   A    
C68   C81   A    
C56   O21   A    
Cr4   O19   S    
Cr4   O15   S    
C5    C13   T    
C85   Cl10  S    
C27   C93   A    
C67   O11   A    
C25   C38   A    
Cr6   O14   S    
C19   C85   A    
C15   C62   S    
C44   H11   S    
Br17  C73   S    
C80   C93   A    
C38   C51   A    
C3    C25   S    
C28   C94   A    
C89   O24   A    
C95   Cl7   S    
