data_mof_unit_2398.cif
_audit_creation_date              2012-12-11T17:12:53-0500
_audit_creation_method            fapswitch 2.2
_symmetry_space_group_name_H-M    P1
_symmetry_Int_Tables_number       1
_space_group_crystal_system       triclinic
_cell_length_a                    17.28681
_cell_length_b                    6.882023
_cell_length_c                    14.401866
_cell_angle_alpha                 89.433076
_cell_angle_beta                  110.334777
_cell_angle_gamma                 90.665998
_cell_volume                      1606.44457359

loop_
_atom_site_label
_atom_site_type_symbol
_atom_type_description
_atom_site_fract_x
_atom_site_fract_y
_atom_site_fract_z
_atom_type_partial_charge
O1    O     O_R   0.314130 0.635770 0.168990 -0.534350
O2    O     O_R   0.685870 0.364230 0.831010 -0.537352
O3    O     O_R   0.185870 0.135770 0.331010 -0.549426
O4    O     O_R   0.814130 0.864230 0.668990 -0.547844
O5    O     O_R   0.146800 0.302460 0.139760 -0.540999
O6    O     O_R   0.853200 0.697540 0.860240 -0.540626
O7    O     O_R   0.353200 0.802460 0.360240 -0.533836
O8    O     O_R   0.646800 0.197540 0.639760 -0.538621
C1    C     C_R   0.114006 0.475630 0.112774 0.713604
C2    C     C_R   0.886006 0.524375 0.887201 0.739138
C3    C     C_R   0.386001 0.976035 0.387204 0.740193
C4    C     C_R   0.614004 0.023963 0.612785 0.716325
O9    O     O_R   0.311100 0.305780 0.157130 -0.547922
O10   O     O_R   0.688900 0.694220 0.842870 -0.548349
O11   O     O_R   0.188900 0.805780 0.342870 -0.539211
O12   O     O_R   0.811100 0.194220 0.657130 -0.534119
O13   O     O_R   0.351340 0.139640 0.348510 -0.539493
O14   O     O_R   0.648660 0.860360 0.651490 -0.540183
O15   O     O_R   0.148660 0.639640 0.151490 -0.536615
O16   O     O_R   0.851340 0.360360 0.848510 -0.532227
C5    C     C_R   0.334558 0.476256 0.138117 0.706252
C6    C     C_R   0.665457 0.523924 0.861684 0.716476
C7    C     C_R   0.165076 0.973092 0.361383 0.720497
C8    C     C_R   0.834870 0.027037 0.638264 0.708936
C9    C     C_1   0.533584 0.008663 0.533063 -0.167747
C10   C     C_1   0.466420 0.991329 0.466928 -0.162118
C11   C     C_1   0.966444 0.509169 0.966949 -0.160404
C12   C     C_1   0.033568 0.490834 0.033026 -0.164498
O17   O     O_3   0.263010 0.470920 0.312770 -0.367098
O18   O     O_3   0.736990 0.529080 0.687230 -0.370040
O19   O     O_3   0.236990 0.970920 0.187230 -0.370501
O20   O     O_3   0.763010 0.029080 0.812770 -0.366847
V1    V     V_3+5 0.247590 0.194450 0.238360 1.439719
V2    V     V_3+5 0.752410 0.805550 0.761640 1.448414
V3    V     V_3+5 0.252410 0.694450 0.261640 1.459869
V4    V     V_3+5 0.747590 0.305550 0.738360 1.465449
C13   C     C_R   0.113564 0.976134 0.424362 -0.200956
C14   C     C_R   0.887352 0.026925 0.575909 -0.189717
C15   C     C_R   0.386563 0.494387 0.075699 -0.192517
C16   C     C_R   0.614006 0.508292 0.924473 -0.196270
C17   C     C_R   0.917378 0.180126 0.439025 0.517114
C18   C     C_R   0.092189 0.852494 0.572407 0.490657
C19   C     C_R   0.595814 0.362197 0.069940 0.496093
C20   C     C_R   0.412094 0.668813 0.941293 0.520725
C21   C     C_R   0.868493 0.160008 0.497671 -0.209778
C22   C     C_R   0.140251 0.870168 0.512511 -0.244092
C23   C     C_R   0.643431 0.396995 0.010612 -0.239386
C24   C     C_R   0.364002 0.632407 0.999760 -0.216731
C25   C     C_R   0.958506 0.910676 0.597846 -0.091705
C26   C     C_R   0.036460 0.069723 0.394412 -0.079812
C27   C     C_R   0.534424 0.589079 0.895608 -0.077471
C28   C     C_R   0.460695 0.390349 0.096010 -0.093374
C29   C     C_R   0.012547 0.937690 0.542578 -0.064402
C30   C     C_R   0.987939 0.061723 0.456986 -0.040332
C31   C     C_R   0.485925 0.563289 0.957605 -0.037034
C32   C     C_R   0.513921 0.434466 0.041268 -0.062246
H1    H     H_    0.199711 0.799253 0.535631 0.161879
H2    H     H_    0.814772 0.251689 0.481678 0.129772
H3    H     H_    0.307868 0.714644 0.985464 0.127271
H4    H     H_    0.704703 0.335479 0.032525 0.157200
C33   C     C_2   0.004308 0.155460 0.293255 0.474295
H5    H     H_    0.041190 0.258793 0.268938 0.028078
O21   O     O_2   0.937090 0.105278 0.235071 -0.509520
C34   C     C_2   0.974195 0.762491 0.677736 0.495539
H6    H     H_    0.973306 0.803090 0.749976 0.006746
O22   O     O_2   0.984321 0.592416 0.661807 -0.523910
C35   C     C_2   0.480045 0.237186 0.173957 0.485475
H7    H     H_    0.475580 0.268320 0.245642 0.007989
O23   O     O_2   0.496738 0.072532 0.156810 -0.523618
C36   C     C_2   0.500849 0.681381 0.796050 0.470870
H8    H     H_    0.536582 0.790497 0.773440 0.025196
O24   O     O_2   0.434466 0.628885 0.736810 -0.508542
O25   O     O_3   0.895875 0.320533 0.365283 -0.549577
C37   C     C_3   0.927708 0.501532 0.407481 -0.236361
H9    H     H_    0.995663 0.496285 0.447025 0.152926
H10   H     H_    0.896018 0.551546 0.458089 0.165710
H11   H     H_    0.916067 0.610913 0.347171 0.174440
O26   O     O_3   0.125078 0.751930 0.660760 -0.535701
C38   C     C_3   0.175099 0.880593 0.733053 -0.179356
H12   H     H_    0.139149 0.006653 0.743394 0.112913
H13   H     H_    0.229204 0.931902 0.714288 0.171363
H14   H     H_    0.198999 0.801773 0.804813 0.172653
O27   O     O_3   0.631315 0.257956 0.156633 -0.533250
C39   C     C_3   0.678635 0.386643 0.230864 -0.172867
H15   H     H_    0.640155 0.505789 0.242913 0.113603
H16   H     H_    0.731744 0.447850 0.213066 0.167587
H17   H     H_    0.704021 0.304503 0.301464 0.170189
O28   O     O_3   0.386231 0.811578 0.869112 -0.549977
C40   C     C_3   0.412612 0.994100 0.913135 -0.235966
H18   H     H_    0.480739 0.999620 0.951539 0.163341
H19   H     H_    0.380261 0.031398 0.965112 0.160009
H20   H     H_    0.396769 0.106784 0.854041 0.170392

loop_
_geom_bond_atom_site_label_1
_geom_bond_atom_site_label_2
_ccdc_geom_bond_type
C2    C11   S    
C16   C23   A    
C31   C32   A    
O1    C5    A    
C19   O27   S    
O25   C37   S    
O3    C7    A    
C39   H17   S    
C14   C25   A    
C29   C30   A    
O7    C3    A    
O5    C1    A    
C26   C30   A    
C37   H10   S    
O20   V4    S    
C39   H16   S    
C18   C29   A    
O8    V4    S    
O4    C8    A    
O3    V1    S    
O17   V1    S    
C18   C22   A    
C33   O21   D    
C14   C21   A    
C23   H4    S    
C1    O15   A    
C2    O16   A    
C37   H11   S    
O5    V1    S    
O2    C6    A    
C8    C14   S    
O19   V1    S    
C36   H8    S    
C27   C36   S    
C40   H19   S    
O11   C7    A    
C15   C28   A    
O12   C8    A    
C25   C34   S    
O13   V1    S    
O11   V3    S    
O4    V2    S    
C21   H2    S    
C37   H9    S    
O18   V2    S    
C35   H7    S    
C39   H15   S    
C38   H13   S    
O26   C38   S    
C3    C10   S    
C9    C10   T    
C7    C13   S    
O6    V2    S    
C35   O23   D    
O20   V2    S    
O10   V2    S    
O27   C39   S    
C5    C15   S    
O8    C4    A    
C6    C16   S    
O9    C5    A    
C40   H20   S    
O14   V2    S    
C28   C35   S    
C18   O26   S    
C22   H1    S    
O19   V3    S    
O1    V3    S    
C24   H3    S    
O2    V4    S    
C3    O13   A    
O7    V3    S    
O6    C2    A    
C38   H14   S    
C16   C27   A    
O17   V3    S    
O18   V4    S    
C4    C9    S    
C34   H6    S    
O10   C6    A    
C13   C22   A    
O15   V3    S    
O12   V4    S    
C13   C26   A    
C20   C31   A    
C25   C29   A    
C27   C31   A    
C33   H5    S    
C17   C30   A    
C17   O25   S    
C38   H12   S    
O16   V4    S    
C28   C32   A    
C19   C32   A    
O28   C40   S    
O9    V1    S    
C4    O14   A    
C11   C12   T    
C26   C33   S    
C17   C21   A    
C36   O24   D    
C40   H18   S    
C20   O28   S    
C19   C23   A    
C20   C24   A    
C1    C12   S    
C34   O22   D    
C15   C24   A    
