data_mof_unit_716.cif
_audit_creation_date              2012-12-10T16:51:29-0500
_audit_creation_method            fapswitch 2.2
_symmetry_space_group_name_H-M    P1
_symmetry_Int_Tables_number       1
_space_group_crystal_system       triclinic
_cell_length_a                    7.823029
_cell_length_b                    8.563735
_cell_length_c                    12.198827
_cell_angle_alpha                 92.344838
_cell_angle_beta                  100.839254
_cell_angle_gamma                 94.310136
_cell_volume                      799.136212488

loop_
_atom_site_label
_atom_site_type_symbol
_atom_type_description
_atom_site_fract_x
_atom_site_fract_y
_atom_site_fract_z
_atom_type_partial_charge
C1    C     C_R   0.044815 0.794805 0.497421 0.987946
C2    C     C_R   0.439229 0.584255 0.965960 0.085087
C3    C     C_R   0.327288 0.492319 0.879027 0.088299
C4    C     C_R   0.598870 0.524917 0.015825 -0.013917
C5    C     C_R   0.659598 0.397134 0.959279 0.164735
C6    C     C_R   0.549731 0.312452 0.870425 -0.220290
C7    C     C_R   0.380769 0.351897 0.837158 -0.205286
C8    C     C_R   0.691541 0.574973 0.124308 -0.092379
C9    C     C_R   0.915121 0.397269 0.103131 -0.174315
C10   C     C_R   0.169798 0.549222 0.827813 -0.109359
C11   C     C_2   0.068113 0.958610 0.496017 -0.350710
C12   C     C_R   0.106877 0.509677 0.709900 0.835920
C13   C     C_2   0.932440 0.041499 0.505172 -0.380783
C14   C     C_R   0.955378 0.205234 0.503001 0.954833
C15   C     C_R   0.894446 0.497557 0.290258 0.902045
C16   C     C_R   0.824089 0.345659 0.998104 -0.197889
C17   C     C_R   0.840030 0.498286 0.169729 -0.109983
C18   C     C_R   0.110942 0.683648 0.872782 -0.183657
C19   C     C_R   0.223573 0.778251 0.954318 -0.134414
C20   C     C_R   0.390639 0.734747 0.994265 -0.131936
H1    H     H_    0.032857 0.342910 0.137238 0.171641
H2    H     H_    0.804808 0.989743 0.514041 0.174107
H3    H     H_    0.470107 0.375447 0.416530 0.197410
H4    H     H_    0.529899 0.624572 0.583463 0.186654
H5    H     H_    0.590861 0.209510 0.831182 0.142511
H6    H     H_    0.874450 0.254275 0.952127 0.135829
H7    H     H_    0.989221 0.727791 0.833775 0.152103
H8    H     H_    0.481438 0.823326 0.043458 0.140489
H9    H     H_    0.186419 0.891257 0.980195 0.145106
H10   H     H_    0.294415 0.275752 0.773874 0.149287
H11   H     H_    0.195788 0.010367 0.487238 0.174627
N1    N     N_2   0.434800 0.456690 0.470850 -0.148787
N2    N     N_2   0.565200 0.543310 0.529150 -0.160925
O1    O     O_R   0.893060 0.738880 0.507150 -0.610486
O2    O     O_R   0.172250 0.711130 0.488470 -0.618000
O3    O     O_R   0.944700 0.520730 0.667600 -0.619195
O4    O     O_R   0.223890 0.492980 0.648920 -0.618818
O5    O     O_R   0.827750 0.288870 0.511530 -0.630811
O6    O     O_R   0.106940 0.261120 0.492850 -0.617421
O7    O     O_R   0.776110 0.507020 0.351080 -0.605486
O8    O     O_R   0.055300 0.479270 0.332400 -0.596891
Zn1   Zn    Zn3+2 0.813580 0.518530 0.512470 0.958871
Zn2   Zn    Zn3+2 0.186420 0.481470 0.487530 0.971782
C21   C     C_2   0.623748 0.686818 0.199057 0.900050
O9    O     O_2   0.480015 0.657842 0.222953 -0.611086
O10   O     O_R   0.728953 0.821043 0.246076 -0.815983
H12   H     H_    0.670221 0.886898 0.296698 0.339475

loop_
_geom_bond_atom_site_label_1
_geom_bond_atom_site_label_2
_ccdc_geom_bond_type
O4    Zn2   S    
C2    C4    A    
C6    C7    A    
H4    N2    S    
C14   O5    A    
C11   C13   D    
O3    Zn1   S    
C8    C17   A    
O1    Zn1   S    
C4    C8    A    
H3    N1    S    
O7    Zn1   S    
C2    C3    A    
C11   H11   S    
C3    C10   A    
C13   C14   S    
N1    N2    D    
O8    Zn2   S    
C9    H1    S    
C10   C12   S    
C13   H2    S    
C10   C18   A    
N2    Zn1   S    
C9    C17   A    
C9    C16   A    
C21   O10   S    
C1    O1    A    
O5    Zn1   S    
C3    C7    A    
C16   H6    S    
C5    C6    A    
C15   O7    A    
C6    H5    S    
C12   O3    A    
C15   O8    A    
C2    C20   A    
C19   H9    S    
C8    C21   S    
O2    Zn2   S    
C21   O9    D    
C1    O2    A    
C15   C17   S    
C18   C19   A    
C12   O4    A    
C7    H10   S    
O10   H12   S    
C5    C16   A    
O6    Zn2   S    
C20   H8    S    
C14   O6    A    
N1    Zn2   S    
C18   H7    S    
C19   C20   A    
C4    C5    A    
C1    C11   S    
