data_mof_unit_3487.cif
_audit_creation_date              2013-03-05T15:48:18-0500
_audit_creation_method            fapswitch 2.2
_symmetry_space_group_name_H-M    P1
_symmetry_Int_Tables_number       1
_space_group_crystal_system       triclinic
_cell_length_a                    21.142215
_cell_length_b                    7.237916
_cell_length_c                    18.263417
_cell_angle_alpha                 90.139666
_cell_angle_beta                  93.429514
_cell_angle_gamma                 90.145617
_cell_volume                      2789.74648676

loop_
_atom_site_label
_atom_site_type_symbol
_atom_site_description
_atom_site_fract_x
_atom_site_fract_y
_atom_site_fract_z
_atom_type_partial_charge
O1    O     O_R   0.448880 0.506250 0.415280 -0.570276
O2    O     O_R   0.551120 0.006250 0.584720 -0.584527
O3    O     O_R   0.434830 0.174000 0.557310 -0.562266
O4    O     O_R   0.565170 0.674000 0.442690 -0.553940
C1    C     C_R   0.417007 0.344555 0.579686 0.922573
C2    C     C_R   0.582974 0.844599 0.420305 0.921437
O5    O     O_R   0.441680 0.176440 0.414130 -0.583285
O6    O     O_R   0.558320 0.676440 0.585870 -0.564544
O7    O     O_R   0.558020 0.007570 0.440520 -0.548922
O8    O     O_R   0.441980 0.507570 0.559480 -0.542073
C3    C     C_R   0.428288 0.344400 0.388089 1.000424
C4    C     C_R   0.571463 0.845345 0.612071 0.999198
O9    O     O_3   0.538160 0.339670 0.508820 -0.272284
O10   O     O_3   0.461840 0.839670 0.491180 -0.276637
V1    V     V_3+5 0.492920 0.064260 0.498360 1.228293
V2    V     V_3+5 0.507080 0.564260 0.501640 1.241083
C5    C     C_R   0.876747 0.963758 0.687205 0.379990
C6    C     C_R   0.123397 0.466202 0.312673 0.378368
H1    H     H_    0.963784 0.000755 0.752802 0.186040
H2    H     H_    0.035404 0.484130 0.247705 0.186113
H3    H     H_    0.796145 0.900670 0.569321 0.173938
H4    H     H_    0.208726 0.500636 0.427899 0.172904
C7    C     C_R   0.886708 0.940372 0.820034 -0.318030
C8    C     C_R   0.113371 0.441892 0.179877 -0.319716
C9    C     C_R   0.578157 0.866486 0.748622 0.353667
C10   C     C_R   0.418257 0.290039 0.253239 0.359054
C11   C     C_R   0.613171 0.899438 0.814676 -0.213510
C12   C     C_R   0.380524 0.262196 0.188749 -0.215759
C13   C     C_R   0.678802 0.916033 0.817365 -0.160426
C14   C     C_R   0.315719 0.296002 0.185721 -0.161294
C15   C     C_R   0.713048 0.896132 0.753841 0.163076
C16   C     C_R   0.285539 0.365691 0.246867 0.163811
C17   C     C_R   0.677370 0.872683 0.685277 0.071154
C18   C     C_R   0.323200 0.385355 0.314313 0.071898
C19   C     C_R   0.781123 0.910775 0.755560 -0.120404
C20   C     C_R   0.218646 0.405697 0.244450 -0.120382
C21   C     C_R   0.810757 0.927485 0.687699 -0.080834
C22   C     C_R   0.189979 0.442341 0.311796 -0.079238
C23   C     C_R   0.774460 0.901809 0.621458 -0.065229
C24   C     C_R   0.228410 0.461391 0.376845 -0.073450
C25   C     C_R   0.709555 0.871636 0.620340 -0.184516
C26   C     C_R   0.293482 0.436227 0.377890 -0.194398
C27   C     C_R   0.821251 0.907031 0.821551 0.668256
C28   C     C_R   0.179086 0.414801 0.178067 0.667635
C29   C     C_R   0.913520 0.971161 0.753354 -0.355464
C30   C     C_R   0.086228 0.465781 0.246784 -0.355384
C31   C     C_R   0.609937 0.855765 0.682759 -0.352692
C32   C     C_R   0.389611 0.347823 0.317435 -0.353355
H5    H     H_    0.700838 0.954125 0.869818 0.220459
H6    H     H_    0.290345 0.257283 0.135270 0.223167
H7    H     H_    0.589234 0.914087 0.865159 0.190023
H8    H     H_    0.401470 0.211713 0.139870 0.191034
H9    H     H_    0.684504 0.851872 0.567431 0.091655
H10   H     H_    0.320253 0.454007 0.429847 0.101070
C33   C     C_1   0.864573 0.938886 0.132154 -0.260308
C34   C     C_1   0.135434 0.438999 0.867839 -0.258619
C35   C     C_1   0.821729 0.924859 0.175929 0.094786
C36   C     C_1   0.178271 0.424945 0.824061 0.096091
C37   C     C_1   0.771162 0.905793 0.228055 0.036962
C38   C     C_1   0.228828 0.405803 0.771931 0.038721
C39   C     C_1   0.728586 0.889199 0.272044 0.042525
C40   C     C_1   0.271396 0.389140 0.727940 0.043401
C41   C     C_1   0.678028 0.870092 0.324171 0.115636
C42   C     C_1   0.321947 0.369971 0.675812 0.114283
C43   C     C_1   0.635198 0.856015 0.367952 -0.222716
C44   C     C_1   0.364776 0.355886 0.632032 -0.222938
O11   O     O_R   0.058070 0.289240 0.940580 -0.568178
O12   O     O_R   0.941930 0.789240 0.059420 -0.564981
O13   O     O_R   0.058330 0.616740 0.085880 -0.582308
O14   O     O_R   0.941670 0.116740 0.914120 -0.590495
C45   C     C_R   0.072052 0.448962 0.111708 1.053111
C46   C     C_R   0.927978 0.948342 0.888273 1.048426
O15   O     O_R   0.065180 0.619040 0.942700 -0.568192
O16   O     O_R   0.934820 0.119040 0.057300 -0.570457
O17   O     O_R   0.948870 0.787780 0.915270 -0.571501
O18   O     O_R   0.051130 0.287780 0.084730 -0.584117
C47   C     C_R   0.083187 0.450345 0.920185 0.966259
C48   C     C_R   0.916823 0.950302 0.079811 0.963463
O19   O     O_3   0.961870 0.453310 0.991210 -0.275555
O20   O     O_3   0.038130 0.953310 0.008790 -0.278747
V3    V     V_3+5 0.007070 0.728770 0.001630 1.211442
V4    V     V_3+5 0.992930 0.228770 0.998370 1.201477
N1    N     N_R   0.907068 0.999240 0.620256 0.242787
O21   O     O_R   0.884064 0.123355 0.574686 -0.366504
O22   O     O_R   0.963385 0.933879 0.611359 -0.329857
N2    N     N_R   0.092327 0.486930 0.380088 0.241561
O23   O     O_R   0.102275 0.367226 0.432546 -0.354254
O24   O     O_R   0.045766 0.603148 0.383879 -0.337127
F1    F     F_    0.799296 0.858667 0.887098 -0.728858
F2    F     F_    0.203192 0.414431 0.110930 -0.730996
N3    N     N_R   0.510174 0.851616 0.749268 0.230217
O25   O     O_R   0.478924 0.735499 0.706224 -0.399673
O26   O     O_R   0.479943 0.939234 0.798702 -0.374485
N4    N     N_R   0.485286 0.253588 0.253080 0.232276
O27   O     O_R   0.525818 0.353345 0.292469 -0.397123
O28   O     O_R   0.506620 0.133579 0.207497 -0.378918

loop_
_geom_bond_atom_site_label_1
_geom_bond_atom_site_label_2
_geom_bond_distance
_ccdc_geom_bond_type
C10   N4    1.442307 S    
C22   C24   1.404887 A    
C41   C43   1.247495 T    
C7    C29   1.391890 A    
C11   C13   1.390392 A    
O11   C47   1.342783 A    
O2    C4    1.330609 A    
C2    O7    1.352913 A    
O3    V1    1.859399 S    
C23   C25   1.387898 A    
C13   H5    1.074897 S    
O5    C3    1.331429 A    
C27   F1    1.356012 S    
O12   V3    1.837642 S    
C16   C20   1.442430 A    
C19   C21   1.427044 A    
C5    C29   1.397834 A    
C46   O17   1.329702 A    
C45   O18   1.329634 A    
O20   V3    1.752960 S    
N2    O24   1.301362 A    
C35   C37   1.479845 S    
C36   C38   1.479860 S    
C7    C27   1.406097 A    
C38   C40   1.247641 T    
O13   C45   1.330250 A    
C40   C42   1.479776 S    
C2    C43   1.505462 S    
C18   C26   1.401772 A    
O1    C3    1.333104 A    
C15   C17   1.432187 A    
C19   C27   1.432139 A    
C9    C31   1.414536 A    
C10   C32   1.414277 A    
C24   C26   1.387240 A    
C14   H6    1.074301 S    
O6    V2    1.997342 S    
C3    C32   1.486049 S    
O16   V4    1.859010 S    
C4    C31   1.485801 S    
C6    C30   1.397308 A    
O15   V3    1.859436 S    
C11   H7    1.083094 S    
O12   C48   1.343178 A    
C9    N3    1.441814 S    
C37   C39   1.247627 T    
O4    C2    1.360882 A    
O18   V4    1.986451 S    
N3    O25   1.301040 A    
C33   C48   1.505752 S    
N2    O23   1.301399 A    
O17   V3    1.989450 S    
C5    C21   1.419571 A    
C34   C47   1.505767 S    
C5    N1    1.437495 S    
C42   C44   1.247511 T    
O4    V2    1.858976 S    
N3    O26   1.301580 A    
N1    O21   1.301398 A    
H3    C23   1.081276 S    
O6    C4    1.334266 A    
H4    C24   1.081213 S    
C39   C41   1.479759 S    
O1    V2    1.984935 S    
C6    N2    1.437442 S    
N4    O28   1.301694 A    
O2    V1    1.987885 S    
C25   H9    1.082783 S    
N1    O22   1.301346 A    
C33   C35   1.247614 T    
C17   C31   1.428607 A    
C15   C19   1.441357 A    
C20   C28   1.432863 A    
C18   C32   1.428617 A    
C20   C22   1.427912 A    
C28   F2    1.355712 S    
C7    C46   1.478905 S    
C1    C44   1.505494 S    
O3    C1    1.360598 A    
O19   V4    1.756643 S    
H1    C29   1.084155 S    
C9    C11   1.396798 A    
C10   C12   1.396395 A    
C8    C30   1.391319 A    
C12   C14   1.390271 A    
C6    C22   1.419722 A    
C17   C25   1.402194 A    
C1    O8    1.352543 A    
C13   C15   1.411087 A    
O8    V2    1.830791 S    
C26   H10   1.082640 S    
C14   C16   1.411676 A    
C12   H8    1.083075 S    
C8    C28   1.405953 A    
O5    V1    2.002620 S    
C34   C36   1.247628 T    
O7    V1    1.831207 S    
N4    O27   1.301446 A    
O14   V4    1.997384 S    
O13   V3    2.002654 S    
O11   V4    1.837200 S    
C21   C23   1.405037 A    
O16   C48   1.350632 A    
O9    V2    1.757155 S    
O15   C47   1.350372 A    
O10   V1    1.753469 S    
O14   C46   1.330891 A    
H2    C30   1.084156 S    
C8    C45   1.478589 S    
C16   C18   1.432744 A    
