data_mof_unit_4768.cif
_audit_creation_date              2013-03-05T16:36:42-0500
_audit_creation_method            fapswitch 2.2
_symmetry_space_group_name_H-M    P1
_symmetry_Int_Tables_number       1
_space_group_crystal_system       triclinic
_cell_length_a                    7.772017
_cell_length_b                    9.096541
_cell_length_c                    17.047372
_cell_angle_alpha                 89.563834
_cell_angle_beta                  91.727053
_cell_angle_gamma                 90.01308
_cell_volume                      1204.64075125

loop_
_atom_site_label
_atom_site_type_symbol
_atom_site_description
_atom_site_fract_x
_atom_site_fract_y
_atom_site_fract_z
_atom_type_partial_charge
O1    O     O_R   0.642760 0.288400 0.500000 -0.568565
O2    O     O_R   0.357240 0.711600 0.500000 -0.567608
O3    O     O_R   0.357190 0.288380 0.500000 -0.579882
O4    O     O_R   0.642810 0.711620 0.500000 -0.578687
C1    C     C_R   0.499972 0.219969 0.500000 0.847908
C2    C     C_R   0.500028 0.780031 0.499996 0.849414
O5    O     O_R   0.658410 0.498660 0.613920 -0.573236
O6    O     O_R   0.341590 0.501340 0.386080 -0.574059
O7    O     O_R   0.372840 0.498650 0.613930 -0.549157
O8    O     O_R   0.627160 0.501350 0.386070 -0.543285
C3    C     C_R   0.517274 0.500668 0.651573 0.842607
C4    C     C_R   0.482715 0.498804 0.348453 0.843534
Cu1   Cu    Cu3+1 0.669080 0.500010 0.500000 1.095915
Cu2   Cu    Cu3+1 0.330920 0.499990 0.500000 1.094842
N1    N     N_1   0.076820 0.499970 0.500010 -0.004800
N2    N     N_1   0.923180 0.500030 0.499990 -0.005056
C5    C     C_R   0.516730 0.492466 0.737903 -0.168170
C6    C     C_R   0.483084 0.503520 0.262073 -0.210983
C7    C     C_R   0.369816 0.535347 0.779311 0.304992
C8    C     C_R   0.628813 0.456564 0.221062 0.306397
C9    C     C_R   0.361927 0.506113 0.860483 -0.124485
C10   C     C_R   0.635819 0.480322 0.139376 -0.109414
C11   C     C_R   0.505980 0.442011 0.900583 0.251140
C12   C     C_R   0.491742 0.542808 0.098559 0.153828
C13   C     C_R   0.649020 0.394619 0.858291 -0.012952
C14   C     C_R   0.349473 0.593524 0.140110 -0.012147
C15   C     C_R   0.654462 0.423642 0.777913 -0.282521
C16   C     C_R   0.345534 0.571002 0.221276 -0.160845
N3    N     N_2   0.512287 0.431656 0.983641 -0.191771
N4    N     N_2   0.486216 0.552507 0.015489 -0.270933
C17   C     C_1   0.499983 0.065356 0.499995 -0.121177
C18   C     C_1   0.500018 0.934646 0.499997 -0.120615
H1    H     H_    0.763717 0.385790 0.745519 0.202105
H2    H     H_    0.237398 0.611387 0.253520 0.232332
N5    N     N_R   0.770317 0.386694 0.262516 0.170852
O9    O     O_R   0.749080 0.259159 0.295915 -0.321433
O10   O     O_R   0.915773 0.455903 0.272561 -0.313088
N6    N     N_R   0.228127 0.606757 0.738774 0.176108
O11   O     O_R   0.249154 0.735642 0.706857 -0.328403
O12   O     O_R   0.082697 0.537838 0.727998 -0.344038
C19   C     C_2   0.794867 0.447374 0.096164 0.600360
H3    H     H_    0.821995 0.507901 0.042829 0.081225
O13   O     O_2   0.895352 0.351408 0.118168 -0.454367
C20   C     C_2   0.202355 0.535692 0.903982 0.399531
H4    H     H_    0.174626 0.471078 0.955886 0.080371
O14   O     O_2   0.102529 0.633549 0.883984 -0.481162
C21   C     C_2   0.794707 0.312012 0.895394 0.418612
H5    H     H_    0.916708 0.306216 0.866167 0.083119
O15   O     O_2   0.778604 0.244048 0.956718 -0.487919
C22   C     C_2   0.205785 0.673126 0.099196 0.428369
H6    H     H_    0.215404 0.705666 0.038261 0.114171
O16   O     O_2   0.075585 0.705747 0.133467 -0.516972

loop_
_geom_bond_atom_site_label_1
_geom_bond_atom_site_label_2
_geom_bond_distance
_ccdc_geom_bond_type
C22   O16   1.221375 D    
O7    Cu2   1.959583 S    
N3    N4    1.249054 D    
C7    N6    1.435198 S    
C13   C15   1.395364 A    
C9    C20   1.489626 S    
C19   O13   1.220801 D    
C19   H3    1.085419 S    
C13   C21   1.482153 S    
C2    C18   1.406458 S    
C17   C18   1.189009 T    
O6    C4    1.287499 A    
C9    C11   1.417357 A    
C22   H6    1.082706 S    
C16   H2    1.083745 S    
C21   O15   1.220148 D    
Cu1   Cu2   2.628186 S    
C15   H1    1.084356 S    
O5    C3    1.287704 A    
O7    C3    1.276319 A    
C12   C14   1.410530 A    
O2    C2    1.272291 A    
O3    Cu2   1.935763 S    
O8    C4    1.276278 A    
O1    C1    1.272288 A    
C11   N3    1.417707 S    
N6    O12   1.301244 A    
C8    C10   1.410258 A    
C6    C8    1.416517 A    
C14   C22   1.484472 S    
N6    O11   1.301102 A    
O2    Cu2   1.935711 S    
C10   C12   1.417187 A    
C1    C17   1.406449 S    
C10   C19   1.489601 S    
O1    Cu1   1.935712 S    
C12   N4    1.417569 S    
N1    N2    1.194084 T    
C5    C15   1.397434 A    
C21   H5    1.085817 S    
O5    Cu1   1.946247 S    
C11   C13   1.412376 A    
C6    C16   1.397261 A    
C20   H4    1.085511 S    
O4    C2    1.272404 A    
Cu1   N2    1.974874 S    
C4    C6    1.472938 S    
O4    Cu1   1.935763 S    
Cu2   N1    1.974874 S    
C5    C7    1.416742 A    
O6    Cu2   1.946249 S    
N5    O10   1.301276 A    
C7    C9    1.410253 A    
C8    N5    1.435091 S    
C14   C16   1.398447 A    
C3    C5    1.473156 S    
N5    O9    1.301085 A    
C20   O14   1.220785 D    
O3    C1    1.272406 A    
O8    Cu1   1.959584 S    
