data_mof_unit_3457.cif
_audit_creation_date              2012-12-10T17:01:11-0500
_audit_creation_method            fapswitch 2.2
_symmetry_space_group_name_H-M    P1
_symmetry_Int_Tables_number       1
_space_group_crystal_system       triclinic
_cell_length_a                    15.464898
_cell_length_b                    15.528515
_cell_length_c                    9.730875
_cell_angle_alpha                 89.389246
_cell_angle_beta                  62.60399
_cell_angle_gamma                 89.719141
_cell_volume                      2074.63904558

loop_
_atom_site_label
_atom_site_type_symbol
_atom_type_description
_atom_site_fract_x
_atom_site_fract_y
_atom_site_fract_z
_atom_type_partial_charge
C1    C     C_R   0.376785 0.121999 0.555281 0.839187
C2    C     C_R   0.623215 0.878001 0.444718 0.839187
C3    C     C_R   0.625922 0.119389 0.441953 0.836427
C4    C     C_R   0.374078 0.880611 0.558047 0.836428
C5    C     C_R   0.869883 0.616381 0.559247 0.843482
C6    C     C_R   0.130116 0.383618 0.440753 0.843481
C7    C     C_R   0.131654 0.614891 0.440371 0.843163
C8    C     C_R   0.868346 0.385109 0.559629 0.843164
C9    C     C_2   0.511471 0.999959 0.917231 -0.089053
C10   C     C_2   0.488529 0.000041 0.082769 -0.089054
C11   C     C_2   0.011064 0.496849 0.917900 -0.068882
C12   C     C_2   0.988936 0.503151 0.082099 -0.068881
C13   C     C_2   0.306385 0.811174 0.581014 -0.402726
C14   C     C_2   0.693616 0.188825 0.418986 -0.402729
C15   C     C_2   0.682819 0.801835 0.430922 -0.428301
C16   C     C_2   0.317182 0.198166 0.569078 -0.428298
C17   C     C_2   0.787332 0.326705 0.585885 -0.429190
C18   C     C_2   0.212668 0.673295 0.414114 -0.429186
C19   C     C_2   0.205086 0.318751 0.414280 -0.410324
C20   C     C_2   0.794914 0.681248 0.585720 -0.410321
C21   C     C_2   0.327337 0.746095 0.479380 0.179922
C22   C     C_2   0.672663 0.253906 0.520618 0.179926
C23   C     C_2   0.664326 0.747826 0.552545 0.182523
C24   C     C_2   0.335673 0.252173 0.447454 0.182524
C25   C     C_2   0.749550 0.318296 0.484649 0.185756
C26   C     C_2   0.250451 0.681704 0.515350 0.185756
C27   C     C_2   0.267969 0.324068 0.474804 0.190904
C28   C     C_2   0.732030 0.675931 0.525195 0.190902
Cu1   Cu    Cu3+1 0.522650 0.000000 0.349410 0.919496
Cu2   Cu    Cu3+1 0.477350 0.000000 0.650590 0.919497
Cu3   Cu    Cu3+1 0.022650 0.500000 0.349410 0.929003
Cu4   Cu    Cu3+1 0.977350 0.500000 0.650590 0.929002
H1    H     H_    0.627755 0.999890 0.036844 0.194962
H2    H     H_    0.372245 0.000110 0.963156 0.194962
H3    H     H_    0.127189 0.491507 0.037830 0.193594
H4    H     H_    0.872811 0.508494 0.962169 0.193593
H5    H     H_    0.763345 0.186796 0.315134 0.142621
H6    H     H_    0.236656 0.813203 0.684868 0.142622
H7    H     H_    0.256734 0.211500 0.682037 0.148036
H8    H     H_    0.743269 0.788501 0.317963 0.148035
H9    H     H_    0.244082 0.710178 0.306513 0.147328
H10   H     H_    0.755918 0.289823 0.693487 0.147329
H11   H     H_    0.790448 0.735466 0.658510 0.139407
H12   H     H_    0.209553 0.264535 0.341488 0.139409
H13   H     H_    0.413225 0.000183 0.171742 0.159824
H14   H     H_    0.586775 0.999817 0.828258 0.159825
H15   H     H_    0.914628 0.510281 0.169154 0.139433
H16   H     H_    0.085372 0.489718 0.830845 0.139434
N1    N     N_2   0.443290 0.000000 0.876860 -0.290466
N2    N     N_2   0.556710 0.000000 0.123140 -0.290465
N3    N     N_2   0.943290 0.500000 0.876860 -0.286272
N4    N     N_2   0.056710 0.500000 0.123140 -0.286272
O1    O     O_R   0.422430 0.089640 0.419570 -0.586070
O2    O     O_R   0.577570 0.910360 0.580430 -0.586069
O3    O     O_R   0.577570 0.089640 0.580430 -0.579630
O4    O     O_R   0.422430 0.910360 0.419570 -0.579630
O5    O     O_R   0.922430 0.589640 0.419570 -0.578628
O6    O     O_R   0.077570 0.410360 0.580430 -0.578629
O7    O     O_R   0.077570 0.589640 0.580430 -0.586208
O8    O     O_R   0.922430 0.410360 0.419570 -0.586209
O9    O     O_R   0.384170 0.089650 0.673910 -0.568204
O10   O     O_R   0.615830 0.910350 0.326090 -0.568204
O11   O     O_R   0.615830 0.089650 0.326090 -0.572162
O12   O     O_R   0.384170 0.910350 0.673910 -0.572161
O13   O     O_R   0.884170 0.589650 0.673910 -0.567325
O14   O     O_R   0.115830 0.410350 0.326090 -0.567325
O15   O     O_R   0.115830 0.589650 0.326090 -0.561727
O16   O     O_R   0.884170 0.410350 0.673910 -0.561727
C29   C     C_3   0.572722 0.264959 0.660466 -0.343831
C30   C     C_3   0.550854 0.356831 0.723246 -0.885763
H17   H     H_    0.598416 0.375087 0.775571 0.255315
H18   H     H_    0.560901 0.403384 0.629612 0.263485
H19   H     H_    0.474104 0.360711 0.814770 0.246649
H20   H     H_    0.515170 0.248180 0.627036 0.203707
H21   H     H_    0.566551 0.220481 0.754752 0.213947
C31   C     C_3   0.427278 0.735042 0.339532 -0.343833
C32   C     C_3   0.449145 0.643171 0.276745 -0.885760
H22   H     H_    0.439096 0.596615 0.370377 0.263485
H23   H     H_    0.401584 0.624920 0.224416 0.255315
H24   H     H_    0.525896 0.639291 0.185225 0.246649
H25   H     H_    0.433451 0.779522 0.245249 0.213951
H26   H     H_    0.484830 0.751818 0.372965 0.203705
C33   C     C_3   0.424831 0.244300 0.288490 -0.330556
C34   C     C_3   0.443368 0.321788 0.179637 -0.879222
H27   H     H_    0.383579 0.329160 0.147388 0.257077
H28   H     H_    0.450858 0.381870 0.233963 0.261153
H29   H     H_    0.512173 0.311489 0.071795 0.246647
H30   H     H_    0.490973 0.236269 0.304979 0.211906
H31   H     H_    0.416267 0.186974 0.228525 0.218120
C35   C     C_3   0.575164 0.755697 0.711506 -0.330553
C36   C     C_3   0.556626 0.678207 0.820355 -0.879219
H32   H     H_    0.549144 0.618126 0.766021 0.261152
H33   H     H_    0.616412 0.670837 0.852613 0.257076
H34   H     H_    0.487817 0.688502 0.928193 0.246646
H35   H     H_    0.583725 0.813021 0.771476 0.218121
H36   H     H_    0.509025 0.763727 0.695011 0.211902
C37   C     C_3   0.214162 0.631353 0.667732 -0.348160
C38   C     C_3   0.281438 0.632378 0.744569 -0.878918
H37   H     H_    0.358183 0.620131 0.658531 0.256530
H38   H     H_    0.276656 0.694566 0.802537 0.259176
H39   H     H_    0.258558 0.581226 0.835006 0.233118
H40   H     H_    0.141376 0.655781 0.751681 0.216376
H41   H     H_    0.207563 0.563446 0.644053 0.202646
C39   C     C_3   0.785839 0.368647 0.332267 -0.348160
C40   C     C_3   0.718566 0.367619 0.255426 -0.878903
H42   H     H_    0.723343 0.305428 0.197468 0.259174
H43   H     H_    0.641820 0.379874 0.341461 0.256526
H44   H     H_    0.741452 0.418767 0.164978 0.233117
H45   H     H_    0.792435 0.436555 0.355948 0.202644
H46   H     H_    0.858627 0.344220 0.248320 0.216378
C41   C     C_3   0.723634 0.596415 0.443065 -0.370351
C42   C     C_3   0.638892 0.597678 0.402279 -0.872682
H47   H     H_    0.568207 0.606694 0.507203 0.258279
H48   H     H_    0.649148 0.649581 0.316857 0.257777
H49   H     H_    0.635938 0.535670 0.349493 0.245439
H50   H     H_    0.791654 0.589385 0.333965 0.200965
H51   H     H_    0.713082 0.540178 0.520660 0.191258
C43   C     C_3   0.276362 0.403582 0.556939 -0.370346
C44   C     C_3   0.361108 0.402322 0.597718 -0.872699
H52   H     H_    0.350853 0.350422 0.683144 0.257777
H53   H     H_    0.431790 0.393303 0.492794 0.258283
H54   H     H_    0.364063 0.464332 0.650494 0.245444
H55   H     H_    0.286908 0.459820 0.479349 0.191258
H56   H     H_    0.208343 0.410607 0.666041 0.200965

loop_
_geom_bond_atom_site_label_1
_geom_bond_atom_site_label_2
_ccdc_geom_bond_type
Cu3   O14   S    
C21   C26   S    
Cu1   O11   S    
Cu2   O12   S    
C6    O6    A    
C41   C42   S    
C18   C26   D    
C34   H29   S    
Cu4   O6    S    
Cu3   N4    S    
C42   H48   S    
C37   C38   S    
C35   H35   S    
C5    C20   S    
C32   H22   S    
Cu3   O15   S    
C6    C19   S    
Cu2   O2    S    
C21   C31   S    
C16   H7    S    
C24   C33   S    
C34   H28   S    
C39   H45   S    
C32   H24   S    
C4    C13   S    
C1    O1    A    
C17   H10   S    
C42   H47   S    
C43   C44   S    
C3    O3    A    
C33   C34   S    
C22   C25   S    
C24   C27   S    
C41   H50   S    
C19   C27   D    
C9    C10   S    
C22   C29   S    
C37   H40   S    
Cu4   O16   S    
C44   H53   S    
C15   C23   D    
C33   H30   S    
C9    H14   S    
C16   C24   D    
C4    O4    A    
C11   H16   S    
C10   H13   S    
C12   H15   S    
C7    O7    A    
C39   C40   S    
C12   N4    D    
Cu1   N2    S    
C32   H23   S    
C28   C41   S    
C33   H31   S    
C40   H44   S    
C9    N1    D    
C34   H27   S    
C5    O13   A    
C2    O2    A    
C18   H9    S    
C31   H26   S    
C36   H32   S    
C20   C28   D    
H1    N2    S    
Cu3   O8    S    
Cu4   N3    S    
Cu1   Cu2   S    
C36   H33   S    
C40   H43   S    
Cu3   Cu4   S    
C11   C12   S    
C7    C18   S    
C30   H19   S    
C23   C35   S    
C13   C21   D    
C29   H20   S    
C1    C16   S    
C43   H56   S    
C23   C28   S    
C31   C32   S    
C2    C15   S    
C3    C14   S    
C13   H6    S    
C37   H41   S    
H4    N3    S    
Cu2   N1    S    
C8    O16   A    
C38   H38   S    
C10   N2    D    
C20   H11   S    
C19   H12   S    
Cu2   O3    S    
C44   H54   S    
Cu1   O10   S    
H2    N1    S    
C1    O9    A    
C31   H25   S    
C44   H52   S    
C25   C39   S    
C35   H36   S    
Cu1   O4    S    
C3    O11   A    
C38   H39   S    
C40   H42   S    
C4    O12   A    
C8    C17   S    
C5    O5    A    
C41   H51   S    
C17   C25   D    
C14   C22   D    
C8    O8    A    
C14   H5    S    
C39   H46   S    
Cu3   O5    S    
C35   C36   S    
Cu1   O1    S    
C29   H21   S    
C43   H55   S    
C29   C30   S    
C15   H8    S    
C30   H17   S    
C11   N3    D    
C26   C37   S    
C7    O15   A    
C6    O14   A    
C38   H37   S    
Cu2   O9    S    
H3    N4    S    
C30   H18   S    
C27   C43   S    
Cu4   O7    S    
C42   H49   S    
C2    O10   A    
Cu4   O13   S    
C36   H34   S    
