data_mof_unit_4435.cif
_audit_creation_date              2012-10-26T20:50:50-0400
_audit_creation_method            fapswitch 2.2
_symmetry_space_group_name_H-M    P1
_symmetry_Int_Tables_number       1
_space_group_crystal_system       triclinic
_cell_length_a                    11.053459
_cell_length_b                    10.896755
_cell_length_c                    9.557417
_cell_angle_alpha                 92.240902
_cell_angle_beta                  103.426459
_cell_angle_gamma                 90.206213
_cell_volume                      1118.74649599

loop_
_atom_site_label
_atom_site_type_symbol
_atom_type_description
_atom_site_fract_x
_atom_site_fract_y
_atom_site_fract_z
_atom_type_partial_charge
C1    C     C_R   0.503218 0.262719 0.498267 0.536965
C2    C     C_R   0.407354 0.441139 0.047609 0.367360
C3    C     C_R   0.406439 0.445205 0.897198 -0.012016
C4    C     C_R   0.262579 0.497769 0.440860 0.562196
C5    C     C_R   0.602040 0.539535 0.955852 0.059561
C6    C     C_3   0.656869 0.664408 0.969816 -0.205144
C7    C     C_3   0.652812 0.669368 0.127384 0.142214
C8    C     C_R   0.500752 0.738096 0.502140 0.547597
C9    C     C_R   0.737751 0.497860 0.558947 0.539772
C10   C     C_2   0.127002 0.495501 0.406608 -0.142606
C11   C     C_2   0.067637 0.475967 0.510804 -0.155273
C12   C     C_R   0.514248 0.130347 0.493667 -0.014152
C13   C     C_2   0.873783 0.487072 0.592785 0.238397
C14   C     C_2   0.933120 0.488602 0.484896 -0.120435
C15   C     C_R   0.586865 0.069690 0.608964 -0.052885
C16   C     C_3   0.748126 0.257247 0.820334 -0.067962
C17   C     C_3   0.265197 0.278007 0.015073 -0.143382
C18   C     C_3   0.808305 0.793180 0.264181 -0.141486
C19   C     C_3   0.976395 0.567784 0.810757 -0.142240
C20   C     C_3   0.494467 0.949202 0.963697 -0.128612
C21   C     C_3   0.799566 0.866826 0.779972 -0.121616
C22   C     C_R   0.453226 0.059992 0.371016 -0.158164
C23   C     C_R   0.449019 0.931680 0.375178 -0.172414
C24   C     C_R   0.504237 0.872228 0.502448 0.004380
C25   C     C_R   0.578976 0.943853 0.614597 0.000683
C26   C     C_3   0.599021 0.951636 0.776591 0.559422
C27   C     C_3   0.610786 0.091657 0.768841 0.198615
C28   C     C_R   0.600793 0.542405 0.102914 0.167834
Cu1   Cu    Cu3+1 0.499990 0.499980 0.640670 0.930315
Cu2   Cu    Cu3+1 0.500010 0.500020 0.359330 1.012690
H1    H     H_    0.752201 0.664673 0.951712 0.159525
H2    H     H_    0.841100 0.286582 0.885305 0.173359
H3    H     H_    0.218221 0.221660 0.081470 0.144647
H4    H     H_    0.340529 0.221287 0.987489 0.083625
H5    H     H_    0.194227 0.300135 0.916706 0.131110
H6    H     H_    0.329747 0.405711 0.816690 0.122205
H7    H     H_    0.747593 0.833484 0.331595 0.117929
H8    H     H_    0.807462 0.850658 0.170205 0.153967
H9    H     H_    0.904809 0.793628 0.331196 0.137226
H10   H     H_    0.895660 0.622635 0.824208 0.113762
H11   H     H_    0.038599 0.623253 0.760719 0.116514
H12   H     H_    0.590246 0.725775 0.904151 0.208722
H13   H     H_    0.029832 0.544341 0.919496 0.158846
H14   H     H_    0.397650 0.879592 0.281096 0.121654
H15   H     H_    0.587632 0.938182 0.036683 0.149654
H16   H     H_    0.428325 0.890122 0.002701 0.119074
H17   H     H_    0.463958 0.045268 0.972537 0.098006
H18   H     H_    0.824450 0.946085 0.722059 0.156782
H19   H     H_    0.766716 0.787667 0.703525 0.100876
H20   H     H_    0.885800 0.839708 0.856754 0.121403
H21   H     H_    0.536989 0.145215 0.804510 0.101360
H22   H     H_    0.585211 0.735828 0.156425 0.109689
H23   H     H_    0.119640 0.455787 0.618429 0.189715
H24   H     H_    0.075899 0.513387 0.297816 0.122776
H25   H     H_    0.402728 0.103961 0.275520 0.131445
H26   H     H_    0.882386 0.503164 0.375359 0.176618
H27   H     H_    0.677905 0.310364 0.862785 0.140930
H28   H     H_    0.744793 0.277013 0.706642 0.166756
N1    N     N_R   0.500780 0.500930 0.148120 -0.242592
N2    N     N_R   0.500790 0.500890 0.852210 -0.278237
O1    O     O_R   0.500000 0.319640 0.618810 -0.534703
O2    O     O_3   0.311303 0.386557 0.095433 -0.533446
O3    O     O_3   0.772516 0.670911 0.220031 -0.578133
O4    O     O_3   0.936744 0.458091 0.730342 -0.602543
O5    O     O_3   0.489882 0.914004 0.818363 -0.583498
O6    O     O_3   0.709544 0.897464 0.858942 -0.560307
O7    O     O_R   0.500010 0.319680 0.381230 -0.476674
O8    O     O_R   0.320680 0.500000 0.575130 -0.512903
O9    O     O_R   0.320690 0.500040 0.337550 -0.432880
O10   O     O_R   0.499990 0.680320 0.618770 -0.467826
O11   O     O_R   0.500000 0.680360 0.381190 -0.522572
O12   O     O_R   0.679310 0.499960 0.662450 -0.509339
O13   O     O_R   0.679320 0.500000 0.424870 -0.500949
O14   O     O_3   0.734171 0.130584 0.833388 -0.581185

loop_
_geom_bond_atom_site_label_1
_geom_bond_atom_site_label_2
_ccdc_geom_bond_type
C14   H26   S    
C18   H9    S    
Cu1   N2    S    
C6    C7    S    
C19   H13   S    
C12   C22   A    
C17   O2    S    
C16   H2    S    
C5    C28   A    
C26   O6    S    
C15   C27   S    
C20   H15   S    
C11   H23   S    
C12   C15   A    
C19   O4    S    
C23   C24   A    
Cu1   O12   S    
C10   C11   D    
C3    N2    A    
C21   H18   S    
C27   O14   S    
C21   H19   S    
C2    C3    A    
C18   H8    S    
C16   H28   S    
C13   C14   D    
Cu2   N1    S    
C13   O4    S    
C7    O3    S    
C26   C27   S    
C22   H25   S    
C1    C12   S    
C17   H3    S    
C3    H6    S    
C16   O14   S    
C21   H20   S    
C8    C24   S    
C18   H7    S    
C27   H21   S    
C7    H22   S    
Cu2   O11   S    
C16   H27   S    
C6    H12   S    
C5    C6    S    
C21   O6    S    
C11   C14   S    
Cu1   O1    S    
C18   O3    S    
C15   C25   A    
C20   H17   S    
C19   H10   S    
C23   H14   S    
C10   H24   S    
Cu1   Cu2   S    
Cu1   O8    S    
C19   H11   S    
C20   O5    S    
Cu2   O9    S    
C24   C25   A    
Cu1   O10   S    
C17   H4    S    
C28   N1    A    
C8    O10   A    
C4    O8    A    
Cu2   O13   S    
C9    C13   S    
C2    N1    A    
C4    O9    A    
C9    O12   A    
C6    H1    S    
C17   H5    S    
C5    N2    A    
C1    O7    A    
C25   C26   S    
C22   C23   A    
C26   O5    S    
C4    C10   S    
C9    O13   A    
C20   H16   S    
C7    C28   S    
Cu2   O7    S    
C2    O2    S    
C8    O11   A    
C1    O1    A    
