data_mof_unit_3985.cif
_audit_creation_date              2012-12-10T20:46:49-0500
_audit_creation_method            fapswitch 2.2
_symmetry_space_group_name_H-M    P1
_symmetry_Int_Tables_number       1
_space_group_crystal_system       triclinic
_cell_length_a                    12.89024
_cell_length_b                    8.935175
_cell_length_c                    8.112885
_cell_angle_alpha                 90.006812
_cell_angle_beta                  97.276243
_cell_angle_gamma                 90.006717
_cell_volume                      926.889295105

loop_
_atom_site_label
_atom_site_type_symbol
_atom_type_description
_atom_site_fract_x
_atom_site_fract_y
_atom_site_fract_z
_atom_type_partial_charge
C1    C     C_R   0.500011 0.218010 0.499997 0.937854
C2    C     C_R   0.869828 0.438863 0.696847 -0.173737
C3    C     C_R   0.135482 0.453362 0.579109 -0.191598
C4    C     C_R   0.864518 0.546637 0.420891 -0.191598
C5    C     C_R   0.028503 0.468324 0.572380 0.019375
C6    C     C_R   0.971497 0.531674 0.427620 0.019375
C7    C     C_1   0.500004 0.065191 0.499993 -0.164805
C8    C     C_1   0.499996 0.934809 0.500007 -0.164805
C9    C     C_R   0.499989 0.781990 0.500003 0.937854
C10   C     C_R   0.297689 0.499264 0.467506 0.908044
C11   C     C_R   0.702311 0.500736 0.532494 0.908043
C12   C     C_R   0.814185 0.498037 0.552856 -0.149017
C13   C     C_R   0.185815 0.501963 0.447144 -0.149018
C14   C     C_R   0.022783 0.577220 0.292558 0.437479
C15   C     C_R   0.977216 0.422777 0.707441 0.437479
C16   C     C_R   0.130172 0.561135 0.303153 -0.173737
Cl1   Cl    Cl    0.957044 0.658448 0.110134 -0.581407
Cl2   Cl    Cl    0.042956 0.341548 0.889865 -0.581406
H1    H     H_    0.819093 0.594141 0.312031 0.218122
H2    H     H_    0.180907 0.405860 0.687969 0.218122
H3    H     H_    0.829567 0.400777 0.798571 0.202985
H4    H     H_    0.170433 0.599220 0.201428 0.202985
N1    N     N_1   0.500020 0.500000 0.073640 -0.019786
N2    N     N_1   0.499980 0.500000 0.926360 -0.019786
O1    O     O_R   0.499990 0.285340 0.636850 -0.616120
O2    O     O_R   0.500010 0.714660 0.363150 -0.616120
O3    O     O_R   0.500010 0.285340 0.363150 -0.610535
O4    O     O_R   0.499990 0.714660 0.636850 -0.610535
O5    O     O_R   0.346350 0.500000 0.614250 -0.620888
O6    O     O_R   0.653650 0.500000 0.385750 -0.620888
O7    O     O_R   0.346360 0.500000 0.340500 -0.617026
O8    O     O_R   0.653640 0.500000 0.659500 -0.617026
Zn1   Zn    Zn3+2 0.499990 0.500000 0.682780 1.021060
Zn2   Zn    Zn3+2 0.500010 0.500000 0.317220 1.021060

loop_
_geom_bond_atom_site_label_1
_geom_bond_atom_site_label_2
_ccdc_geom_bond_type
C11   O8    A    
C15   Cl2   S    
C11   C12   S    
C6    C14   A    
N2    Zn1   S    
C3    C13   A    
N1    N2    T    
N1    Zn2   S    
C2    C12   A    
O8    Zn1   S    
C2    H3    S    
O7    Zn2   S    
C7    C8    T    
C1    O1    A    
C2    C15   A    
C10   O5    A    
C9    O2    A    
O3    Zn2   S    
C5    C6    A    
C14   C16   A    
C5    C15   A    
C4    C12   A    
O4    Zn1   S    
O6    Zn2   S    
O5    Zn1   S    
C3    H2    S    
C11   O6    A    
C4    C6    A    
C13   C16   A    
C1    O3    A    
C16   H4    S    
C1    C7    S    
C4    H1    S    
C10   O7    A    
O2    Zn2   S    
C9    O4    A    
O1    Zn1   S    
C8    C9    S    
C3    C5    A    
C10   C13   S    
C14   Cl1   S    
