data_mof_unit_2938.cif
_audit_creation_date              2013-03-05T15:51:50-0500
_audit_creation_method            fapswitch 2.2
_symmetry_space_group_name_H-M    P1
_symmetry_Int_Tables_number       1
_space_group_crystal_system       triclinic
_cell_length_a                    11.051648
_cell_length_b                    10.907467
_cell_length_c                    18.717734
_cell_angle_alpha                 89.993285
_cell_angle_beta                  89.613659
_cell_angle_gamma                 60.758519
_cell_volume                      1968.75228866

loop_
_atom_site_label
_atom_site_type_symbol
_atom_site_description
_atom_site_fract_x
_atom_site_fract_y
_atom_site_fract_z
_atom_type_partial_charge
O1    O     O_R   0.507380 0.255700 0.581440 -0.520188
O2    O     O_R   0.280320 0.527350 0.578930 -0.498782
C1    C     C_R   0.290081 0.623313 0.616107 0.543550
O3    O     O_R   0.260510 0.739590 0.584590 -0.522198
O4    O     O_R   0.532300 0.695080 0.573820 -0.521452
C2    C     C_R   0.649958 0.618498 0.602111 0.538260
O5    O     O_R   0.744840 0.503500 0.576370 -0.519649
O6    O     O_R   0.699120 0.276560 0.571960 -0.504372
C3    C     C_R   0.625970 0.231895 0.604191 0.522237
O7    O     O_R   0.498940 0.256500 0.419860 -0.478143
O8    O     O_R   0.272500 0.528080 0.429150 -0.501062
C4    C     C_R   0.219082 0.650811 0.402243 0.552900
O9    O     O_R   0.252060 0.740380 0.423010 -0.512722
O10   O     O_R   0.524480 0.695810 0.424040 -0.493432
C5    C     C_R   0.643086 0.624105 0.393110 0.551581
O11   O     O_R   0.736390 0.504290 0.414790 -0.514818
O12   O     O_R   0.691300 0.277290 0.422170 -0.513493
C6    C     C_R   0.617229 0.226428 0.396292 0.548886
Cr1   Cr    Cr6+3 0.392960 0.397920 0.502240 1.062969
Cr2   Cr    Cr6+3 0.398340 0.708480 0.501250 1.042453
Cr3   Cr    Cr6+3 0.708670 0.393570 0.496460 1.023391
O13   O     O_3   0.499990 0.499990 0.499980 -0.283570
C7    C     C_3   0.563183 0.806214 0.782122 0.122935
H1    H     H_    0.466967 0.820996 0.809376 0.114510
C8    C     C_3   0.549160 0.789134 0.701790 -0.189781
H2    H     H_    0.445915 0.803655 0.690681 0.109497
H3    H     H_    0.557261 0.871254 0.669921 0.169265
H4    H     H_    0.867541 0.700255 0.783048 0.148471
H5    H     H_    0.807234 0.722753 0.665021 0.143151
C9    C     C_3   0.823157 0.631000 0.769854 -0.220998
C10   C     C_3   0.655624 0.550032 0.803203 -0.297961
C11   C     C_3   0.689475 0.670355 0.813580 0.035088
H6    H     H_    0.736609 0.451014 0.827720 0.149269
H7    H     H_    0.555289 0.576127 0.829545 0.123430
C12   C     C_3   0.661602 0.642698 0.677387 0.020002
C13   C     C_3   0.801892 0.632776 0.690002 -0.254270
C14   C     C_3   0.647853 0.528228 0.722004 -0.237953
H8    H     H_    0.549057 0.529509 0.709740 0.115612
H9    H     H_    0.734064 0.423133 0.707053 0.158356
H10   H     H_    0.895764 0.519424 0.782502 0.145906
H11   H     H_    0.885898 0.534375 0.665959 0.142504
C15   C     C_R   0.687598 0.179706 0.829877 0.029133
C16   C     C_R   0.800739 0.148116 0.784223 0.014367
C17   C     C_R   0.784255 0.160658 0.710194 0.006299
C18   C     C_R   0.541625 0.245809 0.726297 -0.085646
C19   C     C_R   0.556167 0.248462 0.799957 -0.089310
C20   C     C_3   0.938047 0.019140 0.777698 -0.230548
C21   C     C_3   0.920268 0.031959 0.697259 -0.258196
C22   C     C_R   0.655481 0.197538 0.679941 0.034563
H12   H     H_    0.441811 0.275087 0.705202 0.157909
H13   H     H_    0.466537 0.281077 0.833583 0.206288
H14   H     H_    0.938111 0.924371 0.799596 0.171418
H15   H     H_    0.021895 0.038797 0.796859 0.161908
H16   H     H_    0.995808 0.056177 0.670074 0.149041
H17   H     H_    0.909377 0.945007 0.672695 0.158070
C23   C     C_R   0.214616 0.654638 0.843557 -0.004195
C24   C     C_R   0.243370 0.531155 0.806715 0.004669
C25   C     C_R   0.262316 0.523416 0.732458 -0.056553
C26   C     C_R   0.252056 0.747622 0.732808 -0.177703
C27   C     C_R   0.239228 0.753086 0.807109 -0.180837
C28   C     C_3   0.155557 0.463018 0.803346 0.080964
C29   C     C_3   0.170581 0.460247 0.722533 -0.253847
C30   C     C_R   0.260974 0.633633 0.693714 0.001180
H18   H     H_    0.243741 0.838752 0.705792 0.142929
H19   H     H_    0.227077 0.846291 0.834004 0.157833
H20   H     H_    0.055278 0.532599 0.826510 0.133610
H21   H     H_    0.221846 0.353846 0.698266 0.174313
H22   H     H_    0.075747 0.535779 0.694616 0.107447
C31   C     C_R   0.668535 0.679876 0.172765 0.029575
C32   C     C_R   0.774012 0.568804 0.209352 0.019267
C33   C     C_R   0.773993 0.560675 0.281842 0.017415
C34   C     C_R   0.565222 0.785155 0.287588 -0.159348
C35   C     C_R   0.567676 0.794245 0.212711 -0.157241
C36   C     C_3   0.831329 0.415313 0.198099 -0.271082
C37   C     C_3   0.829037 0.405055 0.278393 -0.257806
C38   C     C_R   0.664934 0.663005 0.322185 0.017930
H23   H     H_    0.481608 0.868429 0.317538 0.187980
H24   H     H_    0.490570 0.888306 0.186454 0.139217
H25   H     H_    0.937994 0.364292 0.175158 0.166873
H26   H     H_    0.757110 0.389943 0.170865 0.162912
H27   H     H_    0.750594 0.377296 0.297692 0.173694
H28   H     H_    0.933485 0.344915 0.302357 0.195733
C39   C     C_R   0.663512 0.134761 0.180196 0.055716
C40   C     C_R   0.556284 0.131578 0.217472 -0.035390
C41   C     C_R   0.549068 0.142109 0.290523 0.011535
C42   C     C_R   0.773748 0.128814 0.292930 -0.172109
C43   C     C_R   0.776902 0.124774 0.218652 -0.161837
C44   C     C_3   0.403648 0.219682 0.207724 0.090186
C45   C     C_3   0.393256 0.234761 0.288698 0.117744
C46   C     C_R   0.652228 0.154228 0.328591 0.013818
H29   H     H_    0.858534 0.129605 0.321242 0.137296
H30   H     H_    0.865778 0.118423 0.191163 0.136608
H31   H     H_    0.356813 0.159178 0.183940 0.147129
H32   H     H_    0.356178 0.343067 0.308937 0.157345
C47   C     C_R   0.051140 0.727875 0.195888 0.040959
C48   C     C_R   0.065105 0.830608 0.233674 0.008074
C49   C     C_R   0.102203 0.812333 0.304083 0.009276
C50   C     C_R   0.096346 0.594126 0.306038 -0.144899
C51   C     C_R   0.056076 0.614131 0.233954 -0.106664
C52   C     C_3   0.153179 0.897256 0.217194 -0.243686
C53   C     C_3   0.190995 0.880166 0.294880 -0.232394
C54   C     C_R   0.131721 0.687980 0.339347 0.019048
H33   H     H_    0.111887 0.499829 0.333062 0.158274
H34   H     H_    0.040575 0.535337 0.206909 0.162993
H35   H     H_    0.093823 0.008982 0.201081 0.144432
H36   H     H_    0.243574 0.831026 0.182060 0.182249
H37   H     H_    0.302924 0.806363 0.303140 0.170429
H38   H     H_    0.148341 0.981364 0.324412 0.195262
O14   O     O_R   0.089400 0.825690 0.930570 -0.519688
O15   O     O_R   0.818460 0.054440 0.929850 -0.514955
C55   C     C_R   0.702644 0.104964 0.897184 0.579027
O16   O     O_R   0.606060 0.077150 0.915510 -0.416865
O17   O     O_R   0.646550 0.806680 0.917570 -0.465166
C56   C     C_R   0.720425 0.686006 0.889376 0.535012
O18   O     O_R   0.837170 0.593410 0.915250 -0.520518
O19   O     O_R   0.065200 0.635530 0.931570 -0.475096
C57   C     C_R   0.123855 0.703727 0.907545 0.554813
O20   O     O_R   0.068260 0.828890 0.091840 -0.514878
O21   O     O_R   0.798870 0.057410 0.079340 -0.543267
C58   C     C_R   0.677499 0.102252 0.105215 0.561926
O22   O     O_R   0.584930 0.080350 0.076780 -0.488923
O23   O     O_R   0.626960 0.809650 0.067060 -0.516151
C59   C     C_R   0.697806 0.691542 0.098414 0.530328
O24   O     O_R   0.816040 0.596610 0.076510 -0.524071
O25   O     O_R   0.045610 0.638500 0.081060 -0.443180
C60   C     C_R   0.028238 0.746115 0.119268 0.564746
Cr4   Cr    Cr6+3 0.937650 0.938540 0.007610 1.027688
Cr5   Cr    Cr6+3 0.625330 0.937370 0.994520 1.109859
Cr6   Cr    Cr6+3 0.937940 0.625230 0.001190 1.099541
O26   O     O_3   0.833640 0.833710 0.001100 -0.308242
N1    N     N_R   0.573052 0.932763 0.792741 0.088377
O27   O     O_R   0.461109 0.046962 0.810614 -0.283196
O28   O     O_R   0.678309 0.940691 0.766753 -0.418842
N2    N     N_R   0.216493 0.324341 0.836042 0.090032
O29   O     O_R   0.259673 0.310041 0.901624 -0.295351
O30   O     O_R   0.181378 0.234634 0.811426 -0.335875
N3    N     N_R   0.365526 0.351640 0.170460 0.059681
O31   O     O_R   0.407856 0.437310 0.192823 -0.372857
O32   O     O_R   0.295867 0.379365 0.111399 -0.292601
N4    N     N_R   0.319836 0.167346 0.320851 0.035773
O33   O     O_R   0.201690 0.191226 0.294535 -0.431901
O34   O     O_R   0.354682 0.111256 0.383943 -0.336177

loop_
_geom_bond_atom_site_label_1
_geom_bond_atom_site_label_2
_geom_bond_distance
_ccdc_geom_bond_type
C17   C22   1.399776 A    
C25   C29   1.490689 S    
C21   H17   1.112562 S    
C39   C43   1.406822 A    
C53   H37   1.109855 S    
O11   Cr3   2.060071 S    
C23   C57   1.478692 S    
C47   C48   1.396533 A    
C34   C38   1.408503 A    
C56   O18   1.286275 A    
O14   C57   1.266290 A    
C59   O24   1.272276 A    
O17   Cr5   1.957270 S    
C18   C19   1.391099 A    
C2    C12   1.451625 S    
C21   H16   1.111465 S    
C4    O9    1.260259 A    
N3    O32   1.300069 A    
H5    C13   1.114199 S    
O8    Cr1   1.958856 S    
C52   H35   1.108131 S    
C14   H8    1.110641 S    
C29   H21   1.108360 S    
C39   C40   1.386132 A    
C12   C14   1.569363 S    
N4    O34   1.301154 A    
Cr6   O26   1.984660 S    
C42   H29   1.083285 S    
C33   C38   1.393678 A    
C47   C51   1.408570 A    
C31   C59   1.446287 S    
C50   H33   1.082469 S    
O19   C57   1.281730 A    
C15   C19   1.390159 A    
C45   H32   1.109990 S    
O15   C55   1.279517 A    
C28   H20   1.078918 S    
O14   Cr4   2.087616 S    
O19   Cr6   1.954082 S    
C55   O16   1.288603 A    
O6    C3    1.277889 A    
C32   C36   1.486850 S    
C35   H24   1.082444 S    
C10   H6    1.113163 S    
C31   C35   1.410028 A    
C32   C33   1.359744 A    
C9    C11   1.549527 S    
C49   C54   1.397238 A    
O15   Cr4   1.962207 S    
C20   H15   1.109909 S    
C53   H38   1.111068 S    
C51   H34   1.081372 S    
C26   C27   1.395308 A    
C36   H26   1.112046 S    
Cr3   O13   2.013232 S    
C13   H11   1.112386 S    
C31   C32   1.387949 A    
C28   N2    1.458135 S    
O6    Cr3   1.940699 S    
C41   C46   1.408269 A    
O1    Cr1   2.076382 S    
C36   C37   1.508037 S    
C9    H10   1.108808 S    
C6    C46   1.439313 S    
O1    C3    1.281213 A    
O10   Cr2   1.958505 S    
Cr1   O13   1.981499 S    
C3    C22   1.464188 S    
N4    O33   1.300668 A    
O22   Cr5   2.076846 S    
C42   C46   1.396510 A    
O4    Cr2   1.968236 S    
C41   C45   1.512713 S    
C42   C43   1.390685 A    
C37   H27   1.107206 S    
N2    O30   1.301471 A    
C8    H2    1.094020 S    
C50   C54   1.408533 A    
C19   H13   1.072971 S    
O12   Cr3   1.954730 S    
C1    O3    1.288741 A    
C10   C14   1.547806 S    
C12   C13   1.520625 S    
C39   C58   1.436331 S    
C16   C17   1.396768 A    
C4    C54   1.454407 S    
C34   H23   1.079961 S    
O25   Cr6   1.965751 S    
C20   C21   1.517293 S    
C18   C22   1.396973 A    
O7    Cr1   2.083266 S    
C7    H1    1.114509 S    
C45   N4    1.462027 S    
C48   C49   1.368237 A    
O12   C6    1.289037 A    
C26   H18   1.078634 S    
C10   H7    1.112671 S    
C7    N1    1.450568 S    
C40   C41   1.370713 A    
C2    O5    1.270189 A    
C8    C12   1.535388 S    
Cr2   O13   1.984402 S    
C27   H19   1.082041 S    
C36   H25   1.111759 S    
O25   C60   1.305494 A    
C15   C16   1.406124 A    
N1    O27   1.297301 A    
C58   O22   1.277930 A    
O17   C56   1.273591 A    
O18   Cr6   2.085725 S    
C25   C30   1.397812 A    
C23   C24   1.403479 A    
C44   H31   1.112896 S    
O9    Cr2   2.088426 S    
O2    Cr1   1.965368 S    
C52   H36   1.112905 S    
C10   C11   1.543001 S    
C40   C44   1.490877 S    
C34   C35   1.406021 A    
N1    O28   1.299206 A    
Cr5   O26   2.013523 S    
O21   C58   1.274098 A    
C37   H28   1.109549 S    
C24   C28   1.484465 S    
C20   H14   1.111627 S    
C1    C30   1.478059 S    
C8    H3    1.115199 S    
N3    O31   1.302711 A    
N2    O29   1.301571 A    
C26   C30   1.403777 A    
C9    C13   1.513229 S    
C7    C11   1.575096 S    
H4    C9    1.111719 S    
O2    C1    1.304978 A    
Cr4   O26   1.982325 S    
C14   H9    1.108866 S    
O5    Cr3   2.076418 S    
C33   C37   1.498718 S    
C47   C60   1.454687 S    
C24   C25   1.400607 A    
O4    C2    1.271612 A    
C18   H12   1.066029 S    
O7    C6    1.258782 A    
C48   C52   1.502742 S    
C52   C53   1.501945 S    
O24   Cr6   2.070060 S    
C5    C38   1.447876 S    
C29   H22   1.101787 S    
C7    C8    1.533314 S    
C15   C55   1.466160 S    
O23   Cr5   1.939073 S    
C28   C29   1.519308 S    
C44   N3    1.465251 S    
O16   Cr5   2.059975 S    
O3    Cr2   2.081326 S    
C17   C21   1.490753 S    
C23   C27   1.405428 A    
C44   C45   1.522063 S    
C50   C51   1.406870 A    
O20   Cr4   2.084044 S    
O10   C5    1.285819 A    
O20   C60   1.288934 A    
C11   C56   1.490832 S    
O23   C59   1.279706 A    
C43   H30   1.077516 S    
C16   C20   1.486141 S    
C49   C53   1.499021 S    
C5    O11   1.274696 A    
O8    C4    1.275144 A    
O21   Cr4   1.966193 S    
