data_mof_unit_846.cif
_audit_creation_date              2012-10-26T17:13:09-0400
_audit_creation_method            fapswitch 2.2
_symmetry_space_group_name_H-M    P1
_symmetry_Int_Tables_number       1
_space_group_crystal_system       triclinic
_cell_length_a                    16.775889
_cell_length_b                    16.873004
_cell_length_c                    16.82135
_cell_angle_alpha                 67.587616
_cell_angle_beta                  67.706009
_cell_angle_gamma                 67.647754
_cell_volume                      3915.12332707

loop_
_atom_site_label
_atom_site_type_symbol
_atom_type_description
_atom_site_fract_x
_atom_site_fract_y
_atom_site_fract_z
_atom_type_partial_charge
C1    C     C_R   0.323222 0.959062 0.448308 0.050557
C2    C     C_R   0.676766 0.043197 0.550280 0.048351
C3    C     C_R   0.941356 0.455780 0.325988 0.049265
C4    C     C_R   0.024209 0.554088 0.681263 0.050551
C5    C     C_R   0.458378 0.325567 0.934903 0.047516
C6    C     C_R   0.565705 0.697921 0.976344 0.054792
C7    C     C_R   0.567811 0.992669 0.690311 0.046782
C8    C     C_R   0.431579 0.010353 0.308058 0.043916
C9    C     C_R   0.699995 0.569753 0.969515 0.046634
C10   C     C_R   0.326345 0.456317 0.935313 0.046117
C11   C     C_R   0.984440 0.694725 0.567452 0.045811
C12   C     C_R   0.950972 0.322311 0.454763 0.048879
C13   C     C_R   0.450834 0.994948 0.450647 -0.047744
C14   C     C_R   0.548996 0.008161 0.547325 -0.047691
C15   C     C_R   0.955546 0.462076 0.463299 -0.048533
C16   C     C_R   0.982484 0.555327 0.555507 -0.047686
C17   C     C_R   0.468374 0.467331 0.933824 -0.049643
C18   C     C_R   0.564071 0.564263 0.950812 -0.047698
C19   C     C_R   0.013709 0.831737 0.569479 0.819774
C20   C     C_R   0.973226 0.171445 0.434843 0.813862
C21   C     C_R   0.832192 0.569706 0.011709 0.818882
C22   C     C_R   0.171727 0.435304 0.971572 0.814381
C23   C     C_R   0.569602 0.014337 0.831374 0.805557
C24   C     C_R   0.430185 0.986569 0.168190 0.834847
C25   C     C_R   0.435607 0.171721 0.971096 0.809700
C26   C     C_R   0.569096 0.831397 0.013754 0.817926
C27   C     C_R   0.971218 0.435589 0.171853 0.824694
C28   C     C_R   0.025196 0.565650 0.828567 0.793185
C29   C     C_R   0.171603 0.972468 0.435056 0.825683
C30   C     C_R   0.828398 0.028049 0.564675 0.797076
C31   C     C_R   0.402058 0.987770 0.402350 0.072536
C32   C     C_R   0.597651 0.015132 0.595937 0.069307
C33   C     C_R   0.949230 0.413289 0.414441 0.070979
C34   C     C_R   0.997660 0.601425 0.601146 0.068864
C35   C     C_R   0.417629 0.416184 0.934616 0.073035
C36   C     C_R   0.609661 0.610311 0.966800 0.069337
C37   C     C_R   0.269174 0.963693 0.397908 -0.117430
C38   C     C_R   0.730714 0.037896 0.601220 -0.110555
C39   C     C_R   0.953632 0.402069 0.271406 -0.115824
C40   C     C_R   0.029945 0.602687 0.731528 -0.106344
C41   C     C_R   0.402778 0.270874 0.951819 -0.109521
C42   C     C_R   0.609471 0.740085 0.001333 -0.108375
C43   C     C_R   0.610081 0.012101 0.737114 -0.107230
C44   C     C_R   0.389455 0.989937 0.261875 -0.116213
C45   C     C_R   0.741155 0.611227 0.997963 -0.104750
C46   C     C_R   0.271359 0.401690 0.952035 -0.113252
C47   C     C_R   0.008378 0.738547 0.609566 -0.106500
C48   C     C_R   0.957198 0.270145 0.401519 -0.110517
C49   C     C_R   0.497697 0.950913 0.734143 -0.234569
C50   C     C_R   0.501171 0.053085 0.263777 -0.235713
C51   C     C_R   0.946623 0.740336 0.493784 -0.234840
C52   C     C_R   0.948196 0.287295 0.546883 -0.238122
C53   C     C_R   0.745627 0.490582 0.940987 -0.238128
C54   C     C_R   0.293732 0.550052 0.919587 -0.241311
C55   C     C_R   0.301338 0.927027 0.542462 -0.235224
C56   C     C_R   0.698853 0.075340 0.455964 -0.241295
C57   C     C_R   0.553270 0.294304 0.917294 -0.248180
C58   C     C_R   0.480713 0.739764 0.957851 -0.252174
C59   C     C_R   0.920489 0.550383 0.296739 -0.237171
C60   C     C_R   0.041045 0.460155 0.709477 -0.243500
C61   C     C_R   0.306540 0.971743 0.306587 -0.268943
C62   C     C_R   0.693146 0.029911 0.692590 -0.274785
C63   C     C_R   0.959147 0.311069 0.311148 -0.275503
C64   C     C_R   0.027450 0.692554 0.692009 -0.281073
C65   C     C_R   0.310917 0.310412 0.959495 -0.272283
C66   C     C_R   0.694780 0.694688 0.013517 -0.284722
C67   C     C_R   0.648448 0.072094 0.407659 0.101106
C68   C     C_R   0.351186 0.931363 0.590445 0.101953
C69   C     C_R   0.017147 0.416569 0.669995 0.099457
C70   C     C_R   0.923214 0.599170 0.346909 0.100242
C71   C     C_R   0.434004 0.692747 0.948189 0.099678
C72   C     C_R   0.603084 0.344477 0.918166 0.098791
C73   C     C_R   0.549185 0.060996 0.311306 0.099439
C74   C     C_R   0.449578 0.943770 0.686437 0.099603
C75   C     C_R   0.340628 0.598338 0.927078 0.104818
C76   C     C_R   0.699428 0.442892 0.930612 0.094266
C77   C     C_R   0.970228 0.329848 0.588662 0.098401
C78   C     C_R   0.937548 0.694202 0.445329 0.095132
C79   C     C_R   0.670906 0.103917 0.314035 -0.201000
C80   C     C_R   0.327462 0.901492 0.684053 -0.193687
C81   C     C_R   0.017642 0.326691 0.709456 -0.203746
C82   C     C_R   0.904010 0.692574 0.317154 -0.194599
C83   C     C_R   0.346257 0.733956 0.939923 -0.209273
C84   C     C_R   0.696013 0.310625 0.906915 -0.202130
C85   C     C_R   0.621389 0.098857 0.266281 -0.195949
C86   C     C_R   0.376156 0.908047 0.731468 -0.189374
C87   C     C_R   0.300634 0.687768 0.927391 -0.192035
C88   C     C_R   0.743914 0.359732 0.912396 -0.192075
C89   C     C_R   0.990528 0.284700 0.670978 -0.195088
C90   C     C_R   0.909698 0.739795 0.366719 -0.192374
C91   C     C_R   0.525256 0.030081 0.405110 0.030971
C92   C     C_R   0.474334 0.973512 0.592715 0.030299
C93   C     C_R   0.972881 0.418376 0.547235 0.032330
C94   C     C_R   0.956102 0.601147 0.475932 0.032317
C95   C     C_R   0.427812 0.556294 0.936459 0.030523
C96   C     C_R   0.607460 0.478576 0.938484 0.031968
C97   C     C_R   0.574566 0.036290 0.453398 0.030318
C98   C     C_R   0.425217 0.966997 0.544526 0.029629
C99   C     C_R   0.475115 0.604114 0.946047 0.036604
C100  C     C_R   0.559431 0.429750 0.931035 0.032877
C101  C     C_R   0.990798 0.463585 0.590920 0.032855
C102  C     C_R   0.946068 0.553956 0.428095 0.031955
Cu1   Cu    Cu3+1 0.995180 0.995180 0.424630 0.927570
Cu2   Cu    Cu3+1 0.004820 0.004820 0.575370 0.922144
Cu3   Cu    Cu3+1 0.995180 0.424630 0.995180 0.917918
Cu4   Cu    Cu3+1 0.004820 0.575370 0.004820 0.926917
Cu5   Cu    Cu3+1 0.424630 0.995180 0.995180 0.924516
Cu6   Cu    Cu3+1 0.575370 0.004820 0.004820 0.922513
H1    H     H_    0.269437 0.966287 0.269277 0.190449
H2    H     H_    0.730363 0.034766 0.730162 0.187902
H3    H     H_    0.968758 0.270332 0.269935 0.188417
H4    H     H_    0.038032 0.728028 0.727305 0.185675
H5    H     H_    0.268600 0.268518 0.974880 0.188927
H6    H     H_    0.726398 0.725705 0.034525 0.185890
H7    H     H_    0.481502 0.920055 0.805193 0.160022
H8    H     H_    0.517117 0.083734 0.192510 0.172154
H9    H     H_    0.920501 0.811810 0.474044 0.178782
H10   H     H_    0.928028 0.228129 0.589522 0.177486
H11   H     H_    0.817412 0.465147 0.923142 0.183153
H12   H     H_    0.232519 0.587816 0.900558 0.171345
H13   H     H_    0.247591 0.895523 0.579326 0.162425
H14   H     H_    0.753021 0.106306 0.419326 0.164068
H15   H     H_    0.590664 0.232257 0.900552 0.175467
H16   H     H_    0.448377 0.809624 0.946274 0.173176
H17   H     H_    0.898882 0.587858 0.236826 0.170473
H18   H     H_    0.074526 0.418476 0.760837 0.174956
O1    O     O_R   0.124540 0.978640 0.385460 -0.578432
O2    O     O_R   0.875460 0.021360 0.614540 -0.590945
O3    O     O_R   0.978640 0.385460 0.124540 -0.578756
O4    O     O_R   0.021360 0.614540 0.875460 -0.590596
O5    O     O_R   0.385460 0.124540 0.978640 -0.582632
O6    O     O_R   0.614540 0.875460 0.021360 -0.580116
O7    O     O_R   0.614540 0.021360 0.875460 -0.594202
O8    O     O_R   0.385460 0.978640 0.124540 -0.581106
O9    O     O_R   0.875460 0.614540 0.021360 -0.588892
O10   O     O_R   0.124540 0.385460 0.978640 -0.585643
O11   O     O_R   0.021360 0.875460 0.614540 -0.590840
O12   O     O_R   0.978640 0.124540 0.385460 -0.587387
O13   O     O_R   0.013780 0.867370 0.487190 -0.596070
O14   O     O_R   0.986220 0.132630 0.512810 -0.597696
O15   O     O_R   0.867370 0.487190 0.013780 -0.599992
O16   O     O_R   0.132630 0.512810 0.986220 -0.590276
O17   O     O_R   0.487190 0.013780 0.867370 -0.600629
O18   O     O_R   0.512810 0.986220 0.132630 -0.589811
O19   O     O_R   0.512810 0.132630 0.986220 -0.606380
O20   O     O_R   0.487190 0.867370 0.013780 -0.606285
O21   O     O_R   0.986220 0.512810 0.132630 -0.586495
O22   O     O_R   0.013780 0.487190 0.867370 -0.608765
O23   O     O_R   0.132630 0.986220 0.512810 -0.586390
O24   O     O_R   0.867370 0.013780 0.487190 -0.601509
H19   H     H_    0.355220 0.887257 0.803478 0.132720
H20   H     H_    0.640428 0.123381 0.193979 0.141377
H21   H     H_    0.894523 0.811835 0.342320 0.140070
H22   H     H_    0.989142 0.215892 0.703542 0.134777
H23   H     H_    0.815346 0.331602 0.904681 0.136677
H24   H     H_    0.233029 0.721027 0.921057 0.132886
H25   H     H_    0.270564 0.874198 0.720674 0.136106
H26   H     H_    0.727103 0.132266 0.277662 0.139890
H27   H     H_    0.731428 0.245612 0.895310 0.134349
H28   H     H_    0.312223 0.801514 0.944741 0.125605
H29   H     H_    0.884906 0.729099 0.255458 0.138785
H30   H     H_    0.036154 0.289850 0.771433 0.134304

loop_
_geom_bond_atom_site_label_1
_geom_bond_atom_site_label_2
_ccdc_geom_bond_type
C68   C80   A    
C83   C87   A    
C55   H13   S    
C9    C45   A    
C54   H12   S    
C16   C94   A    
C18   C96   A    
C81   H30   S    
C6    C58   A    
C11   C47   A    
C79   C85   A    
C12   C48   A    
C61   H1    S    
C79   H26   S    
C55   C68   A    
C89   H22   S    
C75   C95   A    
C78   C90   A    
C15   C33   A    
C77   C89   A    
C24   O18   A    
Cu5   O8    S    
Cu3   O15   S    
C19   C47   S    
C58   C71   A    
C64   H4    S    
C3    C33   A    
C95   C99   A    
C74   C92   A    
C96   C100  A    
C1    C31   A    
C23   C43   S    
Cu2   O11   S    
C30   C38   S    
C2    C32   A    
C20   O12   A    
C13   C98   A    
C26   O20   A    
C80   C86   A    
Cu1   Cu2   S    
Cu1   O24   S    
C16   C34   A    
C30   O2    A    
C83   H28   S    
C4    C40   A    
C27   C39   S    
C62   H2    S    
C10   C46   A    
C9    C36   A    
Cu5   Cu6   S    
C10   C35   A    
C17   C95   A    
C7    C43   A    
Cu1   O1    S    
C76   C88   A    
C71   C83   A    
C1    C37   A    
C81   C89   A    
C3    C39   A    
C15   C102  A    
C13   C91   A    
C63   H3    S    
C23   O17   A    
C10   C54   A    
C12   C52   A    
C84   H27   S    
Cu4   O16   S    
C21   C45   S    
C69   C81   A    
C4    C34   A    
C28   O22   A    
Cu6   O6    S    
C23   O7    A    
C92   C98   A    
C88   H23   S    
C84   C88   A    
C67   C79   A    
C73   C91   A    
C46   C65   A    
Cu5   O5    S    
C50   C73   A    
C93   C101  A    
C47   C64   A    
Cu5   O20   S    
C48   C63   A    
Cu3   O3    S    
Cu3   O22   S    
C71   C99   A    
C91   C97   A    
Cu4   O21   S    
Cu2   O14   S    
C22   O10   A    
C56   H14   S    
Cu2   O23   S    
Cu1   O13   S    
C57   H15   S    
C2    C38   A    
Cu2   O2    S    
C19   O11   A    
C73   C85   A    
C22   O16   A    
C53   H11   S    
C20   C48   S    
C74   C86   A    
C90   H21   S    
C7    C49   A    
C72   C84   A    
Cu3   O10   S    
C75   C87   A    
Cu4   O9    S    
C22   C46   S    
C14   C92   A    
C29   O1    A    
C27   O3    A    
Cu1   O12   S    
C53   C76   A    
C9    C53   A    
C18   C99   A    
C25   C41   S    
C52   C77   A    
C25   O5    A    
C8    C50   A    
Cu6   O18   S    
C26   O6    A    
C26   C42   S    
C14   C97   A    
Cu6   O19   S    
C72   C100  A    
C24   O8    A    
Cu4   O4    S    
C5    C41   A    
C7    C32   A    
C66   H6    S    
C30   O24   A    
C49   H7    S    
C87   H24   S    
C8    C31   A    
C65   H5    S    
C13   C31   A    
C11   C34   A    
C8    C44   A    
C14   C32   A    
C4    C60   A    
C82   C90   A    
C15   C93   A    
C37   C61   A    
C70   C102  A    
C82   H29   S    
C69   C101  A    
C44   C61   A    
C59   H17   S    
C56   C67   A    
C39   C63   A    
Cu3   Cu4   S    
C58   H16   S    
C40   C64   A    
C5    C57   A    
C20   O14   A    
C60   H18   S    
C1    C55   A    
C85   H20   S    
C21   O15   A    
Cu6   O7    S    
C27   O21   A    
C2    C56   A    
C86   H19   S    
C76   C96   A    
C28   O4    A    
C80   H25   S    
C18   C36   A    
C60   C69   A    
C78   C94   A    
C24   C44   S    
C5    C35   A    
C77   C93   A    
C51   H9    S    
C6    C36   A    
C50   H8    S    
C57   C72   A    
C41   C65   A    
C70   C82   A    
C17   C100  A    
C68   C98   A    
C51   C78   A    
C11   C51   A    
C67   C97   A    
C59   C70   A    
C29   O23   A    
C54   C75   A    
C16   C101  A    
C94   C102  A    
C19   O13   A    
C6    C42   A    
C29   C37   S    
C45   C66   A    
C42   C66   A    
C28   C40   S    
C49   C74   A    
C25   O19   A    
C17   C35   A    
C12   C33   A    
Cu5   O17   S    
C21   O9    A    
C43   C62   A    
C3    C59   A    
C38   C62   A    
C52   H10   S    
