data_mof_unit_3542.cif
_audit_creation_date              2012-12-10T17:33:41-0500
_audit_creation_method            fapswitch 2.2
_symmetry_space_group_name_H-M    P1
_symmetry_Int_Tables_number       1
_space_group_crystal_system       triclinic
_cell_length_a                    11.676578
_cell_length_b                    12.568982
_cell_length_c                    13.121951
_cell_angle_alpha                 117.785096
_cell_angle_beta                  73.158348
_cell_angle_gamma                 101.738659
_cell_volume                      1625.36745129

loop_
_atom_site_label
_atom_site_type_symbol
_atom_type_description
_atom_site_fract_x
_atom_site_fract_y
_atom_site_fract_z
_atom_type_partial_charge
C1    C     C_R   0.507128 0.855755 0.285495 0.871156
C2    C     C_R   0.456038 0.227765 0.842029 -0.342549
C3    C     C_R   0.552114 0.810425 0.065790 0.315317
C4    C     C_R   0.585311 0.721685 0.950024 0.606266
C5    C     C_R   0.560666 0.600221 0.923837 -0.186843
C6    C     C_R   0.495910 0.562198 0.011606 0.065216
C7    C     C_R   0.458077 0.651685 0.127673 -0.014184
C8    C     C_R   0.458322 0.438832 0.985240 -0.066676
C9    C     C_R   0.362782 0.408648 0.066631 -0.238368
C10   C     C_R   0.304289 0.504400 0.169131 0.412052
C11   C     C_R   0.360726 0.621002 0.204340 -0.192924
C12   C     C_R   0.715767 0.000705 0.499444 0.869592
C13   C     C_R   0.510575 0.344791 0.878336 0.528232
C14   C     C_R   0.367657 0.196572 0.923902 0.489593
C15   C     C_R   0.503755 0.774099 0.158976 -0.296566
C16   C     C_R   0.701145 0.352200 0.333445 -0.226776
C17   C     C_R   0.321001 0.750951 0.627459 0.749587
C18   C     C_R   0.257149 0.640502 0.610271 0.485570
C19   C     C_R   0.316064 0.535721 0.538792 -0.205485
C20   C     C_R   0.441906 0.540369 0.503482 -0.094301
C21   C     C_R   0.495684 0.650217 0.496138 0.004666
C22   C     C_R   0.513390 0.438412 0.459091 -0.013288
C23   C     C_R   0.483410 0.144694 0.715104 0.940414
C24   C     C_R   0.625953 0.443334 0.383449 -0.091783
C25   C     C_R   0.666794 0.540842 0.356599 -0.189214
C26   C     C_R   0.605235 0.642603 0.411876 0.675770
C27   C     C_R   0.485425 0.337435 0.490895 0.499867
C28   C     C_R   0.673137 0.254466 0.359644 0.548012
C29   C     C_R   0.284252 0.999076 0.500338 0.814775
C30   C     C_1   0.838113 0.001871 0.498907 -0.051512
C31   C     C_1   0.940477 0.000662 0.499056 0.065654
C32   C     C_1   0.059751 0.998371 0.499692 0.087937
C33   C     C_1   0.162021 0.997362 0.500238 -0.051432
C34   C     C_R   0.328644 0.284314 0.039545 0.336769
Cu1   Cu    Cu3+1 0.526510 0.098270 0.475420 1.158502
Cu2   Cu    Cu3+1 0.473490 0.901730 0.524580 1.103218
H1    H     H_    0.750721 0.540050 0.292964 0.209303
H2    H     H_    0.786914 0.360845 0.276123 0.229039
H3    H     H_    0.261702 0.452859 0.509814 0.276860
H4    H     H_    0.580739 0.539025 0.831226 0.254649
H5    H     H_    0.315715 0.691971 0.284353 0.164826
N1    N     N_R   0.566700 0.246290 0.438210 -0.295801
N2    N     N_R   0.434010 0.754320 0.561170 -0.291510
O1    O     O_R   0.533340 0.972510 0.318140 -0.506494
O2    O     O_R   0.488570 0.806530 0.359650 -0.550468
O3    O     O_R   0.685190 0.083000 0.479260 -0.523185
O4    O     O_R   0.640410 0.917020 0.520770 -0.518722
O5    O     O_R   0.511430 0.193470 0.640350 -0.496533
O6    O     O_R   0.466660 0.027490 0.681860 -0.507690
O7    O     O_R   0.359590 0.082980 0.479230 -0.511389
O8    O     O_R   0.314810 0.917000 0.520740 -0.563181
F1    F     F_    0.320023 0.080613 0.891742 -0.523400
S1    S     S_3+6 0.347152 0.338799 0.602642 0.049618
O9    O     O_2   0.330615 0.466709 0.694438 -0.283113
O10   O     O_2   0.245278 0.290478 0.540287 -0.288571
O11   O     O_3   0.323625 0.263086 0.683910 -0.527705
H6    H     H_    0.241416 0.278689 0.733914 0.378383
F2    F     F_    0.263213 0.853209 0.694146 -0.536342
F3    F     F_    0.137208 0.634251 0.655960 -0.551771
F4    F     F_    0.652442 0.723827 0.368798 -0.639870
S2    S     S_3+6 0.147045 0.495220 0.229261 0.077445
O12   O     O_2   0.098232 0.613712 0.269104 -0.296438
O13   O     O_2   0.084052 0.399748 0.136619 -0.187058
O14   O     O_3   0.116828 0.464715 0.346603 -0.411635
H7    H     H_    0.144399 0.539627 0.409664 0.352307
S3    S     S_3+6 0.261723 0.231983 0.149835 0.130262
O15   O     O_2   0.299224 0.317255 0.263345 -0.296335
O16   O     O_2   0.127454 0.219784 0.169838 -0.143625
O17   O     O_3   0.306422 0.095335 0.105555 -0.416307
H8    H     H_    0.251960 0.064088 0.160838 0.391921
F5    F     F_    0.617442 0.363352 0.809835 -0.633871
S4    S     S_3+6 0.550781 0.958176 0.080068 0.109985
O18   O     O_2   0.465104 0.033641 0.189946 -0.277354
O19   O     O_2   0.675328 0.019379 0.078610 -0.198857
O20   O     O_3   0.508245 0.946077 0.962737 -0.412331
H9    H     H_    0.532972 0.025593 0.961099 0.393456
F6    F     F_    0.638070 0.752515 0.859605 -0.567887
S5    S     S_3+6 0.793656 0.158401 0.297453 0.115920
O21   O     O_2   0.754498 0.026965 0.259685 -0.250031
O22   O     O_2   0.872340 0.171722 0.190146 -0.194249
O23   O     O_3   0.877430 0.204877 0.397864 -0.486912
H10   H     H_    0.949546 0.158750 0.355211 0.388398

loop_
_geom_bond_atom_site_label_1
_geom_bond_atom_site_label_2
_ccdc_geom_bond_type
C16   C28   A    
S3    O16   D    
C21   C26   A    
C8    C13   A    
Cu1   Cu2   S    
S5    O23   S    
C34   S3    S    
O23   H10   S    
S1    O9    D    
C7    C11   A    
C12   O4    A    
C5    C6    A    
S5    O22   D    
C23   O6    A    
S3    O17   S    
C29   C33   S    
O11   H6    S    
Cu2   O4    S    
C18   C19   A    
S2    O13   D    
C2    C13   A    
C25   H1    S    
C21   N2    A    
C14   F1    S    
C19   C20   A    
C8    C9    A    
C1    C15   S    
C28   S5    S    
C9    C10   A    
C17   F2    S    
C7    C15   A    
S3    O15   D    
C16   C24   A    
O17   H8    S    
S4    O20   S    
Cu1   O5    S    
C29   O7    A    
S1    O10   D    
C24   C25   A    
C12   O3    A    
S5    O21   D    
S4    O18   D    
C6    C8    A    
C13   F5    S    
C25   C26   A    
S2    O14   S    
O20   H9    S    
C17   N2    A    
C1    O1    A    
C31   C32   S    
Cu1   O7    S    
C17   C18   A    
Cu2   O2    S    
Cu1   O1    S    
Cu2   O8    S    
C19   H3    S    
S4    O19   D    
C20   C22   A    
C22   C27   A    
C9    C34   A    
C22   C24   A    
C10   S2    S    
C3    C4    A    
C3    C15   A    
C29   O8    A    
S1    O11   S    
C23   O5    A    
C12   C30   S    
C4    C5    A    
C14   C34   A    
C27   S1    S    
C6    C7    A    
C32   C33   T    
C3    S4    S    
C4    F6    S    
O14   H7    S    
C27   N1    A    
C1    O2    A    
C30   C31   T    
C28   N1    A    
Cu1   N1    S    
C11   H5    S    
S2    O12   D    
C2    C14   A    
C10   C11   A    
C18   F3    S    
C20   C21   A    
C5    H4    S    
C2    C23   S    
Cu2   N2    S    
Cu1   O3    S    
C26   F4    S    
Cu2   O6    S    
C16   H2    S    
