data_mof_unit_1256.cif
_audit_creation_date              2012-12-11T15:22:31-0500
_audit_creation_method            fapswitch 2.2
_symmetry_space_group_name_H-M    P1
_symmetry_Int_Tables_number       1
_space_group_crystal_system       triclinic
_cell_length_a                    22.466256
_cell_length_b                    12.991275
_cell_length_c                    26.990908
_cell_angle_alpha                 90.015332
_cell_angle_beta                  90.518566
_cell_angle_gamma                 90.18089
_cell_volume                      7877.34747552

loop_
_atom_site_label
_atom_site_type_symbol
_atom_type_description
_atom_site_fract_x
_atom_site_fract_y
_atom_site_fract_z
_atom_type_partial_charge
C1    C     C_R   0.720848 0.345431 0.178420 0.541787
C2    C     C_R   0.479800 0.256247 0.897629 -0.133964
C3    C     C_R   0.009045 0.587365 0.554670 -0.119914
C4    C     C_R   0.503746 0.080216 0.394259 -0.123119
C5    C     C_R   0.497432 0.084335 0.605321 -0.124893
C6    C     C_R   0.003714 0.580254 0.394253 -0.123139
C7    C     C_R   0.997426 0.584330 0.605321 -0.125494
C8    C     C_R   0.734925 0.979328 0.375893 0.007148
C9    C     C_R   0.263257 0.976458 0.623830 -0.003197
C10   C     C_R   0.234953 0.479253 0.375881 0.006953
C11   C     C_R   0.763390 0.476883 0.623753 -0.003474
C12   C     C_R   0.710192 0.889019 0.395035 -0.137867
C13   C     C_R   0.017026 0.756540 0.103884 -0.136112
C14   C     C_R   0.305408 0.912203 0.601840 -0.139498
C15   C     C_R   0.210131 0.389009 0.395019 -0.137775
C16   C     C_R   0.805446 0.412434 0.601768 -0.138987
C17   C     C_R   0.708003 0.875249 0.446165 -0.126261
C18   C     C_R   0.306253 0.901422 0.550665 -0.116069
C19   C     C_R   0.207969 0.375199 0.446148 -0.126202
C20   C     C_R   0.806377 0.401837 0.550583 -0.115780
C21   C     C_R   0.728660 0.953203 0.478078 -0.010676
C22   C     C_R   0.265370 0.955385 0.521170 -0.012123
C23   C     C_R   0.228741 0.453061 0.478063 -0.010618
C24   C     C_R   0.975543 0.757399 0.898222 -0.137869
C25   C     C_R   0.765677 0.456185 0.521072 -0.012088
C26   C     C_R   0.749647 0.047297 0.458690 0.016656
C27   C     C_R   0.224251 0.023547 0.542700 0.012597
C28   C     C_R   0.249840 0.547089 0.458681 0.016681
C29   C     C_R   0.724727 0.524652 0.542606 0.012685
C30   C     C_R   0.753902 0.058097 0.407748 -0.081511
C31   C     C_R   0.222672 0.031111 0.594032 -0.084866
C32   C     C_R   0.254064 0.557916 0.407742 -0.081646
C33   C     C_R   0.723054 0.532036 0.593940 -0.085148
C34   C     C_R   0.795730 0.943272 0.549741 -0.129029
C35   C     C_R   0.508579 0.259112 0.052362 0.013321
C36   C     C_R   0.203981 0.879847 0.456030 -0.099987
C37   C     C_R   0.295817 0.442906 0.549705 -0.129175
C38   C     C_R   0.703916 0.381441 0.455956 -0.099924
C39   C     C_R   0.721258 0.347759 0.321241 0.531594
C40   C     C_R   0.279265 0.346672 0.678039 0.542989
C41   C     C_R   0.221269 0.847779 0.321229 0.531541
C42   C     C_R   0.779267 0.846666 0.678035 0.553565
C43   C     C_R   0.807072 0.924265 0.599026 -0.127794
C44   C     C_R   0.192773 0.856853 0.407117 -0.115646
C45   C     C_R   0.307137 0.423995 0.598998 -0.127383
C46   C     C_R   0.490548 0.258002 0.948908 0.015030
C47   C     C_R   0.692646 0.358252 0.407078 -0.115601
C48   C     C_R   0.704584 0.868930 0.609886 -0.115345
C49   C     C_R   0.291336 0.918278 0.384897 -0.119215
C50   C     C_R   0.204595 0.368989 0.609889 -0.116007
C51   C     C_R   0.791613 0.417667 0.384861 -0.118821
C52   C     C_R   0.692559 0.892190 0.560337 -0.096144
C53   C     C_R   0.302419 0.943321 0.434467 -0.084965
C54   C     C_R   0.192591 0.392183 0.560328 -0.096799
C55   C     C_R   0.802756 0.442976 0.434395 -0.084505
C56   C     C_R   0.738374 0.929466 0.530316 0.009363
C57   C     C_R   0.004340 0.758057 0.052910 0.012788
C58   C     C_R   0.258000 0.925627 0.469663 0.046230
C59   C     C_R   0.238444 0.429272 0.530293 0.009411
C60   C     C_R   0.758176 0.426385 0.469574 0.046302
C61   C     C_R   0.762103 0.884935 0.629322 0.022315
C62   C     C_R   0.235688 0.877733 0.371342 0.035208
C63   C     C_R   0.262128 0.384881 0.629314 0.023499
C64   C     C_R   0.735749 0.377992 0.371313 0.034988
C65   C     C_R   0.553886 0.158770 0.321413 0.539508
C66   C     C_R   0.445567 0.159002 0.678300 0.543809
C67   C     C_R   0.053892 0.658772 0.321416 0.539522
C68   C     C_R   0.986230 0.758618 0.949460 0.015721
C69   C     C_R   0.945565 0.659002 0.678299 0.545101
C70   C     C_R   0.731088 0.004364 0.323677 0.536271
C71   C     C_R   0.269176 0.006030 0.675738 0.544971
C72   C     C_R   0.231090 0.504359 0.323675 0.536858
C73   C     C_R   0.769202 0.506115 0.675712 0.547327
C74   C     C_R   0.509659 0.071689 0.104318 -0.133478
C75   C     C_R   0.476882 0.069167 0.899549 -0.130021
C76   C     C_R   0.015668 0.569388 0.102731 -0.131599
C77   C     C_R   0.983206 0.570735 0.897970 -0.133068
C78   C     C_R   0.498900 0.071360 0.053548 0.012691
C79   C     C_R   0.499304 0.165134 0.027209 0.063920
C80   C     C_R   0.484978 0.069825 0.950564 0.011663
C81   C     C_R   0.005534 0.569645 0.051942 0.012352
C82   C     C_R   0.991750 0.570447 0.948972 0.011566
C83   C     C_R   0.484391 0.977171 0.977105 -0.139232
C84   C     C_R   0.490815 0.977999 0.028393 -0.136562
C85   C     C_R   0.996845 0.477004 0.974495 -0.141011
C86   C     C_R   0.003192 0.476573 0.025779 -0.140007
C87   C     C_2   0.767215 0.134895 0.491007 0.197781
C88   C     C_2   0.183872 0.088610 0.511951 0.196850
C89   C     C_2   0.267569 0.634589 0.491002 0.197536
C90   C     C_R   0.491652 0.164433 0.975533 0.064156
C91   C     C_2   0.684579 0.590130 0.511857 0.196655
C92   C     C_R   0.000584 0.664186 0.026676 0.064793
C93   C     C_R   0.279344 0.344893 0.821812 0.543222
C94   C     C_R   0.992945 0.664543 0.975005 0.065484
C95   C     C_R   0.507874 0.351867 0.025675 -0.137958
C96   C     C_R   0.498349 0.351379 0.974357 -0.137298
C97   C     C_R   0.997935 0.851390 0.027240 -0.143270
C98   C     C_R   0.988323 0.851622 0.975928 -0.141037
C99   C     C_R   0.743544 0.943598 0.133542 0.021391
C100  C     C_R   0.260941 0.958050 0.870288 0.023821
C101  C     C_R   0.239107 0.457244 0.129891 0.023424
C102  C     C_R   0.762044 0.461586 0.871191 0.022954
C103  C     C_R   0.801934 0.932432 0.116377 -0.130071
C104  C     C_R   0.220703 0.844921 0.178239 0.541790
C105  C     C_R   0.206123 0.966057 0.894412 -0.129955
C106  C     C_R   0.294117 0.464711 0.105984 -0.130160
C107  C     C_R   0.707326 0.468882 0.895508 -0.134702
C108  C     C_R   0.812303 0.892841 0.069126 -0.119807
C109  C     C_R   0.202610 0.947474 0.945139 -0.119683
C110  C     C_R   0.297828 0.445651 0.055307 -0.119688
C111  C     C_R   0.704405 0.452787 0.946473 -0.121458
C112  C     C_R   0.764391 0.865846 0.037683 0.034599
C113  C     C_R   0.254022 0.922056 0.972530 0.036765
C114  C     C_R   0.246432 0.420289 0.027761 0.036411
C115  C     C_R   0.794829 0.806250 0.826979 0.560049
C116  C     C_R   0.756298 0.430506 0.973899 0.036921
C117  C     C_R   0.706191 0.871216 0.056176 -0.119972
C118  C     C_R   0.308030 0.908292 0.947792 -0.121149
C119  C     C_R   0.192216 0.406903 0.052314 -0.121489
C120  C     C_R   0.810407 0.418537 0.949127 -0.119555
C121  C     C_R   0.553463 0.157289 0.177696 0.547323
C122  C     C_R   0.445719 0.157141 0.822817 0.548431
C123  C     C_R   0.053572 0.657089 0.177600 0.547525
C124  C     C_R   0.945832 0.657329 0.822721 0.539586
C125  C     C_R   0.695919 0.909058 0.103733 -0.127276
C126  C     C_R   0.471455 0.161829 0.873019 -0.002875
C127  C     C_R   0.311326 0.925059 0.897077 -0.125996
C128  C     C_R   0.188710 0.424176 0.102982 -0.126140
C129  C     C_R   0.813141 0.432847 0.898221 -0.124039
C130  C     C_R   0.738043 0.773847 0.958039 -0.114634
C131  C     C_R   0.284388 0.834315 0.050894 -0.118834
C132  C     C_R   0.215936 0.332877 0.949238 -0.118759
C133  C     C_R   0.787439 0.342653 0.052000 -0.118285
C134  C     C_R   0.744021 0.762313 0.906753 -0.127965
C135  C     C_R   0.278513 0.819116 0.101573 -0.125521
C136  C     C_R   0.221653 0.318222 0.898509 -0.125088
C137  C     C_R   0.524199 0.163679 0.128930 -0.005743
C138  C     C_R   0.780740 0.325054 0.102432 -0.126234
C139  C     C_R   0.824343 0.886928 0.907621 -0.120403
C140  C     C_R   0.208919 0.961096 0.105547 -0.124165
C141  C     C_R   0.291805 0.460180 0.894833 -0.124111
C142  C     C_R   0.709424 0.464395 0.106727 -0.123746
C143  C     C_R   0.818010 0.899195 0.958521 -0.113381
C144  C     C_R   0.215536 0.977344 0.054894 -0.115631
C145  C     C_R   0.285351 0.475883 0.945542 -0.115705
C146  C     C_R   0.716788 0.482974 0.056337 -0.115867
C147  C     C_R   0.774416 0.843756 0.984387 0.038172
C148  C     C_R   0.972264 0.663195 0.872600 -0.003918
C149  C     C_R   0.251589 0.911572 0.026837 0.038638
C150  C     C_R   0.249032 0.409919 0.973456 0.038351
C151  C     C_R   0.753999 0.419450 0.028179 0.038234
C152  C     C_R   0.786551 0.820221 0.880883 0.019767
C153  C     C_R   0.238872 0.879672 0.128930 0.023959
C154  C     C_R   0.261436 0.379107 0.871251 0.024086
C155  C     C_R   0.739713 0.382791 0.129723 0.023332
C156  C     C_R   0.525338 0.168164 0.370057 0.020593
C157  C     C_R   0.471671 0.169374 0.628779 0.024018
C158  C     C_R   0.025359 0.668178 0.370065 0.020488
C159  C     C_R   0.024908 0.662111 0.128515 -0.004257
C160  C     C_R   0.971662 0.669372 0.628778 0.023264
C161  C     C_R   0.529283 0.261404 0.396202 -0.135596
C162  C     C_R   0.461074 0.259476 0.601364 -0.121738
C163  C     C_R   0.029374 0.761392 0.396227 -0.135843
C164  C     C_R   0.961059 0.759470 0.601359 -0.121942
C165  C     C_R   0.518153 0.264118 0.446846 -0.124126
C166  C     C_R   0.471301 0.261686 0.550626 -0.117471
C167  C     C_R   0.018234 0.764099 0.446869 -0.124301
C168  C     C_R   0.971298 0.761680 0.550624 -0.117435
C169  C     C_R   0.731572 0.000650 0.179661 0.542131
C170  C     C_R   0.521166 0.257849 0.103294 -0.134563
C171  C     C_R   0.268844 0.002218 0.820735 0.543521
C172  C     C_R   0.231155 0.501947 0.179313 0.542986
C173  C     C_R   0.769045 0.502884 0.820974 0.534254
C174  C     C_R   0.500792 0.174342 0.471959 0.033125
C175  C     C_R   0.493922 0.174705 0.526445 0.032324
C176  C     C_R   0.000807 0.674344 0.471964 0.033070
C177  C     C_R   0.993923 0.674700 0.526447 0.032309
C178  C     C_R   0.491088 0.083529 0.444673 -0.121308
C179  C     C_R   0.509052 0.087374 0.554670 -0.119856
C180  C     C_R   0.991056 0.583560 0.444668 -0.121304
Cr1   Cr    Cr6+3 0.756570 0.170940 0.251190 1.019103
Cr2   Cr    Cr6+3 0.374010 0.036240 0.749520 1.015776
Cr3   Cr    Cr6+3 0.125990 0.536240 0.250480 1.015724
Cr4   Cr    Cr6+3 0.874010 0.536240 0.749520 1.010763
Cr5   Cr    Cr6+3 0.243430 0.170940 0.748810 1.016992
Cr6   Cr    Cr6+3 0.256570 0.670940 0.251190 1.019213
Cr7   Cr    Cr6+3 0.743430 0.670940 0.748810 1.017465
Cr8   Cr    Cr6+3 0.623740 0.299110 0.249580 1.013453
Cr9   Cr    Cr6+3 0.376260 0.299110 0.750420 1.016159
Cr10  Cr    Cr6+3 0.123740 0.799110 0.249580 1.013670
Cr11  Cr    Cr6+3 0.876260 0.799110 0.750420 1.009439
Cr12  Cr    Cr6+3 0.625990 0.036240 0.250480 1.017397
H1    H     H_    0.470557 0.995710 0.881121 0.128194
H2    H     H_    0.348457 0.889415 0.967914 0.104467
H3    H     H_    0.151792 0.388094 0.032064 0.105048
H4    H     H_    0.851201 0.402322 0.969296 0.107581
H5    H     H_    0.650357 0.917197 0.115913 0.128518
H6    H     H_    0.354421 0.919109 0.879649 0.128042
H7    H     H_    0.145478 0.418659 0.120254 0.129535
H8    H     H_    0.856242 0.428080 0.880710 0.132386
H9    H     H_    0.545114 0.330834 0.378390 0.129186
H10   H     H_    0.440995 0.326169 0.618381 0.127643
H11   H     H_    0.045279 0.830795 0.378434 0.129321
H12   H     H_    0.511295 0.998811 0.123866 0.127945
H13   H     H_    0.940967 0.826158 0.618372 0.127726
H14   H     H_    0.528555 0.020351 0.537443 0.107584
H15   H     H_    0.475353 0.014091 0.462526 0.106897
H16   H     H_    0.028544 0.520340 0.537442 0.107529
H17   H     H_    0.975281 0.514141 0.462514 0.106759
H18   H     H_    0.506318 0.014109 0.625670 0.127273
H19   H     H_    0.499398 0.007576 0.374835 0.131350
H20   H     H_    0.006311 0.514107 0.625671 0.126763
H21   H     H_    0.999321 0.507635 0.374818 0.131250
H22   H     H_    0.526092 0.335436 0.466595 0.110683
H23   H     H_    0.980878 0.497630 0.878630 0.127874
H24   H     H_    0.458762 0.329974 0.530125 0.108309
H25   H     H_    0.026218 0.835387 0.466633 0.110829
H26   H     H_    0.958766 0.829968 0.530119 0.108416
H27   H     H_    0.693333 0.829410 0.370550 0.118412
H28   H     H_    0.338172 0.871781 0.624104 0.131833
H29   H     H_    0.193180 0.329483 0.370531 0.118399
H30   H     H_    0.838045 0.371659 0.624051 0.132388
H31   H     H_    0.832032 0.968770 0.526532 0.127512
H32   H     H_    0.170160 0.863389 0.483341 0.116045
H33   H     H_    0.332147 0.468239 0.526483 0.127495
H34   H     H_    0.021082 0.496014 0.121358 0.127726
H35   H     H_    0.669962 0.365755 0.483256 0.116305
H36   H     H_    0.852115 0.935488 0.612601 0.129298
H37   H     H_    0.150821 0.821011 0.397180 0.121663
H38   H     H_    0.352189 0.435126 0.612566 0.129271
H39   H     H_    0.650495 0.323092 0.397172 0.121784
H40   H     H_    0.478568 0.904145 0.958218 0.097525
H41   H     H_    0.490610 0.905534 0.048279 0.100754
H42   H     H_    0.995400 0.404274 0.954833 0.099769
H43   H     H_    0.007323 0.403549 0.044893 0.098715
H44   H     H_    0.692093 0.802725 0.460822 0.145142
H45   H     H_    0.858634 0.930987 0.889201 0.127016
H46   H     H_    0.337943 0.849357 0.534153 0.170204
H47   H     H_    0.191987 0.302711 0.460802 0.144762
H48   H     H_    0.837949 0.349549 0.534078 0.170161
H49   H     H_    0.648181 0.880306 0.545346 0.136916
H50   H     H_    0.344647 0.977433 0.445248 0.109597
H51   H     H_    0.148199 0.380416 0.545346 0.136336
H52   H     H_    0.845176 0.476383 0.445162 0.109363
H53   H     H_    0.669626 0.836877 0.632602 0.129262
H54   H     H_    0.325212 0.931792 0.357336 0.104204
H55   H     H_    0.169608 0.337090 0.632624 0.128119
H56   H     H_    0.178301 0.009086 0.125910 0.123706
H57   H     H_    0.825625 0.430291 0.357321 0.104377
H58   H     H_    0.769324 0.130777 0.392709 0.181126
H59   H     H_    0.191654 0.084422 0.610608 0.182971
H60   H     H_    0.269566 0.630553 0.392713 0.181180
H61   H     H_    0.692153 0.585558 0.610513 0.182820
H62   H     H_    0.475454 0.327957 0.877406 0.122231
H63   H     H_    0.532097 0.329211 0.122168 0.125848
H64   H     H_    0.966906 0.829010 0.878884 0.118389
H65   H     H_    0.023818 0.828329 0.123653 0.122376
H66   H     H_    0.497498 0.423891 0.954543 0.101350
H67   H     H_    0.322586 0.508344 0.874563 0.123827
H68   H     H_    0.514945 0.424675 0.044450 0.101331
H69   H     H_    0.982873 0.924475 0.956915 0.098709
H70   H     H_    0.000499 0.924116 0.046812 0.100968
H71   H     H_    0.839478 0.957271 0.138873 0.122712
H72   H     H_    0.166634 0.991129 0.874573 0.123330
H73   H     H_    0.333619 0.489788 0.125938 0.123037
H74   H     H_    0.667375 0.491198 0.875538 0.123379
H75   H     H_    0.704825 0.728357 0.976997 0.098201
H76   H     H_    0.312280 0.782097 0.030240 0.098924
H77   H     H_    0.187853 0.280507 0.969791 0.099140
H78   H     H_    0.677871 0.510518 0.127094 0.124396
H79   H     H_    0.816314 0.292254 0.031249 0.102515
H80   H     H_    0.715520 0.707958 0.887402 0.133756
H81   H     H_    0.301776 0.755026 0.118494 0.133098
H82   H     H_    0.198105 0.254331 0.881442 0.133117
H83   H     H_    0.804457 0.261189 0.119105 0.133183
H84   H     H_    0.857805 0.886918 0.056559 0.111502
H85   H     H_    0.159976 0.955464 0.963124 0.106633
H86   H     H_    0.340596 0.453354 0.037465 0.106780
H87   H     H_    0.661748 0.459583 0.964534 0.105757
H88   H     H_    0.846283 0.954772 0.977264 0.100698
H89   H     H_    0.668203 0.852199 0.032933 0.104067
H90   H     H_    0.191218 0.039628 0.037467 0.100604
H91   H     H_    0.309932 0.537979 0.963106 0.100488
H92   H     H_    0.691973 0.544923 0.039112 0.097381
H93   H     H_    0.751437 0.139463 0.528822 0.118449
H94   H     H_    0.188672 0.091499 0.472020 0.109770
H95   H     H_    0.251781 0.639255 0.528811 0.117883
H96   H     H_    0.689549 0.593269 0.471946 0.109498
O1    O     O_R   0.769900 0.064540 0.196060 -0.520013
O2    O     O_R   0.433710 0.069580 0.694600 -0.516349
O3    O     O_R   0.066290 0.569580 0.305400 -0.515664
O4    O     O_R   0.933710 0.569580 0.694600 -0.515062
O5    O     O_R   0.680760 0.993330 0.302620 -0.496204
O6    O     O_R   0.319240 0.993330 0.697380 -0.499057
O7    O     O_R   0.180760 0.493330 0.302620 -0.496078
O8    O     O_R   0.819240 0.493330 0.697380 -0.496133
O9    O     O_3   0.668770 0.168760 0.250420 -0.242016
O10   O     O_3   0.331230 0.168760 0.749580 -0.241414
O11   O     O_3   0.168770 0.668760 0.250420 -0.242140
O12   O     O_R   0.230100 0.064540 0.803940 -0.520928
O13   O     O_3   0.831230 0.668760 0.749580 -0.262321
O14   O     O_R   0.750800 0.274080 0.199250 -0.505521
O15   O     O_R   0.249200 0.274080 0.800750 -0.506128
O16   O     O_R   0.250800 0.774080 0.199250 -0.506485
O17   O     O_R   0.749200 0.774080 0.800750 -0.498376
O18   O     O_R   0.669990 0.371670 0.194150 -0.519736
O19   O     O_R   0.330010 0.371670 0.805850 -0.518637
O20   O     O_R   0.169990 0.871670 0.194150 -0.518554
O21   O     O_R   0.830010 0.871670 0.805850 -0.518408
O22   O     O_R   0.574600 0.238480 0.197800 -0.500244
O23   O     O_R   0.269900 0.564540 0.196060 -0.520962
O24   O     O_R   0.425400 0.238480 0.802200 -0.499451
O25   O     O_R   0.074600 0.738480 0.197800 -0.499050
O26   O     O_R   0.925400 0.738480 0.802200 -0.518479
O27   O     O_R   0.566130 0.068680 0.194240 -0.524841
O28   O     O_R   0.433870 0.068680 0.805760 -0.526027
O29   O     O_R   0.066130 0.568680 0.194240 -0.526794
O30   O     O_R   0.933870 0.568680 0.805760 -0.525166
O31   O     O_R   0.680610 0.992490 0.199570 -0.503726
O32   O     O_R   0.319390 0.992490 0.800430 -0.506161
O33   O     O_R   0.180610 0.492490 0.199570 -0.506350
O34   O     O_R   0.730100 0.564540 0.803940 -0.529815
O35   O     O_R   0.819390 0.492490 0.800430 -0.506153
O36   O     O_R   0.770060 0.065440 0.307230 -0.519105
O37   O     O_R   0.229940 0.065440 0.692770 -0.523789
O38   O     O_R   0.270060 0.565440 0.307230 -0.518432
O39   O     O_R   0.729940 0.565440 0.692770 -0.522527
O40   O     O_R   0.750960 0.274920 0.302300 -0.500728
O41   O     O_R   0.249040 0.274920 0.697700 -0.503073
O42   O     O_R   0.250960 0.774920 0.302300 -0.500525
O43   O     O_R   0.749040 0.774920 0.697700 -0.498039
O44   O     O_R   0.670160 0.372580 0.305320 -0.521292
O45   O     O_R   0.574760 0.239320 0.300850 -0.507107
O46   O     O_R   0.329840 0.372580 0.694680 -0.525936
O47   O     O_R   0.170160 0.872580 0.305320 -0.521325
O48   O     O_R   0.829840 0.872580 0.694680 -0.520197
O49   O     O_2   0.800463 0.202068 0.475847 -0.536783
O50   O     O_2   0.145005 0.140638 0.530875 -0.538390
O51   O     O_2   0.300965 0.701555 0.475853 -0.536624
O52   O     O_2   0.645707 0.642180 0.530758 -0.538822
O53   O     O_R   0.425240 0.239320 0.699150 -0.505878
O54   O     O_R   0.074760 0.739320 0.300850 -0.507309
O55   O     O_R   0.925240 0.739320 0.699150 -0.504626
O56   O     O_R   0.566290 0.069580 0.305400 -0.515903

loop_
_geom_bond_atom_site_label_1
_geom_bond_atom_site_label_2
_ccdc_geom_bond_type
C99   C103  A    
C21   C26   A    
C34   C56   A    
Cr12  O5    S    
C82   C94   A    
C139  H45   S    
C100  C127  A    
C132  C150  A    
C142  C146  A    
C16   H30   S    
C133  C151  A    
C7    H20   S    
C5    H18   S    
C172  O23   A    
C163  H11   S    
C120  H4    S    
C65   C156  S    
C141  C154  A    
C133  H79   S    
C83   H40   S    
Cr4   O35   S    
C29   C33   A    
C139  C152  A    
C101  C128  A    
C5    C179  A    
C79   C90   A    
Cr5   O37   S    
Cr7   O39   S    
C121  O22   A    
C36   H32   S    
C25   C60   S    
Cr4   O4    S    
C49   H54   S    
C141  C145  A    
C119  C128  A    
C93   O19   A    
C104  O16   A    
Cr10  O54   S    
C14   H28   S    
C130  C134  A    
C80   C83   A    
C2    H62   S    
Cr11  O13   S    
Cr7   O34   S    
C25   C29   A    
C74   C137  A    
C55   H52   S    
C27   C31   A    
C140  C144  A    
C28   C32   A    
C47   C64   A    
C17   C21   A    
C111  H87   S    
C19   C23   A    
C142  H78   S    
C42   O48   A    
Cr10  O11   S    
C16   C20   A    
Cr11  O26   S    
C57   C97   A    
C92   C94   A    
C31   H59   S    
C4    H19   S    
C172  O33   A    
C130  H75   S    
C89   H95   S    
Cr11  O48   S    
C131  C149  A    
C114  C150  S    
C37   C45   A    
C127  H6    S    
C29   C91   S    
C40   O41   A    
C43   C61   A    
Cr6   O38   S    
C106  H73   S    
C49   C62   A    
Cr5   O15   S    
Cr6   O16   S    
C51   C64   A    
C87   H93   S    
Cr7   O13   S    
C22   C58   S    
C53   C58   A    
C171  O12   A    
C82   C85   A    
Cr1   O9    S    
C75   C126  A    
C128  H7    S    
Cr3   O3    S    
C52   H49   S    
C6    H21   S    
C123  C159  S    
C77   C82   A    
C49   C53   A    
C119  H3    S    
Cr4   O30   S    
C169  O31   A    
C48   C52   A    
C46   C96   A    
C35   C170  A    
C91   O52   D    
C157  C162  A    
C161  C165  A    
C122  C126  S    
Cr11  O21   S    
C57   C92   A    
C67   O3    A    
C123  O29   A    
C69   C160  S    
C97   C98   A    
C85   C86   A    
C23   C59   S    
Cr2   O32   S    
C170  H63   S    
C162  H10   S    
Cr3   O29   S    
C115  O21   A    
C19   H47   S    
C40   O46   A    
C13   C57   A    
C134  H80   S    
C101  C172  S    
Cr5   O10   S    
C121  C137  S    
C24   H64   S    
C13   H65   S    
C174  C175  S    
C81   C92   A    
C139  C143  A    
C26   C87   S    
Cr9   O24   S    
C28   C89   S    
C104  C153  S    
C110  C114  A    
C51   C55   A    
C145  C150  A    
C132  C136  A    
C89   O51   D    
C50   C63   A    
C6    C158  A    
C68   C98   A    
C54   C59   A    
C95   H68   S    
C120  C129  A    
C11   C33   A    
Cr5   O41   S    
Cr9   O10   S    
C165  C174  A    
C20   H48   S    
C78   C84   A    
C68   C94   A    
C116  C120  A    
Cr6   O23   S    
C135  H81   S    
C173  O35   A    
C44   H37   S    
C123  O25   A    
C169  O1    A    
C83   C84   A    
C131  H76   S    
C8    C12   A    
C137  C170  A    
C102  C107  A    
C23   C28   A    
C87   O49   D    
C42   O43   A    
C37   C59   A    
C158  C163  A    
C38   C60   A    
C73   O39   A    
C156  C161  A    
C26   C30   A    
C1    O14   A    
C118  C127  A    
C145  H91   S    
C2    C126  A    
C146  H92   S    
C34   H31   S    
C17   H44   S    
C101  C106  A    
C105  C109  A    
C6    C180  A    
C130  C147  A    
C140  H56   S    
C107  C111  A    
C34   C43   A    
C81   C86   A    
C4    C178  A    
C109  H85   S    
C39   O40   A    
Cr4   O13   S    
C8    C70   S    
C112  C147  S    
C138  H83   S    
Cr5   O12   S    
C54   H51   S    
Cr6   O11   S    
C74   H12   S    
C35   C79   A    
C143  H88   S    
Cr1   O14   S    
Cr8   O22   S    
C146  C151  A    
C176  C180  A    
Cr6   O42   S    
C96   H66   S    
C45   H38   S    
Cr2   O28   S    
C117  C125  A    
C13   C159  A    
C66   C157  S    
C18   H46   S    
C38   H35   S    
C10   C72   S    
C138  C155  A    
C76   C159  A    
Cr2   O10   S    
Cr3   O7    S    
C39   O44   A    
C43   H36   S    
C102  C173  S    
C15   C19   A    
C39   C64   S    
C124  C148  S    
C166  C175  A    
C50   C54   A    
C40   C63   S    
C73   O8    A    
C160  C164  A    
C3    C7    A    
C112  C117  A    
C20   C25   A    
C72   O38   A    
C168  C177  A    
Cr12  O31   S    
C70   O5    A    
C162  C166  A    
Cr1   O40   S    
Cr7   O17   S    
C12   C17   A    
C41   O47   A    
C111  C116  A    
C174  C178  A    
C140  C153  A    
C37   H33   S    
C133  C138  A    
C18   C22   A    
C55   C60   A    
Cr1   O1    S    
C91   H96   S    
C115  O17   A    
C41   C62   S    
Cr2   O6    S    
Cr3   O11   S    
Cr8   O44   S    
C85   H42   S    
C11   C73   S    
C132  H77   S    
C7    C160  A    
C108  C112  A    
C9    C14   A    
C48   H53   S    
C136  C154  A    
C11   C16   A    
C164  C168  A    
C134  C152  A    
C178  H15   S    
C66   O53   A    
C122  O24   A    
C141  H67   S    
C124  O26   A    
C77   C148  A    
C97   H70   S    
C4    C156  A    
C171  O32   A    
C71   O37   A    
C5    C157  A    
C144  H90   S    
Cr8   O45   S    
C50   H55   S    
Cr10  O47   S    
C77   H23   S    
C70   O36   A    
C41   O42   A    
C136  H82   S    
C9    C71   S    
C108  H84   S    
C69   O55   A    
C21   C56   S    
C46   C90   A    
C35   C95   A    
C131  C135  A    
C69   O4    A    
Cr9   O46   S    
C164  H13   S    
C8    C30   A    
C67   O54   A    
C105  H72   S    
C33   H61   S    
C117  H89   S    
C180  H17   S    
C118  H2    S    
C72   O7    A    
C65   O45   A    
C24   C68   A    
C74   C78   A    
Cr11  O55   S    
C166  H24   S    
C110  H86   S    
C14   C18   A    
C95   C96   A    
C102  C129  A    
Cr4   O8    S    
C99   C125  A    
C2    C46   A    
C143  C147  A    
C100  C105  A    
C104  O20   A    
C65   O56   A    
C10   C32   A    
C3    H16   S    
C161  H9    S    
C93   C154  S    
Cr9   O19   S    
C36   C58   A    
C10   C15   A    
Cr10  O20   S    
C47   H39   S    
C173  O34   A    
C1    C155  S    
Cr12  O56   S    
C115  C152  S    
C103  C108  A    
C142  C155  A    
C75   C80   A    
C12   H27   S    
C109  C113  A    
C179  H14   S    
C125  H5    S    
C100  C171  S    
C107  H74   S    
Cr12  O27   S    
C76   H34   S    
C113  C149  S    
C53   H50   S    
C24   C148  A    
Cr1   O36   S    
C78   C79   A    
C175  C179  A    
C44   C62   A    
C45   C63   A    
C30   H58   S    
C71   O6    A    
C15   H29   S    
C163  C167  A    
C144  C149  A    
C88   H94   S    
C88   O50   D    
Cr2   O2    S    
C42   C61   S    
C38   C47   A    
Cr10  O25   S    
Cr8   O9    S    
C75   H1    S    
C176  C177  S    
Cr3   O33   S    
C106  C110  A    
Cr12  O9    S    
C93   O15   A    
C114  C119  A    
C76   C81   A    
C99   C169  S    
C121  O27   A    
C1    O18   A    
C32   H60   S    
C122  O28   A    
C86   H43   S    
C135  C153  A    
C22   C27   A    
C124  O30   A    
C84   H41   S    
C3    C177  A    
C98   H69   S    
C48   C61   A    
Cr9   O53   S    
C167  H25   S    
C67   C158  S    
C116  C151  S    
C80   C90   A    
C27   C88   S    
C51   H57   S    
C129  H8    S    
C36   C44   A    
C9    C31   A    
C113  C118  A    
Cr7   O43   S    
C165  H22   S    
C66   O2    A    
C103  H71   S    
C168  H26   S    
Cr8   O18   S    
C52   C56   A    
C167  C176  A    
