data_mof_unit_4678.cif
_audit_creation_date              2012-12-11T16:20:21-0500
_audit_creation_method            fapswitch 2.2
_symmetry_space_group_name_H-M    P1
_symmetry_Int_Tables_number       1
_space_group_crystal_system       triclinic
_cell_length_a                    6.92051
_cell_length_b                    34.367852
_cell_length_c                    38.298205
_cell_angle_alpha                 99.522797
_cell_angle_beta                  89.512877
_cell_angle_gamma                 90.362617
_cell_volume                      8983.00300237

loop_
_atom_site_label
_atom_site_type_symbol
_atom_type_description
_atom_site_fract_x
_atom_site_fract_y
_atom_site_fract_z
_atom_type_partial_charge
O1    O     O_R   0.494320 0.461440 0.460990 -0.536312
O2    O     O_R   0.821450 0.462560 0.532500 -0.517684
O3    O     O_R   0.994330 0.538560 0.539010 -0.545320
C1    C     C_R   0.651809 0.453511 0.543569 0.729135
O4    O     O_R   0.823870 0.456770 0.460860 -0.519488
O5    O     O_R   0.996760 0.532730 0.466860 -0.541051
C2    C     C_R   0.655254 0.446167 0.447694 0.745757
O6    O     O_R   0.491880 0.467270 0.533140 -0.549533
O7    O     O_3   0.661650 0.524930 0.502050 -0.375592
V1    V     V_3+5 0.935500 0.495380 0.499620 1.490236
O8    O     O_R   0.326630 0.537440 0.467500 -0.527787
C3    C     C_R   0.158874 0.545871 0.456245 0.789837
O9    O     O_R   0.324210 0.543230 0.539140 -0.545017
C4    C     C_R   0.154984 0.553969 0.552019 0.706716
V2    V     V_3+5 0.435810 0.504620 0.500380 1.468377
O10   O     O_3   0.159790 0.475070 0.497950 -0.357775
C5    C     C_R   0.191846 0.824330 0.801089 0.582209
N1    N     N_R   0.043255 0.823727 0.825047 -0.554213
C6    C     C_R   0.905597 0.794376 0.819741 0.600278
C7    C     C_R   0.912933 0.764715 0.789513 -0.068744
C8    C     C_R   0.065263 0.764739 0.765075 -0.014523
C9    C     C_R   0.206969 0.794694 0.770987 -0.011631
C10   C     C_R   0.771384 0.735081 0.783385 -0.162368
C11   C     C_R   0.779910 0.705253 0.753707 0.202290
C12   C     C_R   0.934884 0.704493 0.728855 -0.082791
C13   C     C_R   0.076245 0.734842 0.734711 -0.041823
C14   C     C_R   0.229627 0.735466 0.710316 0.003432
C15   C     C_R   0.370821 0.765360 0.716657 -0.136439
C16   C     C_R   0.359860 0.794528 0.746618 -0.143414
C17   C     C_R   0.956226 0.674740 0.698567 0.633845
N2    N     N_R   0.104461 0.676344 0.674693 -0.557492
C18   C     C_R   0.238971 0.706161 0.680046 0.593293
O11   O     O_2   0.323549 0.853807 0.806006 -0.529428
O12   O     O_2   0.763045 0.793454 0.843853 -0.522016
H1    H     H_    0.651795 0.734976 0.801800 0.190898
O13   O     O_2   0.832984 0.643936 0.693162 -0.495840
O14   O     O_2   0.381066 0.707722 0.655959 -0.526808
H2    H     H_    0.491071 0.766271 0.698517 0.168513
H3    H     H_    0.471734 0.816973 0.750573 0.169041
C19   C     C_R   0.962448 0.638130 0.620162 -0.087573
H4    H     H_    0.830749 0.655088 0.625010 0.151287
C20   C     C_R   0.974025 0.608211 0.590592 -0.190218
H5    H     H_    0.850206 0.602661 0.573335 0.135126
C21   C     C_R   0.144060 0.586049 0.583175 -0.049302
C22   C     C_R   0.302086 0.594478 0.606116 -0.203725
H6    H     H_    0.434672 0.577807 0.601262 0.135128
C23   C     C_R   0.288916 0.623853 0.636134 -0.062049
H7    H     H_    0.410892 0.629117 0.653850 0.174472
C24   C     C_R   0.118986 0.646068 0.643484 0.354052
C25   C     C_R   0.189374 0.862137 0.879157 -0.079388
H8    H     H_    0.320551 0.845037 0.874164 0.156243
C26   C     C_R   0.179378 0.892056 0.908774 -0.202152
H9    H     H_    0.303958 0.897511 0.925851 0.136779
C27   C     C_R   0.009647 0.914242 0.916529 -0.056184
C28   C     C_R   0.850779 0.905998 0.893769 -0.199412
H10   H     H_    0.718471 0.922726 0.898836 0.133777
C29   C     C_R   0.862412 0.876677 0.863707 -0.082547
H11   H     H_    0.739531 0.871544 0.846197 0.161206
C30   C     C_R   0.031571 0.854269 0.856102 0.354557
C31   C     C_R   0.890937 0.848879 0.171440 0.595175
O15   O     O_2   0.738242 0.873200 0.171928 -0.516727
N3    N     N_R   0.034247 0.849122 0.146565 -0.566448
C32   C     C_R   0.189476 0.824282 0.145576 0.628498
C33   C     C_R   0.860298 0.875405 0.099028 -0.074616
C34   C     C_R   0.850194 0.901087 0.074256 -0.202301
C35   C     C_R   0.166219 0.927253 0.092258 -0.194430
C36   C     C_R   0.174313 0.902222 0.117516 -0.077517
C37   C     C_R   0.022318 0.875778 0.121006 0.346232
C38   C     C_R   0.066348 0.799861 0.197815 -0.106119
C39   C     C_R   0.902489 0.823789 0.196876 -0.040297
C40   C     C_R   0.749024 0.820757 0.220242 -0.113260
C41   C     C_R   0.209822 0.799193 0.171267 -0.035170
C42   C     C_R   0.003883 0.927071 0.070388 -0.058358
H12   H     H_    0.286236 0.947142 0.090165 0.134652
H13   H     H_    0.299716 0.903341 0.134383 0.157408
H14   H     H_    0.614808 0.836287 0.218280 0.176233
C43   C     C_R   0.152618 0.573442 0.430564 -0.105266
C44   C     C_R   0.956089 0.755040 0.279281 -0.001653
C45   C     C_R   0.259951 0.726861 0.252042 0.031785
C46   C     C_R   0.113962 0.728441 0.278529 0.062307
C47   C     C_R   0.829844 0.759549 0.309343 0.129359
C48   C     C_R   0.835169 0.732637 0.332766 -0.121699
C49   C     C_R   0.980202 0.704283 0.330550 -0.044884
C50   C     C_R   0.126969 0.703516 0.304807 -0.065733
C51   C     C_R   0.285309 0.677746 0.305405 -0.082254
C52   C     C_R   0.293152 0.654558 0.332808 0.636799
N4    N     N_R   0.140180 0.653374 0.355725 -0.551584
C53   C     C_R   0.984356 0.677535 0.354617 0.643885
C54   C     C_R   0.102828 0.639594 0.417287 -0.096821
C55   C     C_R   0.102115 0.613278 0.441868 0.135776
C56   C     C_R   0.202366 0.560538 0.394801 0.056585
C57   C     C_R   0.191733 0.586518 0.370379 -0.058073
C58   C     C_R   0.144044 0.626390 0.381247 0.284771
O16   O     O_2   0.831912 0.675504 0.376467 -0.501592
C59   C     C_R   0.934446 0.776460 0.250697 0.054038
C60   C     C_R   0.083322 0.775976 0.224851 0.074304
C61   C     C_R   0.245190 0.750997 0.225143 0.022363
C62   C     C_R   0.761518 0.795936 0.245302 -0.148369
H15   H     H_    0.071289 0.670466 0.426235 0.148942
H16   H     H_    0.731969 0.735789 0.354470 0.187720
H17   H     H_    0.630300 0.790832 0.259151 0.162557
O17   O     O_2   0.322945 0.823802 0.119641 -0.493996
C63   C     C_R   0.366120 0.772951 0.170836 0.217493
H18   H     H_    0.723480 0.900146 0.057728 0.141581
H19   H     H_    0.742228 0.855023 0.100956 0.172947
C64   C     C_R   0.416530 0.700962 0.253352 -0.203060
C65   C     C_R   0.429503 0.676521 0.278844 0.214166
O18   O     O_2   0.453839 0.634172 0.337322 -0.473971
C66   C     C_R   0.382834 0.749814 0.197446 -0.244177
H20   H     H_    0.533475 0.698433 0.234531 0.142645
H21   H     H_    0.223711 0.575668 0.342779 0.181954
H22   H     H_    0.506593 0.730795 0.195026 0.134530
C67   C     C_R   0.561699 0.309003 0.635200 0.615438
O19   O     O_2   0.538022 0.295906 0.600401 -0.485450
N5    N     N_R   0.593130 0.348529 0.646239 -0.561576
C68   C     C_R   0.613697 0.363677 0.681331 0.600473
C69   C     C_R   0.460414 0.401394 0.616992 -0.088702
C70   C     C_R   0.475753 0.426662 0.591932 -0.260529
C71   C     C_R   0.788062 0.398485 0.572946 0.155733
C72   C     C_R   0.770891 0.373221 0.598204 -0.136928
C73   C     C_R   0.607972 0.374573 0.620328 0.350852
C74   C     C_R   0.583090 0.297765 0.696223 -0.082156
C75   C     C_R   0.553612 0.282435 0.659962 -0.087896
C76   C     C_R   0.518217 0.241342 0.650236 0.221035
C77   C     C_R   0.609310 0.338695 0.706904 -0.048725
C78   C     C_R   0.639433 0.425820 0.569682 -0.044516
H23   H     H_    0.884981 0.352409 0.600625 0.136458
C79   C     C_R   0.513867 0.074462 0.930500 -0.070340
C80   C     C_R   0.520155 0.207794 0.739096 0.077182
C81   C     C_R   0.662142 0.260956 0.781815 -0.026819
C82   C     C_R   0.586991 0.222338 0.773806 0.038249
C83   C     C_R   0.437998 0.169609 0.732481 -0.167316
C84   C     C_R   0.428000 0.146203 0.758812 -0.119997
C85   C     C_R   0.500252 0.159822 0.792705 -0.006801
C86   C     C_R   0.582347 0.197922 0.800379 -0.077382
C87   C     C_R   0.657663 0.211677 0.834562 -0.145231
C88   C     C_R   0.634652 0.187070 0.860822 0.696868
N6    N     N_R   0.556538 0.149983 0.852451 -0.553549
C89   C     C_R   0.491166 0.136047 0.819161 0.599834
C90   C     C_R   0.689991 0.098548 0.882835 -0.110776
C91   C     C_R   0.676587 0.073614 0.908122 -0.259066
C92   C     C_R   0.364219 0.101654 0.927359 0.117824
C93   C     C_R   0.378467 0.126715 0.901611 0.156776
C94   C     C_R   0.541652 0.125073 0.879287 0.320135
O20   O     O_2   0.415485 0.099341 0.811808 -0.517296
C95   C     C_R   0.537885 0.231939 0.712298 0.010594
C96   C     C_R   0.585068 0.272339 0.722034 0.026244
C97   C     C_R   0.631365 0.287635 0.757681 0.085998
C98   C     C_R   0.508843 0.217139 0.676162 -0.200539
H24   H     H_    0.792976 0.053091 0.909771 0.148379
H25   H     H_    0.815854 0.097033 0.865683 0.156401
H26   H     H_    0.362315 0.117228 0.752431 0.172340
H27   H     H_    0.374457 0.157444 0.707399 0.132178
H28   H     H_    0.484729 0.186122 0.667045 0.146899
O21   O     O_2   0.641219 0.402820 0.691426 -0.510621
C99   C     C_R   0.624421 0.354057 0.743009 -0.168847
H29   H     H_    0.359835 0.447281 0.590243 0.145054
H30   H     H_    0.333394 0.402654 0.633841 0.137227
H31   H     H_    0.628686 0.385669 0.751886 0.179197
C100  C     C_R   0.776573 0.270540 0.812457 0.167940
C101  C     C_R   0.760552 0.248259 0.840210 0.203667
O22   O     O_2   0.686058 0.199846 0.894569 -0.463353
C102  C     C_R   0.629859 0.329145 0.768415 0.208751
C103  C     C_R   0.459170 0.167654 0.207001 0.612843
N7    N     N_R   0.526719 0.175603 0.175135 -0.567671
C104  C     C_R   0.601822 0.211864 0.172116 0.630367
C105  C     C_R   0.612559 0.241875 0.201852 -0.029587
C106  C     C_R   0.547813 0.234116 0.235052 -0.067856
C107  C     C_R   0.470194 0.196609 0.238010 -0.028466
C108  C     C_R   0.686886 0.279414 0.199098 -0.109604
C109  C     C_R   0.696869 0.308965 0.228811 -0.128443
C110  C     C_R   0.634905 0.301625 0.262157 -0.027226
C111  C     C_R   0.561044 0.264067 0.265311 -0.014914
C112  C     C_R   0.500817 0.256484 0.298677 -0.054255
C113  C     C_R   0.424374 0.219224 0.301548 -0.196740
C114  C     C_R   0.407314 0.189494 0.271775 0.198718
C115  C     C_R   0.644923 0.331054 0.292473 0.585372
N8    N     N_R   0.590210 0.323022 0.325150 -0.553528
C116  C     C_R   0.519688 0.286343 0.328568 0.590709
O23   O     O_2   0.381845 0.131847 0.208476 -0.483842
O24   O     O_2   0.665543 0.218888 0.140345 -0.483809
H32   H     H_    0.737301 0.286155 0.173912 0.186139
H33   H     H_    0.754634 0.337522 0.225570 0.181879
O25   O     O_2   0.707168 0.367550 0.289130 -0.506886
O26   O     O_2   0.470338 0.278457 0.360838 -0.515460
H34   H     H_    0.376382 0.212873 0.327027 0.178202
C117  C     C_R   0.449470 0.364532 0.378447 -0.083890
H35   H     H_    0.310464 0.350400 0.372662 0.142502
C118  C     C_R   0.467458 0.394039 0.408178 -0.227085
H36   H     H_    0.341894 0.401308 0.424983 0.175717
C119  C     C_R   0.644003 0.414021 0.416189 -0.065574
C120  C     C_R   0.804749 0.403360 0.393453 0.172320
C121  C     C_R   0.786282 0.372661 0.364271 -0.103215
H37   H     H_    0.910124 0.364073 0.347322 0.132884
C122  C     C_R   0.608747 0.353395 0.356207 0.333778
C123  C     C_R   0.370944 0.144542 0.119272 0.202157
C124  C     C_R   0.363587 0.114647 0.089586 -0.204704
H38   H     H_    0.246901 0.114558 0.070904 0.165487
C125  C     C_R   0.507358 0.085579 0.083531 -0.149443
C126  C     C_R   0.658361 0.086701 0.107986 -0.143947
H39   H     H_    0.769956 0.064392 0.103947 0.150285
C127  C     C_R   0.663959 0.115695 0.138404 0.210147
C128  C     C_R   0.519966 0.145110 0.144198 0.280894
O27   O     O_R   0.662230 0.032770 0.966890 -0.544772
O28   O     O_R   0.330090 0.043230 0.039150 -0.537905
O29   O     O_R   0.157350 0.967260 0.033130 -0.540835
C129  C     C_R   0.498573 0.053864 0.052118 0.734243
O30   O     O_R   0.332650 0.037450 0.967510 -0.516277
O31   O     O_R   0.159930 0.961430 0.960980 -0.540546
C130  C     C_R   0.502248 0.046630 0.956537 0.754287
O32   O     O_R   0.659640 0.038600 0.039040 -0.538363
O33   O     O_3   0.492510 0.975090 0.997960 -0.374973
V3    V     V_3+5 0.218600 0.004620 0.000380 1.456201
O34   O     O_R   0.830050 0.956730 0.960830 -0.543799
C131  C     C_R   0.999245 0.946109 0.947874 0.703171
O35   O     O_R   0.827490 0.962520 0.032470 -0.543726
C132  C     C_R   0.995565 0.953995 0.043876 0.704301
V4    V     V_3+5 0.718310 0.995320 0.999580 1.424857
O36   O     O_3   0.994270 0.024900 0.002040 -0.356157
N9    N     N_3   0.056663 0.627044 0.478514 -0.665980
H40   H     H_    0.035046 0.657552 0.482974 0.244155
H41   H     H_    0.924934 0.614224 0.484066 0.233510
I1    I     I_    0.666198 0.811022 0.329990 -0.339734
I2    I     I_    0.544111 0.664514 0.750438 -0.285637
N10   N     N_3   0.507243 0.768428 0.142819 -0.581396
H42   H     H_    0.644191 0.773636 0.153913 0.225870
H43   H     H_    0.502872 0.739132 0.129948 0.240678
I3    I     I_    0.301538 0.502507 0.376026 -0.366341
I4    I     I_    0.667973 0.636692 0.270816 -0.283541
N11   N     N_3   0.954617 0.395530 0.550220 -0.640835
H44   H     H_    0.077239 0.400361 0.566126 0.229437
H45   H     H_    0.961196 0.366687 0.536336 0.247748
I5    I     I_    0.472220 0.210566 0.597779 -0.227501
I6    I     I_    0.029532 0.306795 0.809685 -0.342662
N12   N     N_3   0.200536 0.104320 0.950823 -0.631985
H46   H     H_    0.075549 0.098533 0.935692 0.247518
H47   H     H_    0.193231 0.133066 0.964885 0.268562
I7    I     I_    0.901354 0.272105 0.888959 -0.095738
I8    I     I_    0.153858 0.167071 0.895992 -0.292181
N13   N     N_3   0.611821 0.346159 0.805105 -0.610537
H48   H     H_    0.716502 0.368304 0.810927 0.261852
H49   H     H_    0.476875 0.359794 0.808796 0.262905
N14   N     N_3   0.326872 0.152139 0.276374 -0.573602
H50   H     H_    0.411088 0.140658 0.294767 0.242265
H51   H     H_    0.187831 0.156940 0.287057 0.238493
N15   N     N_3   0.984169 0.424539 0.399201 -0.640219
H52   H     H_    0.957856 0.453390 0.395244 0.256136
H53   H     H_    0.086301 0.413095 0.380037 0.238954
I9    I     I_    0.155072 0.188591 0.125118 -0.284092
N16   N     N_3   0.816512 0.114598 0.163250 -0.625545
H54   H     H_    0.885503 0.142067 0.167521 0.262155
H55   H     H_    0.755177 0.110045 0.187277 0.262835

loop_
_geom_bond_atom_site_label_1
_geom_bond_atom_site_label_2
_ccdc_geom_bond_type
C110  C115  A    
N4    C53   A    
C19   H4    S    
O30   V3    S    
N5    C73   S    
C9    C16   A    
C56   I3    S    
C59   C60   A    
C46   C50   A    
C38   C60   A    
N9    H41   S    
N8    C116  A    
V3    O36   S    
C72   H23   S    
C120  N15   S    
C75   C76   A    
C23   C24   A    
N7    C104  A    
C92   N12   S    
C111  C112  A    
C110  C111  A    
C121  H37   S    
C84   H26   S    
C13   C14   A    
O31   C131  A    
C5    O11   S    
C54   H15   S    
C49   C50   A    
C25   C30   A    
C33   C37   A    
C109  H33   S    
C15   C16   A    
O35   V4    S    
C67   O19   S    
C82   C86   A    
O1    C2    A    
O5    C3    A    
C88   O22   S    
N2    C18   A    
C44   C46   A    
C29   C30   A    
C108  C109  A    
C124  H38   S    
N16   H55   S    
C93   C94   A    
C35   H12   S    
C17   N2    A    
C34   C42   A    
O33   V3    S    
C81   C100  A    
N1    C6    A    
C64   H20   S    
C118  C119  A    
C69   C73   A    
C112  C113  A    
C57   C58   A    
C68   O21   S    
C71   N11   S    
C79   C130  S    
C8    C9    A    
N15   H52   S    
O8    V2    S    
N14   H50   S    
C43   C56   A    
C96   C97   A    
C99   C102  A    
C126  H39   S    
N14   H51   S    
C123  I9    S    
C33   H19   S    
C25   C26   A    
N12   H46   S    
C39   C40   A    
O1    V2    S    
C31   C39   A    
O7    V1    S    
C11   I2    S    
C55   N9    S    
C103  O23   S    
C77   C99   A    
C1    O6    A    
C80   C83   A    
O28   C129  A    
C35   C36   A    
C14   C18   A    
N8    C122  S    
O28   V3    S    
C125  C126  A    
C63   C66   A    
C100  I6    S    
O9    C4    A    
C108  H32   S    
N6    C94   S    
C129  O32   A    
N12   H47   S    
C2    C119  S    
C103  C107  A    
C118  H36   S    
C104  O24   S    
C20   C21   A    
N2    C24   S    
C32   O17   S    
N13   H49   S    
N9    H40   S    
C12   C13   A    
C8    C13   A    
C26   C27   A    
C91   H24   S    
C83   H27   S    
C105  C108  A    
N15   H53   S    
C87   C101  A    
C22   C23   A    
O29   C132  A    
C90   C91   A    
C106  C111  A    
C47   I1    S    
C40   C62   A    
C53   O16   S    
C43   C55   A    
C59   C62   A    
C92   C93   A    
C127  C128  A    
C81   C97   A    
C119  C120  A    
C93   I8    S    
C86   C87   A    
C11   C12   A    
C115  O25   S    
O34   V4    S    
C66   H22   S    
C105  C106  A    
O4    C2    A    
C3    C43   S    
O34   C131  A    
C83   C84   A    
C124  C125  A    
C101  I7    S    
C121  C122  A    
N16   H54   S    
C22   H6    S    
C35   C42   A    
C54   C58   A    
C47   C48   A    
C32   C41   A    
C36   C37   A    
C45   C64   A    
O27   V4    S    
C31   O15   S    
C38   C41   A    
O2    C1    A    
C98   H28   S    
N3    C32   A    
C103  N7    A    
C95   C98   A    
C61   C66   A    
C19   C20   A    
C23   H7    S    
C67   C75   A    
C7    C10   A    
C15   H2    S    
C44   C59   A    
C10   C11   A    
O35   C132  A    
V4    O36   S    
C60   C61   A    
C16   H3    S    
C28   H10   S    
C125  C129  S    
N10   H42   S    
C42   C132  S    
C25   H8    S    
C18   O14   S    
C50   C51   A    
C123  C128  A    
N11   H45   S    
C109  C110  A    
C19   C24   A    
C80   C95   A    
O3    C4    A    
C114  N14   S    
C76   I5    S    
O29   V3    S    
O30   C130  A    
C106  C107  A    
C127  N16   S    
C48   C49   A    
O6    V2    S    
C10   H1    S    
C68   C77   A    
C28   C29   A    
C84   C85   A    
C36   H13   S    
C20   H5    S    
O2    V1    S    
C40   H14   S    
C85   C89   A    
C26   H9    S    
C4    C21   S    
C95   C96   A    
C79   C91   A    
C12   C17   A    
O32   V4    S    
C27   C28   A    
C89   O20   S    
C117  C122  A    
C69   H30   S    
C52   N4    A    
C97   C102  A    
C48   H16   S    
C45   C61   A    
C99   H31   S    
C52   O18   S    
C21   C22   A    
C90   C94   A    
C123  C124  A    
C6    O12   S    
C51   C52   A    
O5    V1    S    
C71   C72   A    
C57   H21   S    
C74   C75   A    
C85   C86   A    
C116  O26   S    
C41   C63   A    
C17   O13   S    
C63   N10   S    
C62   H17   S    
C88   N6    A    
C5    C9    A    
C5    N1    A    
N3    C37   S    
C74   C96   A    
C1    C78   S    
C27   C131  S    
C6    C7    A    
O9    V2    S    
C81   C82   A    
N7    C128  S    
N11   H44   S    
C113  C114  A    
V1    O10   S    
C69   C70   A    
C120  C121  A    
C31   N3    A    
C44   C47   A    
C29   H11   S    
C104  C105  A    
C67   N5    A    
O33   V4    S    
C74   C77   A    
V2    O10   S    
N4    C58   S    
C33   C34   A    
C90   H25   S    
N13   H48   S    
N10   H43   S    
C107  C114  A    
C49   C53   A    
O7    V2    S    
C38   C39   A    
C100  C101  A    
O31   V3    S    
C117  C118  A    
N6    C89   A    
C102  N13   S    
C45   C46   A    
C71   C78   A    
N1    C30   S    
O4    V1    S    
C7    C8    A    
C126  C127  A    
C115  N8    A    
C64   C65   A    
O27   C130  A    
C14   C15   A    
O3    V1    S    
C65   I4    S    
C72   C73   A    
C87   C88   A    
C70   H29   S    
C117  H35   S    
C70   C78   A    
C34   H18   S    
C80   C82   A    
C54   C55   A    
C51   C65   A    
C79   C92   A    
C112  C116  A    
C56   C57   A    
N5    C68   A    
O8    C3    A    
C76   C98   A    
C113  H34   S    
