data_mof_unit_4556.cif
_audit_creation_date              2013-03-05T16:47:21-0500
_audit_creation_method            fapswitch 2.2
_symmetry_space_group_name_H-M    P1
_symmetry_Int_Tables_number       1
_space_group_crystal_system       triclinic
_cell_length_a                    10.925923
_cell_length_b                    10.931443
_cell_length_c                    9.758448
_cell_angle_alpha                 90.59299
_cell_angle_beta                  91.113832
_cell_angle_gamma                 90.312866
_cell_volume                      1165.20969577

loop_
_atom_site_label
_atom_site_type_symbol
_atom_site_description
_atom_site_fract_x
_atom_site_fract_y
_atom_site_fract_z
_atom_type_partial_charge
O1    O     O_R   0.500020 0.321960 0.617040 -0.553313
O2    O     O_R   0.499980 0.321920 0.382900 -0.577892
C1    C     C_R   0.498893 0.265368 0.499039 0.852574
O3    O     O_R   0.319660 0.500030 0.617070 -0.597632
O4    O     O_R   0.319620 0.499990 0.382930 -0.585337
C2    C     C_R   0.262424 0.499320 0.498391 0.784427
Cu1   Cu    Cu3+1 0.500020 0.500020 0.638630 1.084728
Cu2   Cu    Cu3+1 0.499980 0.499980 0.361370 1.037912
O5    O     O_R   0.500020 0.678080 0.617100 -0.518934
O6    O     O_R   0.499980 0.678040 0.382960 -0.559850
O7    O     O_R   0.680380 0.500010 0.617070 -0.570347
O8    O     O_R   0.680340 0.499970 0.382930 -0.571899
C3    C     C_R   0.504381 0.734195 0.500757 0.856220
C4    C     C_R   0.737676 0.498155 0.501808 0.853229
H1    H     H_    0.191051 0.610248 0.864447 0.166628
C5    C     C_R   0.165525 0.684539 0.066541 0.003964
H2    H     H_    0.185248 0.777565 0.036746 0.180339
C6    C     C_R   0.135956 0.659228 0.201934 -0.091355
H3    H     H_    0.130776 0.733400 0.276013 0.153328
C7    C     C_R   0.108592 0.538952 0.239900 0.115847
C8    C     C_R   0.111718 0.444338 0.142062 -0.140472
H4    H     H_    0.087983 0.351585 0.169666 0.163772
C9    C     C_R   0.142383 0.469752 0.007264 -0.207661
H5    H     H_    0.145234 0.395955 0.932857 0.163204
C10   C     C_R   0.168218 0.589980 0.969140 -0.072659
C11   C     C_R   0.931473 0.512710 0.381924 -0.183191
H6    H     H_    0.879770 0.528942 0.289258 0.192833
C12   C     C_R   0.871844 0.494547 0.505045 -0.052923
C13   C     C_R   0.942312 0.474275 0.625698 0.066271
C14   C     C_R   0.069198 0.473867 0.618710 -0.200495
H7    H     H_    0.121946 0.456202 0.710821 0.161831
C15   C     C_R   0.128506 0.496167 0.495748 -0.081890
C16   C     C_R   0.057839 0.514791 0.375376 -0.010553
C17   C     C_R   0.880672 0.569913 0.843060 -0.205407
H8    H     H_    0.910167 0.656323 0.801036 0.197403
C18   C     C_R   0.833983 0.566165 0.975698 0.403850
C19   C     C_R   0.794917 0.453171 0.027011 -0.323082
H9    H     H_    0.757025 0.446391 0.127843 0.200841
C20   C     C_R   0.804948 0.346238 0.948835 -0.208495
H10   H     H_    0.775109 0.260617 0.992143 0.238646
C21   C     C_R   0.853367 0.349597 0.817056 0.427316
C22   C     C_R   0.889498 0.463215 0.763033 -0.075137
C23   C     C_2   0.510350 0.931107 0.389261 -0.141559
C24   C     C_2   0.520013 0.865393 0.503674 -0.242510
H11   H     H_    0.495687 0.886768 0.290091 0.222115
H12   H     H_    0.542928 0.908492 0.601730 0.214435
C25   C     C_2   0.529786 0.063843 0.393338 0.241471
C26   C     C_2   0.481630 0.133362 0.495553 0.071551
C27   C     C_2   0.444339 0.418291 0.922387 -0.002254
N1    N     N_2   0.498640 0.498660 0.846910 -0.080751
H13   H     H_    0.405752 0.337529 0.872341 0.164408
C28   C     C_2   0.433228 0.426042 0.076046 0.009262
N2    N     N_2   0.498610 0.498630 0.153040 -0.259353
H14   H     H_    0.369391 0.364480 0.124309 0.152494
H15   H     H_    0.570619 0.543513 0.110671 0.263810
S1    S     S_3+6 0.868673 0.211609 0.723003 0.044163
O9    O     O_2   0.832151 0.103679 0.807559 -0.195319
O10   O     O_2   0.787243 0.215961 0.597356 -0.303499
O11   O     O_3   0.015244 0.194805 0.676350 -0.492438
H16   H     H_    0.014894 0.204552 0.575515 0.378000
N3    N     N_R   0.605225 0.115128 0.288439 0.135434
O12   O     O_R   0.595664 0.073397 0.163305 -0.298894
O13   O     O_R   0.697774 0.185548 0.321616 -0.319196
N4    N     N_R   0.395968 0.083078 0.590834 0.098498
O14   O     O_R   0.404351 0.111636 0.720452 -0.305737
O15   O     O_R   0.300255 0.022559 0.545609 -0.335724
N5    N     N_R   0.513901 0.617018 0.899393 0.231420
O16   O     O_R   0.608905 0.680533 0.864343 -0.287278
O17   O     O_R   0.422510 0.674515 0.953486 -0.361497
N6    N     N_R   0.824536 0.677095 0.055740 0.140047
O18   O     O_R   0.878812 0.776891 0.017103 -0.299918
O19   O     O_R   0.755522 0.681757 0.162754 -0.357820

loop_
_geom_bond_atom_site_label_1
_geom_bond_atom_site_label_2
_geom_bond_distance
_ccdc_geom_bond_type
Cu2   N2    2.032642 S    
C25   N3    1.442634 S    
O4    Cu2   1.985862 S    
C2    C15   1.463112 S    
C9    H5    1.080738 S    
C21   S1    1.767969 S    
C19   H9    1.078004 S    
C13   C22   1.475237 S    
C21   C22   1.411608 A    
C11   C16   1.383455 A    
C11   C12   1.393330 A    
C25   C26   1.363207 D    
C17   C22   1.401738 A    
S1    O11   1.683863 S    
C14   H7    1.077988 S    
Cu2   O8    1.977728 S    
C27   C28   1.508272 S    
C4    C12   1.466388 S    
N4    O14   1.301058 A    
C27   H13   1.083821 S    
C8    C9    1.394071 A    
O2    C1    1.296801 A    
O11   H16   0.990775 S    
C19   C20   1.395204 A    
C5    C6    1.396334 A    
N3    O13   1.301343 A    
C8    H4    1.083215 S    
S1    O9    1.503288 D    
C28   N2    1.290366 D    
C14   C15   1.397745 A    
C23   H11   1.086527 S    
C11   H6    1.073717 S    
C13   C14   1.389381 A    
C9    C10   1.398407 A    
O3    Cu1   1.977729 S    
O4    C2    1.299062 A    
Cu1   N1    2.033045 S    
O3    C2    1.305372 A    
C18   C19   1.404977 A    
C18   N6    1.440873 S    
C28   H14   1.084151 S    
C17   H8    1.083560 S    
C17   C18   1.401336 A    
N2    H15   1.021422 S    
C23   C24   1.336625 D    
N3    O12   1.301196 A    
O7    C4    1.297873 A    
H1    C10   1.081234 S    
C26   N4    1.442722 S    
C7    C16   1.469416 S    
N5    O16   1.298985 A    
Cu1   O5    1.959920 S    
C1    C26   1.454230 S    
C20   H10   1.082191 S    
N6    O18   1.301555 A    
C7    C8    1.401286 A    
C20   C21   1.400756 A    
C6    C7    1.401934 A    
Cu2   O6    1.955653 S    
C6    H3    1.083124 S    
N1    N5    1.394522 S    
C5    C10   1.397790 A    
C27   N1    1.300395 D    
Cu1   Cu2   2.705615 S    
O5    C3    1.297584 A    
C12   C13   1.414268 A    
Cu1   O7    1.985861 S    
N6    O19   1.300632 A    
C24   H12   1.086423 S    
N5    O17   1.300467 A    
O1    Cu1   1.955653 S    
S1    O10   1.502155 D    
C23   C25   1.465331 S    
C3    C24   1.443315 S    
O2    Cu2   1.959919 S    
C15   C16   1.410241 A    
O8    C4    1.308029 A    
C5    H2    1.082238 S    
O1    C1    1.301325 A    
O6    C3    1.297477 A    
N4    O15   1.301731 A    
