data_mof_unit_4745.cif
_audit_creation_date              2012-12-10T17:32:59-0500
_audit_creation_method            fapswitch 2.2
_symmetry_space_group_name_H-M    P1
_symmetry_Int_Tables_number       1
_space_group_crystal_system       triclinic
_cell_length_a                    12.353468
_cell_length_b                    13.267929
_cell_length_c                    14.273118
_cell_angle_alpha                 93.286755
_cell_angle_beta                  107.638032
_cell_angle_gamma                 117.022319
_cell_volume                      1932.96494812

loop_
_atom_site_label
_atom_site_type_symbol
_atom_type_description
_atom_site_fract_x
_atom_site_fract_y
_atom_site_fract_z
_atom_type_partial_charge
C1    C     C_R   0.650825 0.714043 0.508589 0.779367
C2    C     C_R   0.881394 0.547489 0.924665 0.089817
C3    C     C_R   0.835530 0.570265 0.998725 0.170178
C4    C     C_R   0.998251 0.540668 0.954484 0.064145
C5    C     C_R   0.058201 0.542006 0.056996 0.066125
C6    C     C_R   0.011469 0.567821 0.129045 -0.225555
C7    C     C_R   0.902985 0.582876 0.100200 -0.235313
C8    C     C_R   0.058094 0.534178 0.885661 -0.228140
C9    C     C_R   0.167822 0.520885 0.914858 -0.232038
C10   C     C_R   0.220064 0.510975 0.012700 0.165721
C11   C     C_R   0.164518 0.519603 0.084287 0.088714
C12   C     C_R   0.619737 0.518586 0.686834 0.797558
C13   C     C_R   0.327612 0.492502 0.039879 -0.200315
C14   C     C_R   0.380296 0.481713 0.137426 -0.200768
C15   C     C_R   0.215326 0.502637 0.180319 -0.248778
C16   C     C_R   0.139549 0.966665 0.362658 -0.189749
C17   C     C_R   0.248910 0.162353 0.463097 -0.050511
C18   C     C_R   0.730536 0.921038 0.574042 -0.186866
C19   C     C_R   0.820747 0.037931 0.592832 -0.143751
C20   C     C_R   0.921586 0.072582 0.556554 -0.182443
C21   C     C_R   0.931411 0.990172 0.496916 0.079689
C22   C     C_R   0.829852 0.872739 0.467602 0.082341
C23   C     C_R   0.345223 0.285289 0.484951 0.804617
C24   C     C_R   0.038010 0.020648 0.464574 0.073943
C25   C     C_R   0.034839 0.937229 0.395253 0.168075
C26   C     C_R   0.926116 0.826241 0.357618 -0.240527
C27   C     C_R   0.824337 0.794740 0.392211 -0.199161
C28   C     C_R   0.148793 0.131460 0.500208 -0.253505
C29   C     C_R   0.245897 0.079189 0.395889 -0.193919
C30   C     C_R   0.735763 0.837213 0.513791 -0.102479
C31   C     C_R   0.253842 0.685133 0.661604 -0.305275
C32   C     C_R   0.654789 0.342246 0.363733 0.067957
C33   C     C_R   0.732550 0.307928 0.333529 -0.251779
C34   C     C_R   0.382602 0.484691 0.313485 0.792288
C35   C     C_R   0.867883 0.367300 0.384585 -0.195414
C36   C     C_R   0.927867 0.462585 0.467154 -0.007416
C37   C     C_R   0.843812 0.494847 0.495301 0.290899
C38   C     C_R   0.067455 0.526832 0.522824 -0.037292
C39   C     C_R   0.119019 0.621137 0.605164 0.177569
C40   C     C_R   0.036030 0.651443 0.630957 -0.297790
C41   C     C_R   0.902050 0.590081 0.577362 -0.195612
C42   C     C_R   0.159327 0.502263 0.501087 0.013072
C43   C     C_R   0.338294 0.656482 0.636518 0.062682
C44   C     C_R   0.691995 0.536028 0.794482 -0.051459
C45   C     C_R   0.324227 0.486969 0.208119 -0.051177
C46   C     C_R   0.721698 0.579240 0.970358 -0.202511
C47   C     C_R   0.650750 0.562990 0.868799 -0.196259
C48   C     C_R   0.805799 0.527753 0.822766 -0.262241
Cu1   Cu    Cu3+1 0.416420 0.526630 0.522910 0.931522
Cu2   Cu    Cu3+1 0.583580 0.473370 0.477090 0.920758
H1    H     H_    0.870129 0.602186 0.157668 0.137350
H2    H     H_    0.371535 0.487280 0.985862 0.130810
H3    H     H_    0.322844 0.102245 0.366114 0.148463
H4    H     H_    0.919837 0.763242 0.301414 0.137823
H5    H     H_    0.137466 0.903515 0.309450 0.137868
H6    H     H_    0.159724 0.196487 0.556626 0.147348
H7    H     H_    0.658079 0.896086 0.608713 0.152560
H8    H     H_    0.814902 0.101976 0.638484 0.144880
H9    H     H_    0.740067 0.709367 0.356787 0.172982
H10   H     H_    0.170183 0.499264 0.234682 0.149107
H11   H     H_    0.075154 0.723727 0.693843 0.157015
H12   H     H_    0.293762 0.757130 0.724896 0.139906
H13   H     H_    0.128595 0.432164 0.439742 0.121790
H14   H     H_    0.549979 0.295459 0.323462 0.123803
H15   H     H_    0.923095 0.336835 0.357988 0.136388
H16   H     H_    0.687646 0.234847 0.270197 0.146688
H17   H     H_    0.847758 0.620646 0.603467 0.207812
H18   H     H_    0.465203 0.470252 0.157636 0.151571
H19   H     H_    0.210869 0.516634 0.859906 0.146793
H20   H     H_    0.687011 0.597920 0.026742 0.130214
H21   H     H_    0.563124 0.570266 0.848509 0.149994
H22   H     H_    0.831550 0.502188 0.763602 0.157544
H23   H     H_    0.058997 0.580526 0.209141 0.146381
H24   H     H_    0.024941 0.542782 0.809105 0.154028
N1    N     N_R   0.290690 0.566960 0.557640 -0.176643
N2    N     N_R   0.709100 0.433710 0.442970 -0.204984
O1    O     O_R   0.545970 0.684450 0.528810 -0.577886
O2    O     O_R   0.687130 0.639470 0.490120 -0.603252
O3    O     O_R   0.519670 0.535100 0.660030 -0.584829
O4    O     O_R   0.660830 0.490120 0.621340 -0.599597
O5    O     O_R   0.312870 0.360530 0.509880 -0.585790
O6    O     O_R   0.454030 0.315550 0.471190 -0.583830
O7    O     O_R   0.339170 0.509880 0.378660 -0.585000
O8    O     O_R   0.480330 0.464900 0.339970 -0.596293
H25   H     H_    0.988162 0.164778 0.574538 0.129832
H26   H     H_    0.442309 0.705782 0.679978 0.120158

loop_
_geom_bond_atom_site_label_1
_geom_bond_atom_site_label_2
_ccdc_geom_bond_type
C23   O6    A    
C17   C29   A    
C15   H10   S    
C35   C36   A    
C4    C8    A    
C28   H6    S    
Cu2   O8    S    
C41   H17   S    
C42   N1    A    
C17   C23   S    
C31   C43   A    
C36   C37   A    
C9    H19   S    
C5    C11   A    
C3    C7    A    
C38   C39   A    
C35   H15   S    
C12   O3    A    
Cu2   O2    S    
C1    O1    A    
C18   C19   A    
Cu1   O5    S    
C11   C15   A    
C19   C20   A    
C31   C39   A    
C8    C9    A    
Cu1   N1    S    
C18   C30   A    
C23   O5    A    
C9    C10   A    
C44   C47   A    
C21   C22   A    
C1    O2    A    
C43   H26   S    
C31   H12   S    
C34   O8    A    
C48   H22   S    
C26   H4    S    
C33   H16   S    
C14   C45   A    
C19   H8    S    
C43   N1    A    
C24   C25   A    
C32   H14   S    
C39   C40   A    
C2    C48   A    
C16   C29   A    
C40   H11   S    
Cu1   O3    S    
C2    C4    A    
Cu2   N2    S    
C13   H2    S    
C18   H7    S    
C20   H25   S    
C8    H24   S    
C26   C27   A    
C34   C45   S    
C47   H21   S    
C40   C41   A    
C37   N2    A    
C22   C27   A    
C34   O7    A    
C15   C45   A    
Cu2   O6    S    
C6    H23   S    
C16   C25   A    
C46   C47   A    
C22   C30   A    
C17   C28   A    
C24   C28   A    
C4    C5    A    
C10   C13   A    
Cu2   O4    S    
C32   N2    A    
C38   C42   A    
C6    C7    A    
C3    C46   A    
C32   C33   A    
Cu1   O7    S    
C36   C38   A    
C2    C3    A    
C25   C26   A    
C16   H5    S    
C7    H1    S    
C12   C44   S    
C27   H9    S    
C5    C6    A    
C29   H3    S    
C12   O4    A    
C1    C30   S    
C33   C35   A    
Cu1   O1    S    
C37   C41   A    
C46   H20   S    
C10   C11   A    
C20   C21   A    
Cu1   Cu2   S    
C21   C24   A    
C14   H18   S    
C13   C14   A    
C42   H13   S    
C44   C48   A    
