data_mof_unit_2699.cif
_audit_creation_date              2012-12-10T20:21:42-0500
_audit_creation_method            fapswitch 2.2
_symmetry_space_group_name_H-M    P1
_symmetry_Int_Tables_number       1
_space_group_crystal_system       triclinic
_cell_length_a                    19.292993
_cell_length_b                    18.679399
_cell_length_c                    8.921503
_cell_angle_alpha                 89.994318
_cell_angle_beta                  92.798176
_cell_angle_gamma                 89.962986
_cell_volume                      3211.3106191

loop_
_atom_site_label
_atom_site_type_symbol
_atom_type_description
_atom_site_fract_x
_atom_site_fract_y
_atom_site_fract_z
_atom_type_partial_charge
C1    C     C_R   0.365902 0.499903 0.501863 0.890805
C2    C     C_R   0.634098 0.499871 0.498337 0.890714
C3    C     C_R   0.560495 0.727911 0.525571 0.094530
C4    C     C_R   0.474434 0.272747 0.376331 0.095961
C5    C     C_R   0.439479 0.727950 0.474386 0.095979
C6    C     C_R   0.525506 0.272607 0.623590 0.094777
C7    C     C_R   0.561585 0.802569 0.501306 -0.312915
C8    C     C_R   0.478413 0.197429 0.372154 -0.319289
C9    C     C_R   0.438328 0.802602 0.498731 -0.313563
C10   C     C_R   0.521503 0.197288 0.627486 -0.320267
C11   C     C_R   0.499939 0.842329 0.500014 0.072055
C12   C     C_R   0.499945 0.158508 0.499757 0.104663
C13   C     C_R   0.447596 0.964151 0.416724 0.046166
C14   C     C_R   0.559533 0.038291 0.550185 0.039376
C15   C     C_R   0.552198 0.964128 0.582992 0.046272
C16   C     C_R   0.440259 0.038370 0.449233 0.039882
C17   C     C_R   0.499902 0.077668 0.499701 0.038185
C18   C     C_R   0.499900 0.923882 0.499935 0.051534
C19   C     C_R   0.499723 0.499996 0.218759 0.937784
C20   C     C_R   0.500275 0.499991 0.781240 0.937882
C21   C     C_1   0.499895 0.499960 0.065381 -0.148354
C22   C     C_1   0.500101 0.499953 0.934618 -0.148474
C23   C     C_R   0.746249 0.437450 0.533945 -0.208788
C24   C     C_R   0.256265 0.560363 0.554969 -0.200587
C25   C     C_R   0.253837 0.437102 0.470800 -0.204211
C26   C     C_R   0.743820 0.560001 0.445243 -0.202770
C27   C     C_R   0.818305 0.436018 0.531462 -0.030310
C28   C     C_R   0.184173 0.562057 0.555223 -0.029035
C29   C     C_R   0.181898 0.435515 0.475080 -0.033253
C30   C     C_R   0.815997 0.561727 0.446619 -0.027529
C31   C     C_R   0.853329 0.499207 0.490641 -0.086492
C32   C     C_R   0.146816 0.499086 0.514179 -0.091871
C33   C     C_R   0.709222 0.499238 0.493056 -0.095343
C34   C     C_R   0.290810 0.499295 0.508417 -0.101409
C35   C     C_R   0.963471 0.500692 0.362900 -0.074588
C36   C     C_R   0.036710 0.499312 0.642166 -0.080074
C37   C     C_R   0.035330 0.500905 0.368978 -0.085393
C38   C     C_R   0.964841 0.499616 0.636112 -0.075667
C39   C     C_R   0.071645 0.500001 0.508548 0.174062
C40   C     C_R   0.928503 0.500081 0.496510 0.186168
H1    H     H_    0.718842 0.389768 0.566365 0.225600
H2    H     H_    0.285823 0.607135 0.589877 0.223434
H3    H     H_    0.281332 0.389253 0.439567 0.233126
H4    H     H_    0.714348 0.606559 0.408195 0.215324
H5    H     H_    0.935060 0.500903 0.255109 0.123164
H6    H     H_    0.065147 0.498496 0.749912 0.122982
H7    H     H_    0.062738 0.501382 0.265837 0.124841
H8    H     H_    0.937447 0.499123 0.739267 0.124517
H9    H     H_    0.610750 0.829431 0.494540 0.179656
H10   H     H_    0.462380 0.169056 0.270341 0.161267
H11   H     H_    0.389144 0.829498 0.505453 0.178515
H12   H     H_    0.537541 0.168788 0.729181 0.161893
N1    N     N_R   0.500000 0.689440 0.500000 -0.149054
N2    N     N_R   0.500000 0.310560 0.500000 -0.159205
O1    O     O_R   0.398180 0.560840 0.499960 -0.623897
O2    O     O_R   0.601820 0.439160 0.500040 -0.583430
O3    O     O_R   0.601820 0.560840 0.500040 -0.624023
O4    O     O_R   0.398180 0.439160 0.499960 -0.583776
O5    O     O_R   0.500000 0.560800 0.285330 -0.577467
O6    O     O_R   0.500000 0.439200 0.714670 -0.613409
O7    O     O_R   0.500000 0.560800 0.714670 -0.577660
O8    O     O_R   0.500000 0.439200 0.285330 -0.613770
Zn1   Zn    Zn3+2 0.500000 0.581210 0.500000 1.011955
Zn2   Zn    Zn3+2 0.500000 0.418790 0.500000 1.011953
C41   C     C_2   0.854963 0.367601 0.570155 0.893703
O9    O     O_2   0.828604 0.324438 0.653379 -0.624237
O10   O     O_R   0.918422 0.351264 0.508863 -0.769472
H13   H     H_    0.937559 0.303180 0.543675 0.368456
C42   C     C_2   0.150483 0.630872 0.595937 0.929308
O11   O     O_2   0.091389 0.645095 0.549570 -0.601371
O12   O     O_R   0.187640 0.680749 0.684932 -0.784910
H14   H     H_    0.159836 0.725639 0.703957 0.355976
C43   C     C_2   0.145885 0.366412 0.439389 0.903718
O13   O     O_2   0.088894 0.353551 0.487243 -0.603114
O14   O     O_R   0.178517 0.314750 0.353716 -0.809475
H15   H     H_    0.149600 0.269799 0.338431 0.350488
C44   C     C_2   0.850293 0.630011 0.405188 0.924427
O15   O     O_2   0.820165 0.671665 0.318483 -0.601325
O16   O     O_R   0.915842 0.648035 0.467787 -0.770445
H16   H     H_    0.933013 0.695847 0.430714 0.368151
C45   C     C_2   0.623110 0.696355 0.599968 0.930015
O17   O     O_2   0.680632 0.714260 0.561946 -0.647512
O18   O     O_R   0.616709 0.651561 0.723982 -0.765913
H17   H     H_    0.663292 0.634745 0.768376 0.337423
C46   C     C_2   0.439365 0.307967 0.245906 0.953684
O19   O     O_2   0.456343 0.293235 0.119432 -0.590118
O20   O     O_R   0.383581 0.353949 0.265555 -0.790259
H18   H     H_    0.363103 0.373697 0.167193 0.335142
C47   C     C_2   0.376937 0.696487 0.399638 0.928624
O21   O     O_2   0.319361 0.714672 0.436952 -0.648987
O22   O     O_R   0.383492 0.651526 0.275952 -0.766087
H19   H     H_    0.336953 0.634824 0.231229 0.336235
C48   C     C_2   0.560448 0.307672 0.754297 0.954410
O23   O     O_2   0.543641 0.292517 0.880675 -0.589687
O24   O     O_R   0.615941 0.353994 0.734989 -0.792294
H20   H     H_    0.636357 0.373588 0.833511 0.335192
C49   C     C_3   0.402871 0.932856 0.285951 -0.421532
C50   C     C_3   0.445156 0.894443 0.168772 -0.351949
C51   C     C_3   0.398210 0.868648 0.036822 -0.846800
H21   H     H_    0.356632 0.833464 0.077250 0.282378
H22   H     H_    0.374333 0.914988 0.975672 0.253426
H23   H     H_    0.428989 0.837326 0.957946 0.255038
H24   H     H_    0.484509 0.932032 0.127528 0.225350
H25   H     H_    0.472526 0.847120 0.216913 0.245643
H26   H     H_    0.361084 0.898219 0.325289 0.207633
H27   H     H_    0.375804 0.976780 0.222868 0.204857
C52   C     C_3   0.631471 0.072779 0.558991 -0.425801
C53   C     C_3   0.652584 0.099130 0.404467 -0.343843
C54   C     C_3   0.724833 0.132577 0.414110 -0.803902
H28   H     H_    0.725865 0.179402 0.490989 0.279384
H29   H     H_    0.764016 0.092715 0.455441 0.262074
H30   H     H_    0.738657 0.150976 0.301046 0.254903
H31   H     H_    0.652469 0.053252 0.325021 0.222912
H32   H     H_    0.615621 0.139835 0.358204 0.244091
H33   H     H_    0.634081 0.117049 0.641501 0.209907
H34   H     H_    0.671893 0.033636 0.596806 0.206184
C55   C     C_3   0.596988 0.932883 0.713781 -0.420080
C56   C     C_3   0.554779 0.894535 0.831117 -0.355953
C57   C     C_3   0.601791 0.868808 0.963087 -0.839631
H35   H     H_    0.643419 0.833625 0.922701 0.283723
H36   H     H_    0.625602 0.915180 0.024111 0.254115
H37   H     H_    0.571081 0.837502 0.042061 0.254122
H38   H     H_    0.515386 0.932144 0.872304 0.225577
H39   H     H_    0.527464 0.847188 0.783124 0.245784
H40   H     H_    0.638799 0.898214 0.674480 0.208764
H41   H     H_    0.624033 0.976843 0.776674 0.205611
C58   C     C_3   0.368361 0.073060 0.439553 -0.427865
C59   C     C_3   0.346991 0.099970 0.593485 -0.337099
C60   C     C_3   0.274924 0.133924 0.582556 -0.820832
H42   H     H_    0.274349 0.180572 0.505205 0.279226
H43   H     H_    0.235630 0.094253 0.541132 0.260168
H44   H     H_    0.260879 0.152697 0.695208 0.256126
H45   H     H_    0.346660 0.054298 0.673414 0.221488
H46   H     H_    0.384040 0.140527 0.639772 0.244169
H47   H     H_    0.365924 0.117059 0.356381 0.209117
H48   H     H_    0.327930 0.033923 0.402053 0.204616

loop_
_geom_bond_atom_site_label_1
_geom_bond_atom_site_label_2
_ccdc_geom_bond_type
C15   C18   A    
O20   H18   S    
C11   C18   S    
C48   O23   D    
C24   H2    S    
C43   O13   D    
O24   H20   S    
C9    H11   S    
C4    C8    A    
C10   H12   S    
C59   C60   S    
C25   H3    S    
C49   C50   S    
C2    O3    A    
C26   H4    S    
C44   O15   D    
C31   C40   S    
C7    C11   A    
C13   C18   A    
C5    N1    A    
C35   C37   A    
C58   H47   S    
C29   C32   A    
C3    C7    A    
C54   H29   S    
C30   C31   A    
C29   C43   S    
C19   O8    A    
C50   H24   S    
C50   C51   S    
C53   C54   S    
C42   O12   S    
C32   C39   S    
C53   H32   S    
C20   O7    A    
O7    Zn1   S    
C56   C57   S    
N1    Zn1   S    
O8    Zn2   S    
C30   C44   S    
C28   C42   S    
C16   C17   A    
C23   C33   A    
O1    Zn1   S    
C12   C17   S    
C3    C45   S    
C52   C53   S    
O2    Zn2   S    
C36   H6    S    
C23   C27   A    
C47   O22   S    
C55   H41   S    
C38   H8    S    
C25   C34   A    
C60   H44   S    
C49   H26   S    
C46   O20   S    
C48   O24   S    
C21   C22   T    
C25   C29   A    
C43   O14   S    
C14   C17   A    
C1    O4    A    
C6    N2    A    
C45   O18   S    
C1    C34   S    
C45   O17   D    
C57   H36   S    
O4    Zn2   S    
C27   C31   A    
O10   H13   S    
C28   C32   A    
C58   H48   S    
C7    H9    S    
C54   H30   S    
C47   O21   D    
O22   H19   S    
C4    C46   S    
C19   O5    A    
C46   O19   D    
C24   C34   A    
C15   C55   S    
C53   H31   S    
O14   H15   S    
C5    C9    A    
C27   C41   S    
C59   H46   S    
C26   C33   A    
O18   H17   S    
C8    C12   A    
C6    C48   S    
C44   O16   S    
C56   H39   S    
C9    C11   A    
C52   H33   S    
C10   C12   A    
C49   H27   S    
C2    C33   S    
C14   C52   S    
C51   H22   S    
C20   C22   S    
C26   C30   A    
C37   H7    S    
C58   C59   S    
C35   H5    S    
C8    H10   S    
C60   H42   S    
C57   H37   S    
C4    N2    A    
C36   C39   A    
C24   C28   A    
O3    Zn1   S    
C23   H1    S    
C6    C10   A    
C57   H35   S    
O5    Zn1   S    
C41   O10   S    
C51   H21   S    
O6    Zn2   S    
C36   C38   A    
C35   C40   A    
C1    O1    A    
O12   H14   S    
C37   C39   A    
C2    O2    A    
C59   H45   S    
C38   C40   A    
C3    N1    A    
N2    Zn2   S    
C50   H25   S    
C56   H38   S    
C13   C49   S    
C42   O11   D    
C16   C58   S    
C52   H34   S    
O16   H16   S    
C51   H23   S    
C41   O9    D    
C13   C16   A    
C54   H28   S    
C14   C15   A    
C60   H43   S    
C20   O6    A    
C55   C56   S    
C55   H40   S    
C5    C47   S    
C19   C21   S    
