data_mof_unit_3877.cif
_audit_creation_date              2012-12-10T19:08:41-0500
_audit_creation_method            fapswitch 2.2
_symmetry_space_group_name_H-M    P1
_symmetry_Int_Tables_number       1
_space_group_crystal_system       triclinic
_cell_length_a                    13.06231
_cell_length_b                    13.621329
_cell_length_c                    27.136545
_cell_angle_alpha                 90.135906
_cell_angle_beta                  93.403405
_cell_angle_gamma                 85.436044
_cell_volume                      4804.48553775

loop_
_atom_site_label
_atom_site_type_symbol
_atom_type_description
_atom_site_fract_x
_atom_site_fract_y
_atom_site_fract_z
_atom_type_partial_charge
C1    C     C_R   0.481050 0.685047 0.500198 0.902209
C2    C     C_R   0.336182 0.548779 0.121438 -0.098167
C3    C     C_3   0.046949 0.624022 0.045643 -0.850244
C4    C     C_3   0.359953 0.170817 0.960290 -0.424658
C5    C     C_3   0.271702 0.135736 0.926901 -0.855258
C6    C     C_3   0.374029 0.039183 0.535830 -0.411852
C7    C     C_3   0.289292 0.978719 0.553468 -0.865719
C8    C     C_3   0.629472 0.963677 0.469206 -0.390568
C9    C     C_3   0.709618 0.920587 0.508108 -0.869038
C10   C     C_R   0.498348 0.483207 0.647660 -0.155371
C11   C     C_R   0.490455 0.513999 0.351435 -0.173870
C12   C     C_R   0.294677 0.527859 0.019581 -0.009144
C13   C     C_R   0.372186 0.357077 0.970394 -0.011763
C14   C     C_R   0.380467 0.361133 0.022817 0.048995
C15   C     C_R   0.309556 0.531725 0.968412 0.050088
C16   C     C_R   0.343587 0.447812 0.047095 0.054348
C17   C     C_R   0.349743 0.446450 0.944131 0.055291
C18   C     C_R   0.240907 0.604837 0.045112 0.099308
C19   C     C_R   0.519040 0.314942 0.499506 0.889242
C20   C     C_R   0.393763 0.269434 0.943066 0.099192
C21   C     C_R   0.272483 0.622515 0.094804 -0.014535
C22   C     C_R   0.433659 0.277139 0.895970 -0.009976
C23   C     C_R   0.499887 0.498924 0.594484 0.883783
C24   C     C_R   0.498922 0.503452 0.405415 0.856069
C25   C     C_R   0.298733 0.621779 0.942622 -0.297574
C26   C     C_R   0.436194 0.286274 0.051144 -0.298615
C27   C     C_1   0.534230 0.212009 0.497438 -0.213223
C28   C     C_1   0.466247 0.787701 0.504114 -0.209187
C29   C     C_2   0.540602 0.020759 0.492918 0.119886
C30   C     C_R   0.372538 0.451806 0.894098 -0.076119
C31   C     C_2   0.460425 0.978787 0.511319 0.139263
C32   C     C_1   0.459335 0.874742 0.507893 0.028793
C33   C     C_1   0.541743 0.124736 0.495238 -0.061343
C34   C     C_2   0.033104 0.471074 0.486037 0.036541
C35   C     C_2   0.967106 0.529073 0.513486 0.037447
C36   C     C_1   0.854529 0.520213 0.509803 0.115721
C37   C     C_1   0.145541 0.479871 0.490022 0.107625
C38   C     C_R   0.364410 0.539397 0.816541 0.496612
C39   C     C_R   0.421574 0.389690 0.178429 0.482182
C40   C     C_R   0.463597 0.385619 0.825172 0.498584
C41   C     C_R   0.361156 0.457238 0.098678 -0.078870
C42   C     C_R   0.376042 0.561796 0.170184 0.509355
C43   C     C_R   0.420133 0.396425 0.712508 0.218012
C44   C     C_R   0.364981 0.541538 0.282008 0.231344
C45   C     C_R   0.457074 0.396863 0.664643 0.122366
C46   C     C_R   0.400908 0.567216 0.330000 0.100291
C47   C     C_R   0.518487 0.560351 0.680689 -0.076048
C48   C     C_R   0.557324 0.458590 0.321036 -0.069801
C49   C     C_R   0.499835 0.549466 0.730333 -0.185705
C50   C     C_R   0.533709 0.458008 0.270143 -0.201617
C51   C     C_R   0.449379 0.469559 0.746328 0.225934
C52   C     C_R   0.349373 0.540724 0.867370 -0.048228
C53   C     C_R   0.436299 0.494633 0.250526 0.242848
C54   C     C_R   0.548344 0.656842 0.663780 0.108406
C55   C     C_R   0.480303 0.741306 0.668130 -0.158844
C56   C     C_R   0.507103 0.832889 0.652263 -0.150659
C57   C     C_R   0.602031 0.840930 0.632151 -0.110987
C58   C     C_R   0.670508 0.757466 0.628111 -0.152781
C59   C     C_R   0.644106 0.665626 0.643984 -0.102572
C60   C     C_R   0.645637 0.392753 0.341100 0.160888
C61   C     C_R   0.629538 0.314715 0.372869 -0.087871
C62   C     C_R   0.711854 0.249135 0.389597 -0.129228
C63   C     C_R   0.410119 0.377810 0.126885 -0.048141
C64   C     C_R   0.810368 0.259667 0.374025 -0.124390
C65   C     C_R   0.826879 0.336241 0.341934 -0.157605
C66   C     C_R   0.744914 0.402668 0.325512 -0.162439
C67   C     C_3   0.010556 0.603810 0.549246 -0.383301
C68   C     C_3   0.929399 0.667490 0.575859 -0.877381
C69   C     C_3   0.990643 0.396216 0.450112 -0.391006
C70   C     C_3   0.072951 0.335521 0.422575 -0.865692
C71   C     C_R   0.307108 0.726663 0.869694 0.185357
C72   C     C_R   0.215622 0.788131 0.870929 -0.153110
C73   C     C_R   0.208809 0.881920 0.849538 -0.138588
C74   C     C_R   0.314654 0.627174 0.892439 0.022814
C75   C     C_R   0.292935 0.914745 0.826673 -0.108291
C76   C     C_R   0.384469 0.854365 0.825825 -0.121961
C77   C     C_R   0.392363 0.761587 0.848041 -0.090027
C78   C     C_R   0.509160 0.208582 0.128127 0.191645
C79   C     C_R   0.471534 0.114874 0.128523 -0.149027
C80   C     C_R   0.529733 0.036130 0.152138 -0.132270
C81   C     C_R   0.626077 0.050309 0.175116 -0.103962
C82   C     C_R   0.664575 0.143148 0.174316 -0.131213
C83   C     C_R   0.606676 0.222057 0.150666 -0.094672
C84   C     C_3   0.345602 0.651009 0.358133 -0.391740
C85   C     C_R   0.447714 0.291379 0.102503 0.016021
C86   C     C_3   0.338569 0.747988 0.329333 -0.864702
C87   C     C_3   0.455940 0.304253 0.632883 -0.409347
C88   C     C_3   0.539196 0.226133 0.651967 -0.872137
C89   C     C_3   0.250400 0.553769 0.266725 -0.428710
C90   C     C_3   0.205078 0.454167 0.260655 -0.881092
C91   C     C_3   0.339346 0.327082 0.725060 -0.410092
C92   C     C_3   0.234857 0.360379 0.699609 -0.882157
C93   C     C_R   0.237745 0.717494 0.117776 0.220877
C94   C     C_R   0.277780 0.804778 0.103065 -0.141974
C95   C     C_R   0.247486 0.894336 0.125235 -0.135893
C96   C     C_R   0.424754 0.370162 0.871707 -0.104654
C97   C     C_R   0.177050 0.897331 0.162129 -0.092781
C98   C     C_R   0.136395 0.810832 0.176726 -0.142219
C99   C     C_R   0.166379 0.721190 0.154570 -0.135275
C100  C     C_R   0.482981 0.187843 0.872779 0.212102
C101  C     C_R   0.575908 0.143379 0.893949 -0.143881
C102  C     C_R   0.627571 0.064503 0.870289 -0.123768
C103  C     C_R   0.587415 0.030227 0.825163 -0.105772
C104  C     C_R   0.494486 0.073501 0.804095 -0.141145
C105  C     C_R   0.441426 0.150786 0.828187 -0.102695
C106  C     C_3   0.141789 0.657501 0.022119 -0.425705
H1    H     H_    0.518461 0.606836 0.756357 0.157459
H2    H     H_    0.553087 0.303871 0.384161 0.107719
H3    H     H_    0.699037 0.189453 0.414165 0.129024
H4    H     H_    0.873641 0.207993 0.386600 0.128762
H5    H     H_    0.903137 0.344017 0.329640 0.138541
H6    H     H_    0.758584 0.461323 0.300432 0.126711
H7    H     H_    0.876500 0.710090 0.548710 0.258293
H8    H     H_    0.884707 0.620730 0.598684 0.256525
H9    H     H_    0.967794 0.720245 0.600578 0.251534
H10   H     H_    0.063203 0.564043 0.577548 0.212194
H11   H     H_    0.056142 0.653791 0.528648 0.207687
H12   H     H_    0.586998 0.419867 0.246092 0.164278
H13   H     H_    0.115278 0.384330 0.399690 0.260381
H14   H     H_    0.127897 0.293738 0.449141 0.263507
H15   H     H_    0.036368 0.281920 0.397809 0.237886
H16   H     H_    0.947001 0.344478 0.470656 0.211377
H17   H     H_    0.936469 0.435732 0.422382 0.216848
H18   H     H_    0.149556 0.763107 0.888102 0.122662
H19   H     H_    0.138093 0.928881 0.850388 0.131376
H20   H     H_    0.287082 0.986845 0.809603 0.119629
H21   H     H_    0.449401 0.878746 0.807748 0.126810
H22   H     H_    0.464234 0.716153 0.847551 0.108650
H23   H     H_    0.283247 0.690371 0.962056 0.146782
H24   H     H_    0.397062 0.103142 0.110760 0.115052
H25   H     H_    0.500158 0.964137 0.152597 0.144150
H26   H     H_    0.671022 0.989305 0.193413 0.127455
H27   H     H_    0.739334 0.153929 0.191964 0.126885
H28   H     H_    0.637325 0.293611 0.150101 0.110300
H29   H     H_    0.416784 0.767277 0.321001 0.271221
H30   H     H_    0.291266 0.743488 0.294212 0.273459
H31   H     H_    0.302540 0.807849 0.351933 0.244859
H32   H     H_    0.268104 0.631921 0.367566 0.205797
H33   H     H_    0.388024 0.665959 0.393624 0.213149
H34   H     H_    0.476840 0.224876 0.033423 0.147398
H35   H     H_    0.616302 0.254569 0.650264 0.270561
H36   H     H_    0.527986 0.205142 0.690647 0.271932
H37   H     H_    0.536712 0.159271 0.628565 0.239510
H38   H     H_    0.379817 0.273528 0.631308 0.212005
H39   H     H_    0.471259 0.318867 0.594215 0.211079
H40   H     H_    0.238063 0.412295 0.229486 0.278461
H41   H     H_    0.220259 0.410177 0.295116 0.268241
H42   H     H_    0.120557 0.465768 0.252851 0.242601
H43   H     H_    0.205117 0.595041 0.294243 0.209874
H44   H     H_    0.235762 0.596470 0.232371 0.230481
H45   H     H_    0.406317 0.736019 0.683557 0.160578
H46   H     H_    0.207991 0.434514 0.713138 0.281216
H47   H     H_    0.238806 0.363853 0.658943 0.256482
H48   H     H_    0.177712 0.307806 0.708340 0.250606
H49   H     H_    0.362621 0.249996 0.714934 0.210351
H50   H     H_    0.327030 0.325676 0.764923 0.205884
H51   H     H_    0.332859 0.803193 0.074708 0.115417
H52   H     H_    0.278749 0.961356 0.113882 0.120514
H53   H     H_    0.153787 0.966694 0.179308 0.125265
H54   H     H_    0.081513 0.813255 0.205141 0.124359
H55   H     H_    0.133407 0.654854 0.165656 0.106668
H56   H     H_    0.454355 0.897647 0.655616 0.132322
H57   H     H_    0.609118 0.171009 0.928265 0.115930
H58   H     H_    0.699452 0.030820 0.886610 0.126021
H59   H     H_    0.628086 0.969910 0.806597 0.122014
H60   H     H_    0.463302 0.046884 0.769167 0.115155
H61   H     H_    0.369115 0.183020 0.811760 0.096563
H62   H     H_    0.046142 0.542632 0.043314 0.261473
H63   H     H_    0.044799 0.646542 0.084725 0.255648
H64   H     H_    0.976342 0.657928 0.025606 0.245767
H65   H     H_    0.143768 0.738633 0.025195 0.202487
H66   H     H_    0.129526 0.639984 0.982448 0.221074
H67   H     H_    0.622629 0.911901 0.619856 0.134470
H68   H     H_    0.207495 0.194309 0.923056 0.261332
H69   H     H_    0.297073 0.115048 0.889883 0.255421
H70   H     H_    0.242657 0.069583 0.943437 0.246084
H71   H     H_    0.425836 0.113920 0.962223 0.202424
H72   H     H_    0.328954 0.176544 0.997403 0.219239
H73   H     H_    0.251754 0.940783 0.521801 0.263843
H74   H     H_    0.321622 0.923373 0.581351 0.261543
H75   H     H_    0.230111 0.028375 0.570739 0.247648
H76   H     H_    0.407429 0.078265 0.568221 0.207100
H77   H     H_    0.337813 0.095411 0.509225 0.214970
H78   H     H_    0.744191 0.764214 0.612852 0.137696
H79   H     H_    0.737484 0.979768 0.532446 0.258510
H80   H     H_    0.676437 0.864897 0.530832 0.264862
H81   H     H_    0.776048 0.884024 0.489673 0.248974
H82   H     H_    0.601516 0.903805 0.445338 0.204399
H83   H     H_    0.667386 0.013203 0.444702 0.201880
H84   H     H_    0.698283 0.601732 0.641104 0.140129
N1    N     N_R   0.425405 0.464934 0.797167 -0.338804
N2    N     N_R   0.409987 0.481677 0.198685 -0.330961
N3    N     N_1   0.234530 0.484780 0.492250 -0.103794
N4    N     N_1   0.765470 0.515220 0.507750 -0.101027
O1    O     O_R   0.402510 0.634760 0.497160 -0.615027
O2    O     O_2   0.442975 0.310687 0.208221 -0.560705
O3    O     O_2   0.382433 0.653087 0.188922 -0.576282
O4    O     O_2   0.537455 0.322629 0.807505 -0.557986
O5    O     O_R   0.597490 0.365240 0.502840 -0.599203
O6    O     O_R   0.572960 0.644530 0.502140 -0.599269
O7    O     O_R   0.427040 0.355470 0.497860 -0.611347
O8    O     O_R   0.414790 0.495100 0.568760 -0.611058
O9    O     O_R   0.585210 0.504900 0.431240 -0.595936
O10   O     O_R   0.585240 0.504870 0.573730 -0.609561
O11   O     O_R   0.414760 0.495130 0.426270 -0.614031
O12   O     O_2   0.317905 0.610452 0.786536 -0.567532
Zn1   Zn    Zn3+2 0.386190 0.493480 0.496680 0.949910
Zn2   Zn    Zn3+2 0.613810 0.506520 0.503320 0.969995

loop_
_geom_bond_atom_site_label_1
_geom_bond_atom_site_label_2
_ccdc_geom_bond_type
C55   C56   A    
C24   O9    A    
C101  C102  A    
N3    Zn1   S    
C29   C33   S    
C18   C21   A    
C73   C75   A    
C106  H65   S    
C24   O11   A    
C35   C36   S    
C4    H71   S    
C87   C88   S    
C25   H23   S    
C81   C82   A    
C47   C49   A    
C8    H82   S    
C59   H84   S    
C40   N1    A    
C100  C105  A    
C93   C94   A    
C26   H34   S    
C21   C93   S    
C6    H76   S    
C8    C29   S    
C97   H53   S    
C45   C87   S    
C84   C86   S    
C34   C35   D    
C9    H79   S    
C69   C70   S    
C102  H58   S    
C15   C25   A    
C38   C52   A    
C69   H17   S    
C2    C41   A    
C34   C37   S    
C56   H56   S    
C11   C24   S    
C19   O7    A    
C97   C98   A    
C56   C57   A    
C58   H78   S    
C25   C74   A    
C5    H68   S    
C61   H2    S    
C65   H5    S    
C83   H28   S    
C30   C96   A    
C103  C104  A    
C86   H31   S    
C99   H55   S    
C44   C53   A    
O10   Zn2   S    
C84   H33   S    
C70   H14   S    
C8    C9    S    
C49   C51   A    
C92   H46   S    
C1    C28   S    
C62   C64   A    
C92   H47   S    
C87   H38   S    
C87   H39   S    
C93   C99   A    
C88   H37   S    
C68   H7    S    
C89   H43   S    
C6    C31   S    
C60   C66   A    
O6    Zn2   S    
C80   H25   S    
C13   C14   A    
C63   C85   A    
C17   C30   A    
C5    H69   S    
C11   C48   A    
C102  C103  A    
C22   C96   A    
C40   C96   A    
C78   C83   A    
C88   H36   S    
C104  C105  A    
C44   C46   A    
C3    H62   S    
C48   C60   S    
C54   C59   A    
O11   Zn1   S    
C3    C106  S    
C50   C53   A    
C22   C100  S    
C7    H75   S    
C23   O8    A    
C67   C68   S    
C12   C16   A    
C28   C32   T    
C19   O5    A    
C49   H1    S    
C9    H80   S    
C4    H72   S    
C91   C92   S    
C78   C79   A    
C80   C81   A    
C81   H26   S    
C58   C59   A    
C79   H24   S    
N4    Zn2   S    
C82   C83   A    
C43   C91   S    
C105  H61   S    
C60   C61   A    
C37   N3    T    
C67   H10   S    
C18   C106  S    
C91   H49   S    
C90   H41   S    
C67   H11   S    
C64   H4    S    
C31   C32   S    
C12   C15   A    
C35   C67   S    
C70   H13   S    
C2    C21   A    
O7    Zn1   S    
C7    H73   S    
C94   C95   A    
C14   C26   A    
C43   C45   A    
C34   C69   S    
C77   H22   S    
C47   C54   S    
C57   H67   S    
C78   C85   S    
C86   H30   S    
C89   H44   S    
C90   H42   S    
C8    H83   S    
C20   C22   A    
C103  H59   S    
C94   H51   S    
O8    Zn1   S    
C5    H70   S    
C46   C84   S    
C1    O6    A    
C41   C63   A    
C88   H35   S    
C71   C77   A    
C51   N1    S    
O9    Zn2   S    
C15   C17   A    
C30   C52   A    
C54   C55   A    
C75   C76   A    
O5    Zn2   S    
C38   O12   S    
C13   C20   A    
C1    O1    A    
C50   H12   S    
C106  H66   S    
C39   N2    A    
C42   O3    S    
C3    H63   S    
C98   H54   S    
C72   C73   A    
C9    H81   S    
C71   C74   S    
C95   C97   A    
C3    H64   S    
C55   H45   S    
C6    C7    S    
C10   C23   S    
C39   C63   A    
C39   O2    S    
C6    H77   S    
C52   C74   A    
C84   H32   S    
C13   C17   A    
C23   O10   A    
C75   H20   S    
C64   C65   A    
C82   H27   S    
C71   C72   A    
C29   C31   D    
C95   H52   S    
C76   C77   A    
C70   H15   S    
C43   C51   A    
C57   C58   A    
C62   H3    S    
C40   O4    S    
C69   H16   S    
C2    C42   A    
C26   C85   A    
C73   H19   S    
C101  H57   S    
C48   C50   A    
C100  C101  A    
C7    H74   S    
C14   C16   A    
C65   C66   A    
C61   C62   A    
C53   N2    S    
C36   N4    T    
C27   C33   T    
C68   H9    S    
C104  H60   S    
C79   C80   A    
C4    C20   S    
C42   N2    A    
C86   H29   S    
C4    C5    S    
C91   H50   S    
O1    Zn1   S    
C90   H40   S    
C98   C99   A    
C10   C45   A    
C12   C18   A    
C10   C47   A    
C38   N1    A    
C76   H21   S    
C11   C46   A    
C92   H48   S    
C66   H6    S    
C89   C90   S    
C16   C41   A    
C72   H18   S    
C44   C89   S    
C68   H8    S    
C19   C27   S    
