data_mof_unit_155.cif
_audit_creation_date              2012-12-10T18:02:11-0500
_audit_creation_method            fapswitch 2.2
_symmetry_space_group_name_H-M    P1
_symmetry_Int_Tables_number       1
_space_group_crystal_system       triclinic
_cell_length_a                    10.832066
_cell_length_b                    9.509118
_cell_length_c                    23.496882
_cell_angle_alpha                 90.029336
_cell_angle_beta                  89.968352
_cell_angle_gamma                 89.920313
_cell_volume                      2420.255561

loop_
_atom_site_label
_atom_site_type_symbol
_atom_type_description
_atom_site_fract_x
_atom_site_fract_y
_atom_site_fract_z
_atom_type_partial_charge
C1    C     C_R   0.262022 0.500063 0.499973 0.783058
C2    C     C_R   0.737964 0.499946 0.500040 0.868949
C3    C     C_R   0.574104 0.593581 0.237474 -0.149282
C4    C     C_R   0.566386 0.591846 0.763298 -0.143022
C5    C     C_R   0.581130 0.594941 0.297056 -0.055222
C6    C     C_R   0.576463 0.593356 0.703807 -0.043617
C7    C     C_R   0.506845 0.499537 0.328516 -0.110913
C8    C     C_R   0.502541 0.499520 0.671488 -0.113183
C9    C     C_R   0.431363 0.403181 0.299567 -0.225558
C10   C     C_R   0.423766 0.404904 0.699493 -0.225235
C11   C     C_R   0.426707 0.402461 0.240373 -0.086539
C12   C     C_R   0.416209 0.403736 0.758619 -0.091265
C13   C     C_R   0.497788 0.497737 0.209237 0.338005
C14   C     C_R   0.487512 0.496929 0.790638 0.335848
C15   C     C_R   0.063995 0.372264 0.500000 -0.176988
C16   C     C_R   0.935929 0.627806 0.500027 -0.113535
C17   C     C_R   0.936291 0.372200 0.500058 -0.182989
C18   C     C_R   0.063641 0.627874 0.499969 -0.183391
C19   C     C_R   0.871768 0.499960 0.500054 0.000927
C20   C     C_R   0.128179 0.500099 0.499969 -0.018691
C21   C     C_R   0.421728 0.074527 0.465416 -0.013597
C22   C     C_R   0.578387 0.925497 0.534520 -0.011000
C23   C     C_R   0.578359 0.074376 0.534538 -0.019052
C24   C     C_R   0.421723 0.925624 0.465421 -0.011249
C25   C     C_R   0.503077 0.499986 0.391023 0.842473
C26   C     C_R   0.502193 0.500015 0.608982 0.847238
C27   C     C_R   0.585668 0.438920 0.879537 0.529343
C28   C     C_R   0.393420 0.543412 0.120401 0.531173
C29   C     C_R   0.383596 0.539156 0.880309 0.525077
C30   C     C_R   0.595573 0.443432 0.119466 0.523243
C31   C     C_R   0.379050 0.533213 0.940529 -0.063198
C32   C     C_R   0.599051 0.446528 0.059263 -0.061875
C33   C     C_R   0.486571 0.488129 0.969846 -0.025657
C34   C     C_R   0.491285 0.491068 0.030011 -0.025676
C35   C     C_R   0.589668 0.439698 0.939049 -0.022877
C36   C     C_R   0.388322 0.539857 0.060851 -0.023763
C37   C     C_R   0.273638 0.574687 0.972632 -0.005036
C38   C     C_R   0.704168 0.404052 0.027173 -0.005959
C39   C     C_R   0.281546 0.581941 0.031954 -0.221143
C40   C     C_R   0.696165 0.396677 0.967906 -0.221020
Cu1   Cu    Cu3+1 0.500000 0.640660 0.500000 0.992376
Cu2   Cu    Cu3+1 0.500000 0.359340 0.500000 0.960383
H1    H     H_    0.201525 0.616780 0.055725 0.175238
H2    H     H_    0.776261 0.361993 0.944125 0.176162
H3    H     H_    0.630363 0.664679 0.212473 0.169478
H4    H     H_    0.622899 0.661268 0.788947 0.165853
H5    H     H_    0.374272 0.329620 0.322932 0.153201
H6    H     H_    0.366719 0.332705 0.675422 0.161895
H7    H     H_    0.368029 0.327662 0.218603 0.137676
H8    H     H_    0.355711 0.329558 0.779657 0.142263
H9    H     H_    0.112169 0.272355 0.499984 0.150891
H10   H     H_    0.887728 0.727702 0.500041 0.155982
H11   H     H_    0.888386 0.272275 0.500098 0.151387
H12   H     H_    0.111546 0.727797 0.499928 0.149780
H13   H     H_    0.359074 0.130778 0.437713 0.117962
H14   H     H_    0.641217 0.869352 0.562130 0.150090
H15   H     H_    0.641099 0.130484 0.562202 0.128732
H16   H     H_    0.359058 0.869496 0.437729 0.121591
N1    N     N_R   0.484909 0.490532 0.851601 -0.459158
N2    N     N_R   0.495446 0.494892 0.148240 -0.459474
N3    N     N_R   0.500000 0.852070 0.500000 -0.162110
N4    N     N_R   0.500000 0.147930 0.500000 -0.161996
O1    O     O_R   0.319640 0.618740 0.500000 -0.594098
O2    O     O_R   0.680360 0.381260 0.500000 -0.600638
O3    O     O_R   0.680360 0.618740 0.500000 -0.554534
O4    O     O_R   0.319640 0.381260 0.500000 -0.595607
O5    O     O_R   0.499960 0.618810 0.417880 -0.564773
O6    O     O_R   0.500040 0.381190 0.582120 -0.583737
O7    O     O_R   0.500040 0.618810 0.582120 -0.565270
O8    O     O_R   0.499960 0.381190 0.417880 -0.581175
O9    O     O_2   0.682276 0.388079 0.849564 -0.562937
O10   O     O_2   0.297106 0.594674 0.150435 -0.565067
O11   O     O_2   0.290398 0.597503 0.850494 -0.526178
O12   O     O_2   0.689006 0.385724 0.149344 -0.523831
C41   C     C_R   0.150422 0.600023 0.947119 0.179750
C42   C     C_R   0.089436 0.728972 0.955408 -0.144163
C43   C     C_R   0.971363 0.750356 0.932912 -0.139471
C44   C     C_R   0.913518 0.643450 0.902039 -0.080495
C45   C     C_R   0.973294 0.514626 0.894005 -0.126400
C46   C     C_R   0.090380 0.491982 0.917179 -0.084693
H17   H     H_    0.133368 0.812693 0.979182 0.125938
H18   H     H_    0.924804 0.849898 0.939342 0.134013
H19   H     H_    0.822315 0.660254 0.884473 0.147616
H20   H     H_    0.928780 0.431875 0.870036 0.174454
H21   H     H_    0.134814 0.390842 0.911429 0.121223
C47   C     C_R   0.827485 0.378602 0.052558 0.178245
C48   C     C_R   0.888345 0.487012 0.081924 -0.081750
C49   C     C_R   0.005357 0.464044 0.105112 -0.125167
C50   C     C_R   0.064396 0.334624 0.097512 -0.088286
C51   C     C_R   0.005800 0.227377 0.067136 -0.138802
C52   C     C_R   0.887695 0.249023 0.044721 -0.140691
H22   H     H_    0.844500 0.588608 0.087312 0.122780
H23   H     H_    0.050380 0.546990 0.128766 0.173584
H24   H     H_    0.155602 0.317617 0.115039 0.143805
H25   H     H_    0.051780 0.127357 0.061050 0.132671
H26   H     H_    0.843133 0.165025 0.021360 0.126338
C53   C     C_2   0.671206 0.691954 0.324066 0.853763
O13   O     O_2   0.724600 0.658411 0.367852 -0.602439
O14   O     O_R   0.698706 0.820281 0.297947 -0.759101
H27   H     H_    0.762211 0.876709 0.319890 0.338685
C54   C     C_2   0.669612 0.688102 0.677769 0.834398
O15   O     O_2   0.725148 0.652679 0.634753 -0.620508
O16   O     O_R   0.697368 0.816364 0.703913 -0.762108
H28   H     H_    0.762822 0.871296 0.682563 0.331652

loop_
_geom_bond_atom_site_label_1
_geom_bond_atom_site_label_2
_ccdc_geom_bond_type
C38   C40   A    
C48   C49   A    
C8    C10   A    
C54   O15   D    
Cu2   O2    S    
C8    C26   S    
Cu1   Cu2   S    
C25   O5    A    
Cu1   N3    S    
C2    O3    A    
C53   O13   D    
C21   H13   S    
C51   H25   S    
Cu1   O5    S    
C13   N2    S    
C4    H4    S    
C43   C44   A    
C14   N1    S    
C24   N3    A    
C38   C47   S    
C6    C8    A    
C47   C52   A    
C45   H20   S    
C30   O12   S    
C29   O11   S    
Cu2   O8    S    
C15   C17   A    
C6    C54   S    
C50   H24   S    
C33   C35   A    
C52   H26   S    
C44   H19   S    
C23   N4    A    
C29   N1    A    
C30   N2    A    
C31   C33   A    
C32   C38   A    
C41   C46   A    
Cu2   N4    S    
C18   C20   A    
C3    C13   A    
C37   C41   S    
C54   O16   S    
C48   H22   S    
Cu2   O6    S    
C28   O10   S    
C1    O1    A    
C53   O14   S    
C2    O2    A    
C1    O4    A    
C28   N2    A    
C39   H1    S    
C15   C20   A    
C37   C39   A    
C42   C43   A    
C4    C6    A    
C5    C7    A    
C47   C48   A    
C22   H14   S    
C27   C35   A    
C3    H3    S    
C31   C37   A    
C32   C34   A    
C41   C42   A    
C46   H21   S    
C11   H7    S    
O14   H27   S    
C33   C34   A    
C9    C11   A    
C21   N4    A    
C10   C12   A    
C24   H16   S    
C12   C14   A    
C9    H5    S    
C15   H9    S    
C10   H6    S    
Cu1   O1    S    
C17   H11   S    
C27   O9    S    
Cu1   O7    S    
C23   H15   S    
C49   H23   S    
C1    C20   S    
C2    C19   S    
C44   C45   A    
C36   C39   A    
C16   H10   S    
C5    C53   S    
C3    C5    A    
C42   H17   S    
C12   H8    S    
C7    C25   S    
C26   O6    A    
C35   C40   A    
C29   C31   A    
C4    C14   A    
C27   N1    A    
C22   N3    A    
C30   C32   A    
C11   C13   A    
C51   C52   A    
C43   H18   S    
C16   C19   A    
C17   C19   A    
C34   C36   A    
Cu1   O3    S    
C18   H12   S    
C45   C46   A    
C7    C9    A    
C40   H2    S    
C49   C50   A    
C28   C36   A    
C16   C18   A    
C21   C24   A    
O16   H28   S    
Cu2   O4    S    
C26   O7    A    
C22   C23   A    
C25   O8    A    
C50   C51   A    
