data_mof_unit_1938.cif
_audit_creation_date              2012-12-11T15:23:49-0500
_audit_creation_method            fapswitch 2.2
_symmetry_space_group_name_H-M    P1
_symmetry_Int_Tables_number       1
_space_group_crystal_system       triclinic
_cell_length_a                    17.380352
_cell_length_b                    24.59699
_cell_length_c                    14.913566
_cell_angle_alpha                 89.874013
_cell_angle_beta                  125.593567
_cell_angle_gamma                 89.774152
_cell_volume                      5184.31405302

loop_
_atom_site_label
_atom_site_type_symbol
_atom_type_description
_atom_site_fract_x
_atom_site_fract_y
_atom_site_fract_z
_atom_type_partial_charge
C1    C     C_R   0.313115 0.373558 0.906960 -0.166119
C2    C     C_R   0.550606 0.499718 0.725227 0.025171
C3    C     C_R   0.067152 0.000243 0.368519 0.023444
C4    C     C_R   0.050606 0.999718 0.725227 0.025171
C5    C     C_R   0.204619 0.499258 0.628473 0.166224
C6    C     C_R   0.826565 0.496189 0.305521 0.237654
C7    C     C_R   0.704619 0.999258 0.628473 0.166224
C8    C     C_R   0.326565 0.996189 0.305521 0.237654
C9    C     C_2   0.981779 0.463663 0.359398 0.464976
C10   C     C_2   0.084309 0.459297 0.444994 0.435392
C11   C     C_2   0.481779 0.963663 0.359398 0.464976
C12   C     C_R   0.649780 0.348707 0.091573 -0.147374
C13   C     C_2   0.584309 0.959297 0.444994 0.435392
C14   C     C_2   0.928421 0.493347 0.380394 -0.439713
C15   C     C_2   0.128815 0.502295 0.510543 -0.346938
C16   C     C_2   0.428421 0.993347 0.380394 -0.439713
C17   C     C_2   0.628815 0.002295 0.510543 -0.346938
C18   C     C_R   0.258965 0.731759 0.948074 -0.007151
C19   C     C_R   0.654702 0.774787 0.021712 -0.024564
C20   C     C_R   0.758961 0.231759 0.948070 -0.007151
C21   C     C_R   0.154700 0.274787 0.021709 -0.024563
C22   C     C_R   0.709445 0.274976 0.948474 -0.163479
C23   C     C_R   0.813114 0.873558 0.906960 -0.166119
C24   C     C_R   0.202393 0.319277 0.020541 -0.171007
C25   C     C_R   0.209449 0.774976 0.948479 -0.163481
C26   C     C_R   0.702394 0.819277 0.020543 -0.171005
C27   C     C_R   0.663130 0.269942 0.998714 0.113773
C28   C     C_R   0.265735 0.311775 0.993197 0.110461
C29   C     C_R   0.163131 0.769943 0.998714 0.113773
C30   C     C_R   0.765735 0.811775 0.993197 0.110461
C31   C     C_R   0.664160 0.221670 0.049152 -0.085212
C32   C     C_R   0.284077 0.260783 0.967444 -0.065521
C33   C     C_R   0.164157 0.721669 0.049149 -0.085210
C34   C     C_R   0.149780 0.848707 0.091574 -0.147375
C35   C     C_R   0.784075 0.760783 0.967441 -0.065522
C36   C     C_R   0.212704 0.676841 0.047195 0.411492
C37   C     C_R   0.736447 0.716201 0.968102 0.406009
C38   C     C_R   0.712707 0.176841 0.047198 0.411492
C39   C     C_R   0.236449 0.216200 0.968105 0.406008
C40   C     C_R   0.403125 0.625757 0.091309 -0.080843
C41   C     C_R   0.561417 0.648510 0.907098 -0.072990
C42   C     C_R   0.903125 0.125757 0.091309 -0.080842
C43   C     C_R   0.061417 0.148510 0.907098 -0.072992
C44   C     C_R   0.259134 0.682426 0.995903 -0.064808
C45   C     C_R   0.314824 0.639082 0.998482 0.181926
C46   C     C_R   0.672270 0.723902 0.995188 -0.050654
C47   C     C_R   0.759134 0.182425 0.995903 -0.064807
C48   C     C_R   0.172270 0.223902 0.995188 -0.050654
C49   C     C_R   0.605219 0.549260 0.626943 -0.105081
C50   C     C_R   0.607924 0.549434 0.535922 -0.145967
C51   C     C_R   0.105219 0.049260 0.626943 -0.105082
C52   C     C_R   0.107924 0.049434 0.535922 -0.145967
C53   C     C_R   0.600313 0.500281 0.483974 0.117158
C54   C     C_R   0.593815 0.499962 0.665325 0.136081
C55   C     C_R   0.100313 0.000280 0.483974 0.117158
C56   C     C_R   0.626095 0.677668 0.997646 0.131513
C57   C     C_R   0.093815 0.999962 0.665325 0.136081
C58   C     C_R   0.609266 0.451000 0.536941 -0.136863
C59   C     C_R   0.606563 0.450872 0.627874 -0.137995
C60   C     C_R   0.109266 0.951000 0.536941 -0.136863
C61   C     C_R   0.106563 0.950872 0.627874 -0.137995
C62   C     C_R   0.553168 0.454972 0.306147 -0.049170
C63   C     C_R   0.520592 0.454081 0.751954 -0.064382
C64   C     C_R   0.053168 0.954972 0.306147 -0.049171
C65   C     C_R   0.020592 0.954081 0.751954 -0.064383
C66   C     C_R   0.249332 0.544276 0.693046 0.017024
C67   C     C_R   0.814824 0.139082 0.998481 0.181924
C68   C     C_R   0.770931 0.542755 0.272289 0.036687
C69   C     C_R   0.749332 0.044276 0.693046 0.017023
C70   C     C_R   0.270931 0.042755 0.272289 0.036687
C71   C     C_R   0.548019 0.545155 0.302763 -0.094891
C72   C     C_R   0.519605 0.545129 0.751160 -0.069863
C73   C     C_R   0.048020 0.045155 0.302763 -0.094889
C74   C     C_R   0.019605 0.045128 0.751160 -0.069863
C75   C     C_R   0.248436 0.454104 0.695454 -0.102615
C76   C     C_R   0.767577 0.451896 0.264508 -0.091210
C77   C     C_R   0.748436 0.954104 0.695454 -0.102616
C78   C     C_R   0.126095 0.177668 0.997646 0.131513
C79   C     C_R   0.267577 0.951897 0.264508 -0.091210
C80   C     C_R   0.309675 0.623286 0.906592 -0.134888
C81   C     C_R   0.652257 0.649596 0.090542 -0.083920
C82   C     C_R   0.809675 0.123286 0.906592 -0.134889
C83   C     C_R   0.152256 0.149596 0.090542 -0.083918
C84   C     C_R   0.406214 0.369708 0.091444 0.475226
C85   C     C_R   0.555550 0.347977 0.908539 0.400455
C86   C     C_R   0.906214 0.869708 0.091444 0.475226
C87   C     C_R   0.055551 0.847977 0.908539 0.400456
C88   C     C_R   0.318337 0.356623 0.998017 -0.051802
C89   C     C_R   0.567152 0.500243 0.368519 0.023444
C90   C     C_R   0.618721 0.317921 0.000341 -0.015170
C91   C     C_R   0.818337 0.856623 0.998017 -0.051802
C92   C     C_R   0.118721 0.817921 0.000341 -0.015170
Cl1   Cl    Cl    0.215401 0.614564 0.108354 -0.642019
Cl2   Cl    Cl    0.141641 0.397050 0.459961 -0.568775
Cl3   Cl    Cl    0.431887 0.927400 0.235005 -0.577669
Cl4   Cl    Cl    0.641641 0.897050 0.459961 -0.568775
Cl5   Cl    Cl    0.760512 0.650845 0.939375 -0.669588
Cl6   Cl    Cl    0.715408 0.114565 0.108362 -0.642021
Cl7   Cl    Cl    0.260516 0.150845 0.939380 -0.669585
Cl8   Cl    Cl    0.459821 0.337851 0.220414 -0.692002
Cl9   Cl    Cl    0.470901 0.320631 0.777920 -0.656598
Cl10  Cl    Cl    0.959821 0.837851 0.220414 -0.692002
Cl11  Cl    Cl    0.970902 0.820631 0.777920 -0.656598
Cl12  Cl    Cl    0.931887 0.427400 0.235005 -0.577668
H1    H     H_    0.257942 0.365083 0.821474 0.143977
H2    H     H_    0.190902 0.359223 0.041533 0.157932
H3    H     H_    0.209716 0.813334 0.912484 0.138544
H4    H     H_    0.690905 0.859222 0.041538 0.157932
H5    H     H_    0.602411 0.587996 0.658995 0.137396
H6    H     H_    0.606762 0.588269 0.501131 0.123339
H7    H     H_    0.102411 0.087996 0.658995 0.137394
H8    H     H_    0.106762 0.088269 0.501131 0.123339
H9    H     H_    0.608821 0.412174 0.502942 0.137207
H10   H     H_    0.604662 0.412019 0.660462 0.126106
H11   H     H_    0.108821 0.912174 0.502942 0.137207
H12   H     H_    0.694043 0.335388 0.176651 0.136094
H13   H     H_    0.104662 0.912019 0.660463 0.126107
H14   H     H_    0.432209 0.635396 0.176067 0.123149
H15   H     H_    0.520089 0.661966 0.822075 0.090602
H16   H     H_    0.932209 0.135396 0.176067 0.123151
H17   H     H_    0.020089 0.161966 0.822075 0.090601
H18   H     H_    0.580112 0.414868 0.338627 0.150697
H19   H     H_    0.532655 0.412250 0.742730 0.146618
H20   H     H_    0.080112 0.914868 0.338627 0.150697
H21   H     H_    0.032655 0.912250 0.742730 0.146618
H22   H     H_    0.564441 0.586971 0.328940 0.090052
H23   H     H_    0.757942 0.865083 0.821474 0.143977
H24   H     H_    0.528725 0.587163 0.739416 0.108987
H25   H     H_    0.064441 0.086971 0.328940 0.090051
H26   H     H_    0.028725 0.087163 0.739416 0.108985
H27   H     H_    0.238978 0.412214 0.670647 0.183126
H28   H     H_    0.787736 0.409498 0.280792 0.138891
H29   H     H_    0.738978 0.912214 0.670647 0.183126
H30   H     H_    0.287737 0.909498 0.280792 0.138891
H31   H     H_    0.252111 0.630710 0.821623 0.110926
H32   H     H_    0.691458 0.665856 0.172708 0.095170
H33   H     H_    0.752111 0.130709 0.821623 0.110926
H34   H     H_    0.194043 0.835388 0.176651 0.136094
H35   H     H_    0.191458 0.165856 0.172708 0.095170
H36   H     H_    0.266167 0.750822 0.821045 0.119420
H37   H     H_    0.361201 0.769956 0.946519 0.129177
H38   H     H_    0.624784 0.797639 0.128320 0.161752
H39   H     H_    0.536555 0.808661 0.994003 0.123276
H40   H     H_    0.766158 0.250820 0.821036 0.119420
H41   H     H_    0.861194 0.269956 0.946507 0.129176
H42   H     H_    0.124778 0.297640 0.128314 0.161752
H43   H     H_    0.036551 0.308661 0.993994 0.123276
H44   H     H_    0.664820 0.208454 0.183508 0.165576
H45   H     H_    0.959832 0.515925 0.456511 0.139968
H46   H     H_    0.565525 0.187789 0.062784 0.180650
H47   H     H_    0.320296 0.238134 0.865748 0.178308
H48   H     H_    0.406021 0.228100 0.002155 0.177049
H49   H     H_    0.164812 0.708452 0.183500 0.165577
H50   H     H_    0.065519 0.687788 0.062773 0.180650
H51   H     H_    0.820291 0.738135 0.865742 0.178308
H52   H     H_    0.906018 0.728100 0.002149 0.177048
H53   H     H_    0.308284 0.617686 0.706746 0.105207
H54   H     H_    0.189258 0.617849 0.635043 0.105483
H55   H     H_    0.747872 0.613803 0.321374 0.102999
H56   H     H_    0.095090 0.542045 0.482466 0.134570
H57   H     H_    0.825698 0.616676 0.286428 0.139742
H58   H     H_    0.808284 0.117686 0.706746 0.105207
H59   H     H_    0.689258 0.117849 0.635042 0.105483
H60   H     H_    0.247872 0.113803 0.321374 0.102999
H61   H     H_    0.325697 0.116676 0.286428 0.139742
H62   H     H_    0.459832 0.015925 0.456510 0.139968
H63   H     H_    0.595090 0.042045 0.482466 0.134570
H64   H     H_    0.709710 0.313333 0.912476 0.138543
N1    N     N_R   0.395440 0.396300 0.944370 -0.058668
N2    N     N_R   0.474910 0.470990 0.794360 -0.035941
N3    N     N_R   0.025090 0.970990 0.205640 -0.050838
N4    N     N_R   0.974910 0.970990 0.794360 -0.035941
N5    N     N_R   0.320240 0.527820 0.794510 -0.064381
N6    N     N_R   0.679760 0.527820 0.205490 -0.069582
N7    N     N_R   0.820240 0.027820 0.794510 -0.064381
N8    N     N_R   0.179760 0.027820 0.205490 -0.069582
N9    N     N_R   0.524580 0.527810 0.205160 -0.047352
N10   N     N_R   0.475420 0.527810 0.794840 -0.053933
N11   N     N_R   0.024580 0.027810 0.205160 -0.047352
N12   N     N_R   0.604560 0.396300 0.055630 -0.064295
N13   N     N_R   0.975420 0.027810 0.794840 -0.053933
N14   N     N_R   0.320750 0.470990 0.794990 -0.059575
N15   N     N_R   0.679250 0.470990 0.205010 -0.068636
N16   N     N_R   0.820750 0.970990 0.794990 -0.059575
N17   N     N_R   0.179250 0.970990 0.205010 -0.068635
N18   N     N_R   0.393580 0.602500 0.942610 -0.059221
N19   N     N_R   0.606420 0.602500 0.057390 -0.045813
N20   N     N_R   0.893580 0.102500 0.942610 -0.059221
N21   N     N_R   0.106420 0.102500 0.057390 -0.045813
N22   N     N_R   0.451750 0.396300 0.057540 -0.091132
N23   N     N_R   0.895440 0.896300 0.944370 -0.058668
N24   N     N_R   0.548250 0.396300 0.942460 -0.084230
N25   N     N_R   0.951750 0.896300 0.057540 -0.091132
N26   N     N_R   0.048250 0.896300 0.942460 -0.084230
N27   N     N_3   0.312591 0.738679 0.903484 -0.211857
N28   N     N_3   0.588806 0.780890 0.049411 -0.208659
N29   N     N_3   0.812585 0.238678 0.903476 -0.211857
N30   N     N_3   0.088802 0.280890 0.049405 -0.208659
N31   N     N_3   0.615617 0.218785 0.100507 -0.195782
N32   N     N_3   0.353199 0.254886 0.944284 -0.183991
N33   N     N_3   0.115611 0.718784 0.100500 -0.195781
N34   N     N_R   0.104560 0.896300 0.055630 -0.064295
N35   N     N_3   0.853196 0.754887 0.944279 -0.183991
N36   N     N_3   0.247085 0.596346 0.648449 -0.201620
N37   N     N_3   0.803600 0.593892 0.326665 -0.212099
N38   N     N_3   0.747085 0.096346 0.648449 -0.201619
N39   N     N_3   0.303600 0.093892 0.326665 -0.212100
N40   N     N_R   0.449890 0.602500 0.055780 -0.060067
N41   N     N_R   0.550110 0.602500 0.944220 -0.046184
N42   N     N_R   0.949890 0.102500 0.055780 -0.060068
N43   N     N_R   0.050110 0.102500 0.944220 -0.046184
N44   N     N_R   0.525090 0.470990 0.205640 -0.050838
Ni1   Ni    Ni4+2 0.435420 0.434250 0.870220 0.290063
Ni2   Ni    Ni4+2 0.564580 0.434250 0.129780 0.241748
Ni3   Ni    Ni4+2 0.935420 0.934250 0.870220 0.290063
Ni4   Ni    Ni4+2 0.064580 0.934250 0.129780 0.241748
Ni5   Ni    Ni4+2 0.563400 0.564580 0.128670 0.211645
Ni6   Ni    Ni4+2 0.436600 0.564580 0.871330 0.214589
Ni7   Ni    Ni4+2 0.063400 0.064580 0.128670 0.211646
Ni8   Ni    Ni4+2 0.936600 0.064580 0.871330 0.214589

loop_
_geom_bond_atom_site_label_1
_geom_bond_atom_site_label_2
_ccdc_geom_bond_type
C40   H14   S    
C40   N40   A    
H42   N30   S    
H54   N36   S    
N7    Ni8   S    
H46   N31   S    
C52   H8    S    
C72   N10   A    
C21   N30   S    
C38   Cl6   S    
H57   N37   S    
C77   N16   A    
C31   N31   S    
C19   C46   A    
C56   C81   A    
C74   N13   A    
C3    C64   A    
C2    C63   A    
C43   C78   A    
N43   Ni8   S    
N18   Ni6   S    
C69   N38   S    
C80   H31   S    
C77   H29   S    
C30   C35   A    
C72   H24   S    
N41   Ni6   S    
N9    N44   A    
C12   C90   A    
C35   C37   A    
C34   N34   A    
C82   H33   S    
C86   C91   A    
C59   H10   S    
C86   N25   A    
C4    C65   A    
H51   N35   S    
C10   Cl2   S    
C49   C54   A    
N26   N34   A    
C62   C89   A    
C29   C33   A    
C50   H6    S    
C33   C36   A    
N21   N43   A    
H48   N32   S    
C27   C90   S    
H37   N27   S    
C32   C39   A    
C48   C78   S    
C19   C26   A    
N23   Ni3   S    
C3    C55   S    
C78   C83   A    
H40   N29   S    
N19   N41   A    
C16   H62   S    
C7    C17   S    
N8    Ni7   S    
C4    C57   S    
C28   C88   S    
C58   H9    S    
C71   H22   S    
C84   N22   A    
C51   C57   A    
C76   N15   A    
C43   N43   A    
C9    C10   S    
C43   H17   S    
C4    C74   A    
C42   N42   A    
C52   C55   A    
H38   N28   S    
C37   Cl5   S    
C7    C77   A    
C21   C48   A    
C66   N36   S    
N15   Ni2   S    
C6    C68   A    
C19   N28   S    
C8    C16   S    
C87   C92   A    
H58   N38   S    
N3    N11   A    
C18   C25   A    
N20   N42   A    
N1    N22   A    
C2    C72   A    
N4    N13   A    
C23   N23   A    
C83   N21   A    
H55   N37   S    
C80   N18   A    
H49   N33   S    
C54   C59   A    
N20   Ni8   S    
H52   N35   S    
C25   C29   A    
C40   C45   A    
C73   H25   S    
C50   C53   A    
C65   N4    A    
C61   H13   S    
C51   C52   A    
C84   Cl8   S    
C24   C28   A    
C28   C32   A    
N8    N17   A    
N12   N24   A    
C26   H4    S    
N26   Ni3   S    
N2    Ni1   S    
C68   N6    A    
C5    C66   A    
N16   Ni3   S    
C13   Cl4   S    
C70   N39   S    
C64   H20   S    
C27   C31   A    
C34   H34   S    
N42   Ni7   S    
C82   N20   A    
C60   C61   A    
C85   N24   A    
C65   H21   S    
C5    C75   A    
C9    C14   D    
N23   N25   A    
C41   C56   A    
H41   N29   S    
C18   C44   A    
C6    C14   S    
N22   Ni2   S    
C11   C16   D    
C39   Cl7   S    
C81   H32   S    
C71   C89   A    
N6    Ni5   S    
C85   C90   A    
N13   Ni8   S    
C47   C67   S    
N14   Ni1   S    
C41   H15   S    
C6    C76   A    
N5    Ni6   S    
H61   N39   S    
C38   C47   A    
C87   Cl11  S    
N3    Ni4   S    
C12   N12   A    
N44   Ni2   S    
N5    N14   A    
C26   C30   A    
C22   C27   A    
C74   H26   S    
C2    C54   S    
C83   H35   S    
C23   C91   A    
C36   C44   A    
C24   H2    S    
C46   C56   S    
N4    Ni3   S    
N9    Ni5   S    
N24   Ni1   S    
C62   H18   S    
H50   N33   S    
C85   Cl9   S    
C44   C45   S    
C25   H3    S    
N25   Ni4   S    
C23   H23   S    
N19   Ni5   S    
C11   Cl3   S    
N40   Ni5   S    
C79   H30   S    
C51   H7    S    
C79   N17   A    
N11   Ni7   S    
C18   N27   S    
C36   Cl1   S    
H47   N32   S    
N10   Ni6   S    
C84   C88   A    
C87   N26   A    
C20   C22   A    
C30   C91   S    
C63   N2    A    
H60   N39   S    
N6    N15   A    
C7    C69   A    
C63   H19   S    
C53   C58   A    
C31   C38   A    
H44   N31   S    
C57   C61   A    
C13   C17   D    
C12   H12   S    
N1    Ni1   S    
H59   N38   S    
C8    C70   A    
N17   Ni4   S    
N18   N40   A    
C10   C15   D    
C71   N9    A    
C64   N3    A    
N12   Ni2   S    
C58   C59   A    
C49   H5    S    
C22   H64   S    
C41   N41   A    
C32   N32   S    
C8    C79   A    
C76   H28   S    
C53   C89   S    
C11   C13   S    
C66   N5    A    
C35   N35   S    
C42   C67   A    
C1    C88   A    
C9    Cl12  S    
H39   N28   S    
C14   H45   S    
C33   N33   S    
C45   C80   A    
H53   N36   S    
C3    C73   A    
H36   N27   S    
C34   C92   A    
C20   N29   S    
C5    C15   S    
C20   C47   A    
H43   N30   S    
C73   N11   A    
C15   H56   S    
C17   H63   S    
C75   H27   S    
C67   C82   A    
C49   C50   A    
C21   C24   A    
C1    N1    A    
C68   N37   S    
C42   H16   S    
C62   N44   A    
N7    N16   A    
C60   H11   S    
C69   N7    A    
N34   Ni4   S    
C37   C46   A    
C55   C60   A    
C75   N14   A    
C70   N8    A    
C81   N19   A    
C29   C92   S    
N21   Ni7   S    
C1    H1    S    
C39   C48   A    
N2    N10   A    
C86   Cl10  S    
