data_mof_unit_1443.cif
_audit_creation_date              2012-12-10T20:03:11-0500
_audit_creation_method            fapswitch 2.2
_symmetry_space_group_name_H-M    P1
_symmetry_Int_Tables_number       1
_space_group_crystal_system       triclinic
_cell_length_a                    8.591313
_cell_length_b                    19.314169
_cell_length_c                    18.469694
_cell_angle_alpha                 89.816303
_cell_angle_beta                  98.700575
_cell_angle_gamma                 90.150709
_cell_volume                      3029.46078375

loop_
_atom_site_label
_atom_site_type_symbol
_atom_type_description
_atom_site_fract_x
_atom_site_fract_y
_atom_site_fract_z
_atom_type_partial_charge
C1    C     C_R   0.499352 0.365610 0.500121 0.889730
C2    C     C_R   0.401727 0.456522 0.267282 0.020331
C3    C     C_R   0.600032 0.544323 0.808844 -0.280729
C4    C     C_R   0.399741 0.455709 0.191165 -0.281061
C5    C     C_R   0.500021 0.499907 0.841346 0.121078
C6    C     C_R   0.499985 0.500000 0.158648 0.119649
C7    C     C_R   0.400016 0.455516 0.795028 -0.280384
C8    C     C_R   0.600234 0.544305 0.204962 -0.278685
C9    C     C_R   0.402013 0.456350 0.719185 0.018980
C10   C     C_R   0.598244 0.543514 0.280806 0.020224
C11   C     C_R   0.359366 0.490619 0.952110 -0.184201
C12   C     C_R   0.499951 0.634380 0.499836 0.890805
C13   C     C_R   0.640647 0.509235 0.047875 -0.184049
C14   C     C_R   0.359349 0.490664 0.028142 -0.184099
C15   C     C_R   0.640658 0.509201 0.971843 -0.183913
C16   C     C_R   0.200875 0.499978 0.480877 0.975486
C17   C     C_R   0.799126 0.500014 0.519123 0.978196
C18   C     C_R   0.499992 0.499972 0.077298 0.124488
C19   C     C_R   0.500016 0.499897 0.922691 0.124224
C20   C     C_2   0.035854 0.500037 0.470520 -0.388753
C21   C     C_2   0.964148 0.499943 0.529480 -0.389023
C22   C     C_R   0.507560 0.745537 0.433982 -0.292670
C23   C     C_R   0.364538 0.963221 0.521636 -0.235243
C24   C     C_R   0.485950 0.254561 0.565680 -0.321166
C25   C     C_R   0.502230 0.817447 0.432662 0.481273
C26   C     C_R   0.478541 0.182272 0.566115 0.501014
C27   C     C_R   0.491795 0.853355 0.497796 -0.007918
C28   C     C_R   0.488013 0.146666 0.500732 0.010619
C29   C     C_R   0.481369 0.817515 0.562771 -0.245495
C30   C     C_R   0.497921 0.182439 0.435665 -0.264769
C31   C     C_R   0.484395 0.745854 0.563552 -0.194675
C32   C     C_R   0.500460 0.254040 0.435280 -0.192687
C33   C     C_R   0.497775 0.709573 0.499212 -0.096204
C34   C     C_R   0.614112 0.036772 0.476278 -0.218741
C35   C     C_R   0.495341 0.290396 0.500322 -0.084274
C36   C     C_3   0.360509 0.859784 0.328533 0.095405
C37   C     C_3   0.369125 0.903730 0.260805 -0.811126
C38   C     C_3   0.348718 0.164435 0.664888 0.074016
C39   C     C_3   0.317963 0.107666 0.718232 -0.805192
C40   C     C_R   0.362978 0.034929 0.521965 -0.119147
C41   C     C_R   0.615504 0.965082 0.475789 -0.106554
C42   C     C_R   0.488245 0.071635 0.499705 0.160272
C43   C     C_R   0.490684 0.928374 0.498435 0.134572
C44   C     C_R   0.598043 0.543557 0.732727 0.021400
H1    H     H_    0.973826 0.500193 0.414603 0.178089
H2    H     H_    0.751777 0.515302 0.951615 0.128370
H3    H     H_    0.518483 0.718201 0.383866 0.171967
H4    H     H_    0.486372 0.282566 0.616367 0.159501
H5    H     H_    0.472582 0.845149 0.612961 0.161648
H6    H     H_    0.503213 0.154736 0.385161 0.158234
H7    H     H_    0.476392 0.718987 0.614431 0.167232
H8    H     H_    0.507719 0.280794 0.384260 0.166411
H9    H     H_    0.267169 0.934878 0.538635 0.138907
H10   H     H_    0.711462 0.065101 0.459235 0.139083
H11   H     H_    0.264215 0.061799 0.539045 0.132916
H12   H     H_    0.026176 0.499785 0.585398 0.178000
H13   H     H_    0.713958 0.938198 0.458392 0.152623
H14   H     H_    0.674765 0.578004 0.708104 0.123231
H15   H     H_    0.324833 0.422166 0.291914 0.122614
H16   H     H_    0.677676 0.580172 0.841759 0.133939
H17   H     H_    0.321917 0.419916 0.158265 0.133688
H18   H     H_    0.280208 0.886137 0.361775 0.140385
H19   H     H_    0.310565 0.808255 0.310599 0.139729
H20   H     H_    0.446605 0.878519 0.225745 0.256030
H21   H     H_    0.249541 0.909711 0.228898 0.203671
H22   H     H_    0.417034 0.955791 0.277190 0.256196
H23   H     H_    0.322379 0.419640 0.817225 0.133145
H24   H     H_    0.239187 0.171298 0.624548 0.125555
H25   H     H_    0.375160 0.213086 0.696400 0.146629
H26   H     H_    0.423531 0.100228 0.760299 0.260108
H27   H     H_    0.216745 0.122219 0.745908 0.206185
H28   H     H_    0.290132 0.058259 0.688386 0.251038
H29   H     H_    0.678069 0.580085 0.182764 0.135023
H30   H     H_    0.325314 0.421907 0.683971 0.118985
H31   H     H_    0.675164 0.577874 0.316016 0.123875
H32   H     H_    0.248261 0.484495 0.916281 0.129308
H33   H     H_    0.751763 0.515350 0.083696 0.129035
H34   H     H_    0.248221 0.484576 0.048363 0.128279
N1    N     N_R   0.500020 0.499980 0.689440 -0.092742
N2    N     N_R   0.499980 0.500020 0.310560 -0.093668
O1    O     O_R   0.500010 0.398180 0.560840 -0.628687
O2    O     O_3   0.478641 0.145271 0.630684 -0.610659
O3    O     O_R   0.499990 0.601820 0.439160 -0.629427
O4    O     O_R   0.499930 0.398180 0.439210 -0.630455
O5    O     O_R   0.500070 0.601820 0.560790 -0.629421
O6    O     O_R   0.271780 0.500000 0.546590 -0.619251
O7    O     O_R   0.728220 0.500000 0.453410 -0.618772
O8    O     O_R   0.271710 0.499990 0.424960 -0.629811
O9    O     O_R   0.728290 0.500010 0.575040 -0.629018
O10   O     O_3   0.513315 0.852569 0.368330 -0.624034
Zn1   Zn    Zn3+2 0.500050 0.500000 0.581210 0.937828
Zn2   Zn    Zn3+2 0.499950 0.500000 0.418790 0.937483

loop_
_geom_bond_atom_site_label_1
_geom_bond_atom_site_label_2
_ccdc_geom_bond_type
C27   C29   A    
C14   C18   A    
C34   C42   A    
O5    Zn1   S    
C29   H5    S    
C1    O4    A    
C15   C19   A    
O3    Zn2   S    
C11   C19   A    
C25   O10   S    
C13   C18   A    
C36   C37   S    
C24   C26   A    
C11   H32   S    
C38   C39   S    
C11   C14   A    
C1    O1    A    
C23   C40   A    
C23   C43   A    
C9    N1    A    
C32   H8    S    
O8    Zn2   S    
C44   H14   S    
C22   C25   A    
C37   H21   S    
C39   H28   S    
C31   C33   A    
O9    Zn1   S    
C36   H19   S    
N1    Zn1   S    
C20   H1    S    
C3    H16   S    
C40   C42   A    
C22   H3    S    
C30   H6    S    
C38   H25   S    
C26   O2    S    
O7    Zn2   S    
C38   O2    S    
C16   O6    A    
C41   C43   A    
C34   C41   A    
C36   H18   S    
C23   H9    S    
C6    C18   S    
C13   H33   S    
C3    C44   A    
C24   C35   A    
C24   H4    S    
C32   C35   A    
C17   O9    A    
C4    C6    A    
C5    C7    A    
C10   N2    A    
C2    H15   S    
C6    C8    A    
C4    H17   S    
C17   C21   S    
C12   O3    A    
N2    Zn2   S    
C2    C4    A    
C10   H31   S    
C16   C20   S    
C40   H11   S    
C37   H22   S    
C12   O5    A    
C38   H24   S    
C34   H10   S    
C13   C15   A    
C9    H30   S    
C37   H20   S    
C1    C35   S    
C36   O10   S    
C7    C9    A    
C22   C33   A    
C17   O7    A    
C44   N1    A    
C31   H7    S    
C3    C5    A    
C21   H12   S    
C5    C19   S    
C25   C27   A    
C26   C28   A    
O6    Zn1   S    
C28   C30   A    
C41   H13   S    
C29   C31   A    
C30   C32   A    
C28   C42   S    
C8    H29   S    
C39   H26   S    
C14   H34   S    
C2    N2    A    
C7    H23   S    
O1    Zn1   S    
C27   C43   S    
C20   C21   D    
C8    C10   A    
C16   O8    A    
C39   H27   S    
O4    Zn2   S    
C15   H2    S    
C12   C33   S    
