data_mof_unit_1784.cif
_audit_creation_date              2013-03-05T16:47:54-0500
_audit_creation_method            fapswitch 2.2
_symmetry_space_group_name_H-M    P1
_symmetry_Int_Tables_number       1
_space_group_crystal_system       triclinic
_cell_length_a                    11.212377
_cell_length_b                    10.915118
_cell_length_c                    9.950364
_cell_angle_alpha                 93.016257
_cell_angle_beta                  92.544447
_cell_angle_gamma                 102.951246
_cell_volume                      1183.16986266

loop_
_atom_site_label
_atom_site_type_symbol
_atom_site_description
_atom_site_fract_x
_atom_site_fract_y
_atom_site_fract_z
_atom_type_partial_charge
O1    O     O_R   0.499990 0.319640 0.618810 -0.541195
O2    O     O_R   0.500000 0.319660 0.381240 -0.589682
C1    C     C_R   0.506844 0.265056 0.497522 0.779611
O3    O     O_R   0.319640 0.500000 0.618780 -0.483546
O4    O     O_R   0.319650 0.500020 0.381210 -0.590816
C2    C     C_R   0.260656 0.494047 0.497414 0.795153
Cu1   Cu    Cu3+1 0.499990 0.499990 0.640660 1.063619
Cu2   Cu    Cu3+1 0.500010 0.500010 0.359340 1.023371
O5    O     O_R   0.500000 0.680340 0.618760 -0.576718
O6    O     O_R   0.500010 0.680360 0.381190 -0.563040
O7    O     O_R   0.680350 0.499980 0.618790 -0.604317
O8    O     O_R   0.680360 0.500000 0.381220 -0.522105
C3    C     C_R   0.491712 0.735507 0.502551 0.855970
C4    C     C_R   0.736239 0.500827 0.502783 0.870338
H1    H     H_    0.255999 0.439143 0.937989 0.218347
C5    C     C_R   0.216168 0.563457 0.092738 0.209546
C6    C     C_R   0.150190 0.570397 0.204036 -0.145864
H2    H     H_    0.156080 0.660455 0.258616 0.165823
C7    C     C_R   0.085870 0.459790 0.252926 0.054725
C8    C     C_R   0.074871 0.342604 0.187104 -0.198470
H3    H     H_    0.021505 0.258441 0.227262 0.191573
C9    C     C_R   0.135758 0.334373 0.071682 0.227552
C10   C     C_R   0.209508 0.444870 0.027132 -0.067992
C11   C     C_R   0.915458 0.460963 0.386666 -0.131911
H4    H     H_    0.857614 0.437137 0.294483 0.200478
C12   C     C_R   0.867309 0.495669 0.505763 -0.107805
C13   C     C_R   0.948054 0.522348 0.620923 -0.083531
C14   C     C_R   0.064833 0.497144 0.615917 0.372291
C15   C     C_R   0.121832 0.486285 0.496274 -0.199378
C16   C     C_R   0.041051 0.467098 0.381337 -0.013284
C17   C     C_R   0.004183 0.715472 0.774540 0.251646
C18   C     C_R   0.018473 0.768703 0.906275 -0.099754
H5    H     H_    0.076828 0.861264 0.929547 0.198953
C19   C     C_R   0.962931 0.700291 0.009546 -0.105205
H6    H     H_    0.981613 0.741036 0.111549 0.213476
C20   C     C_R   0.888611 0.579444 0.981236 -0.109948
H7    H     H_    0.848439 0.523922 0.061224 0.194188
C21   C     C_R   0.870810 0.526360 0.849459 -0.075443
H8    H     H_    0.819549 0.430178 0.830014 0.168414
C22   C     C_R   0.929403 0.592650 0.745217 0.096682
H9    H     H_    0.462203 0.091570 0.283307 0.186300
C23   C     C_R   0.616298 0.156456 0.725241 -0.126990
H10   H     H_    0.668723 0.251038 0.714029 0.146513
C24   C     C_R   0.607941 0.112154 0.853355 0.221711
C25   C     C_R   0.534518 0.993470 0.870009 -0.084093
H11   H     H_    0.516598 0.963971 0.970495 0.184944
C26   C     C_R   0.490830 0.910463 0.757231 -0.141986
H12   H     H_    0.438748 0.817347 0.773761 0.212500
C27   C     C_R   0.509994 0.951285 0.626239 0.098377
C28   C     C_R   0.551220 0.081690 0.614172 0.100678
C29   C     C_R   0.520375 0.133790 0.494283 -0.093634
C30   C     C_R   0.483392 0.054326 0.378028 -0.142658
H13   H     H_    0.453563 0.867960 0.289641 0.183968
C31   C     C_R   0.473653 0.925304 0.383036 -0.135446
C32   C     C_R   0.486397 0.870708 0.506624 -0.091289
H14   H     H_    0.408578 0.311884 0.111648 0.180973
C33   C     C_R   0.644833 0.711150 0.163311 0.340496
C34   C     C_R   0.682495 0.825287 0.106047 0.098638
C35   C     C_R   0.686771 0.826199 0.970112 -0.330934
H15   H     H_    0.737193 0.913507 0.933303 0.227412
C36   C     C_R   0.642583 0.718707 0.884946 0.165030
C37   C     C_R   0.568937 0.604989 0.935537 0.070199
C38   C     C_R   0.570074 0.603303 0.084677 0.037153
N1    N     N_R   0.501190 0.501210 0.147910 -0.213242
C39   C     C_R   0.453446 0.396112 0.065133 -0.112470
C40   C     C_R   0.452004 0.394965 0.919335 0.377643
N2    N     N_R   0.501230 0.501290 0.852040 -0.226113
I1    I     I_    0.690584 0.233155 0.020300 -0.402853
I2    I     I_    0.323421 0.736327 0.038169 -0.416683
N3    N     N_R   0.722925 0.698987 0.276556 0.166318
O9    O     O_R   0.821101 0.659580 0.252562 -0.430251
O10   O     O_R   0.726485 0.769374 0.386772 -0.325410
I3    I     I_    0.787534 0.990504 0.216624 -0.246291
I4    I     I_    0.741269 0.770604 0.709523 -0.257638
N4    N     N_R   0.383233 0.283207 0.845411 0.127311
O11   O     O_R   0.303954 0.291625 0.748995 -0.287804
O12   O     O_R   0.377709 0.173979 0.893876 -0.370544
I5    I     I_    0.105039 0.153889 0.970588 -0.168880
N5    N     N_R   0.121910 0.478454 0.737529 0.125588
O13   O     O_R   0.066285 0.383700 0.801820 -0.366545
O14   O     O_R   0.191428 0.577217 0.800957 -0.390007
I6    I     I_    0.101244 0.823503 0.625121 -0.231745

loop_
_geom_bond_atom_site_label_1
_geom_bond_atom_site_label_2
_geom_bond_distance
_ccdc_geom_bond_type
C7    C8    1.383556 A    
Cu1   Cu2   2.799258 S    
C26   C27   1.409500 A    
H13   C31   1.078487 S    
Cu1   O7    2.043546 S    
C12   C13   1.404316 A    
C15   C16   1.403572 A    
C17   I6    2.130315 S    
C37   N2    1.416911 A    
C20   H7    1.078829 S    
C11   C12   1.393037 A    
C21   H8    1.080839 S    
O7    C4    1.337144 A    
H14   C39   1.081975 S    
Cu2   N1    2.105146 S    
C17   C22   1.420795 A    
C19   H6    1.078738 S    
C14   N5    1.389686 S    
O5    C3    1.340568 A    
C17   C18   1.393184 A    
C5    C6    1.366926 A    
N3    O9    1.295569 A    
C33   N3    1.426291 S    
H9    C30   1.083393 S    
H1    C10   1.054619 S    
C40   N2    1.388302 A    
C35   H15   1.084232 S    
C23   C24   1.386670 A    
O3    Cu1   2.024231 S    
C30   C31   1.391631 A    
C33   C38   1.450197 A    
C25   C26   1.401923 A    
C35   C36   1.392026 A    
C29   C30   1.397497 A    
C11   H4    1.084484 S    
C9    I5    2.113755 S    
O3    C2    1.342223 A    
N5    O14   1.294624 A    
C1    C29   1.473073 S    
C28   C29   1.410325 A    
C34   C35   1.356065 A    
C27   C32   1.420464 A    
C38   N1    1.401907 A    
O1    C1    1.330588 A    
C18   C19   1.389417 A    
N4    O11   1.299674 A    
C37   C38   1.484606 A    
C26   H12   1.077572 S    
C13   C22   1.468730 S    
Cu2   O8    2.024231 S    
C6    H2    1.084949 S    
C4    C12   1.482288 S    
N4    O12   1.299184 A    
C23   C28   1.409401 A    
C8    C9    1.370916 A    
C39   C40   1.449477 A    
C5    C10   1.403783 A    
C24   I1    2.108627 S    
C23   H10   1.081526 S    
C24   C25   1.392853 A    
Cu1   O5    1.991906 S    
C31   C32   1.409783 A    
C14   C15   1.387949 A    
O1    Cu1   1.969107 S    
O2    Cu2   1.991906 S    
C5    I2    2.109508 S    
O8    C4    1.335959 A    
O6    C3    1.337100 A    
O4    Cu2   2.043546 S    
C36   I4    2.141648 S    
C18   H5    1.080776 S    
C20   C21   1.392783 A    
O2    C1    1.336065 A    
N1    C39   1.366421 A    
C21   C22   1.399094 A    
C33   C34   1.383952 A    
O4    C2    1.354714 A    
C40   N4    1.434314 S    
C6    C7    1.384559 A    
C19   C20   1.400362 A    
C36   C37   1.455739 A    
C11   C16   1.398227 A    
Cu1   N2    2.102017 S    
N5    O13   1.297624 A    
C25   H11   1.080053 S    
C2    C15   1.539280 S    
C8    H3    1.084017 S    
Cu2   O6    1.969106 S    
C27   C28   1.407873 A    
C13   C14   1.399434 A    
C9    C10   1.405957 A    
N3    O10   1.299327 A    
C7    C16   1.398482 S    
C34   I3    2.138667 S    
C3    C32   1.488737 S    
