data_mof_unit_2102.cif
_audit_creation_date              2012-12-10T18:03:59-0500
_audit_creation_method            fapswitch 2.2
_symmetry_space_group_name_H-M    P1
_symmetry_Int_Tables_number       1
_space_group_crystal_system       triclinic
_cell_length_a                    10.929501
_cell_length_b                    9.525565
_cell_length_c                    10.850839
_cell_angle_alpha                 89.949194
_cell_angle_beta                  89.632601
_cell_angle_gamma                 89.346641
_cell_volume                      1129.5802463

loop_
_atom_site_label
_atom_site_type_symbol
_atom_type_description
_atom_site_fract_x
_atom_site_fract_y
_atom_site_fract_z
_atom_type_partial_charge
C1    C     C_R   0.261662 0.501189 0.495511 0.922556
C2    C     C_R   0.737645 0.499113 0.498336 0.962976
C3    C     C_R   0.453199 0.074885 0.403176 0.069004
C4    C     C_R   0.547581 0.073492 0.596630 0.053549
C5    C     C_R   0.451474 0.926549 0.404192 0.039578
C6    C     C_R   0.549018 0.924880 0.595894 0.020333
C7    C     C_R   0.504016 0.499918 0.262300 0.839512
C8    C     C_R   0.500606 0.499757 0.737808 0.814997
C9    C     C_R   0.537653 0.622148 0.062936 0.163322
C10   C     C_R   0.527329 0.622072 0.936567 0.068847
C11   C     C_R   0.518698 0.498360 0.129365 -0.099027
C12   C     C_R   0.510632 0.498003 0.870948 -0.070725
C13   C     C_R   0.516551 0.370360 0.064544 -0.194213
C14   C     C_R   0.513916 0.370167 0.935936 -0.185835
C15   C     C_3   0.462107 0.761467 0.934819 -0.110714
C16   C     C_3   0.480858 0.765465 0.074331 -0.096584
C17   C     C_R   0.063308 0.374632 0.488812 0.292662
C18   C     C_R   0.940341 0.377570 0.522655 0.310402
C19   C     C_R   0.871003 0.497943 0.490773 -0.399908
C20   C     C_R   0.126897 0.503177 0.486665 -0.381206
C21   C     C_R   0.932517 0.617673 0.447100 0.236739
C22   C     C_R   0.056836 0.629668 0.474463 0.299003
Cu1   Cu    Cu3+1 0.500000 0.640660 0.500000 1.036331
Cu2   Cu    Cu3+1 0.500000 0.359340 0.500000 1.049170
H1    H     H_    0.510380 0.270948 0.112589 0.163248
H2    H     H_    0.507950 0.270555 0.888410 0.158433
H3    H     H_    0.512741 0.842486 0.881942 0.173604
H4    H     H_    0.395257 0.766605 0.130376 0.186681
H5    H     H_    0.416329 0.130498 0.324902 0.139387
H6    H     H_    0.586091 0.128236 0.674099 0.132649
H7    H     H_    0.411430 0.871782 0.327835 0.144771
H8    H     H_    0.589921 0.868695 0.672001 0.123634
N1    N     N_R   0.500000 0.852070 0.500000 -0.169794
N2    N     N_R   0.500000 0.147940 0.500000 -0.167930
O1    O     O_R   0.319640 0.618740 0.499990 -0.534281
O2    O     O_R   0.680360 0.618740 0.500010 -0.530382
O3    O     O_R   0.319620 0.381170 0.499990 -0.520451
O4    O     O_R   0.680380 0.381170 0.500010 -0.526548
O5    O     O_R   0.499990 0.618810 0.319660 -0.583617
O6    O     O_R   0.500010 0.618810 0.680340 -0.608523
O7    O     O_R   0.499960 0.381240 0.319650 -0.599140
O8    O     O_R   0.500040 0.381240 0.680350 -0.593921
C23   C     C_3   0.326824 0.751557 0.900228 -0.765390
H9    H     H_    0.278549 0.673159 0.958259 0.243041
H10   H     H_    0.281698 0.855705 0.912074 0.256443
H11   H     H_    0.319002 0.718942 0.803075 0.278263
C24   C     C_3   0.573876 0.875655 0.113804 -0.750479
H12   H     H_    0.656082 0.874110 0.052903 0.259668
H13   H     H_    0.530762 0.981653 0.110068 0.199404
H14   H     H_    0.604301 0.854708 0.209321 0.294446
S1    S     S_3+6 0.120516 0.221597 0.413908 0.094101
O9    O     O_2   0.192761 0.134599 0.503728 -0.232043
O10   O     O_2   0.016279 0.136891 0.365032 -0.172682
O11   O     O_3   0.210513 0.268478 0.294719 -0.569727
H15   H     H_    0.212445 0.185959 0.239222 0.363221
S2    S     S_3+6 0.883099 0.238668 0.615378 0.075952
O12   O     O_2   0.816478 0.135821 0.536065 -0.204369
O13   O     O_2   0.987228 0.164307 0.678728 -0.225354
O14   O     O_3   0.786977 0.304193 0.723167 -0.567129
H16   H     H_    0.771611 0.225153 0.780367 0.356802
S3    S     S_3+6 0.864505 0.732884 0.336334 0.082605
O15   O     O_2   0.792229 0.846976 0.400079 -0.185573
O16   O     O_2   0.960800 0.799064 0.256445 -0.211543
O17   O     O_3   0.770168 0.641495 0.245678 -0.563020
H17   H     H_    0.822455 0.567493 0.207767 0.339634
S4    S     S_3+6 0.113203 0.801305 0.501085 0.120538
O18   O     O_2   0.184312 0.847780 0.389749 -0.269155
O19   O     O_2   0.008601 0.901676 0.523470 -0.113644
O20   O     O_3   0.202222 0.804798 0.626507 -0.544208
H18   H     H_    0.246385 0.894824 0.621510 0.381609

loop_
_geom_bond_atom_site_label_1
_geom_bond_atom_site_label_2
_ccdc_geom_bond_type
C17   C18   A    
C16   H4    S    
S3    O17   S    
S4    O19   D    
Cu1   Cu2   S    
C6    N1    A    
C22   S4    S    
C3    H5    S    
C1    O3    A    
S2    O13   D    
Cu2   O8    S    
C9    C10   A    
C2    O4    A    
Cu2   O4    S    
C24   H12   S    
S2    O14   S    
C18   S2    S    
C8    C12   S    
S1    O11   S    
O17   H17   S    
C17   S1    S    
C7    O7    A    
Cu2   O3    S    
C12   C14   A    
C15   C23   S    
O14   H16   S    
C24   H13   S    
C21   C22   A    
C14   H2    S    
C7    C11   S    
Cu2   O7    S    
C11   C13   A    
C13   H1    S    
C6    H8    S    
O20   H18   S    
C10   C12   A    
Cu1   O5    S    
C16   C24   S    
C19   C21   A    
C9    C16   S    
C8    O8    A    
S4    O18   D    
C24   H14   S    
Cu1   O1    S    
C10   C15   S    
C9    C11   A    
C23   H9    S    
S3    O15   D    
C23   H11   S    
C4    N2    A    
S4    O20   S    
C15   C16   S    
S1    O10   D    
Cu1   O6    S    
C5    N1    A    
C17   C20   A    
S2    O12   D    
C1    O1    A    
C4    C6    A    
Cu1   O2    S    
C15   H3    S    
C2    O2    A    
S3    O16   D    
C7    O5    A    
O11   H15   S    
C18   C19   A    
C1    C20   S    
C8    O6    A    
C3    N2    A    
C5    H7    S    
C2    C19   S    
C13   C14   A    
C21   S3    S    
C23   H10   S    
C4    H6    S    
Cu1   N1    S    
S1    O9    D    
C20   C22   A    
C3    C5    A    
Cu2   N2    S    
