data_mof_unit_4420.cif
_audit_creation_date              2013-03-05T15:53:46-0500
_audit_creation_method            fapswitch 2.2
_symmetry_space_group_name_H-M    P1
_symmetry_Int_Tables_number       1
_space_group_crystal_system       triclinic
_cell_length_a                    10.654237
_cell_length_b                    10.642146
_cell_length_c                    9.919487
_cell_angle_alpha                 89.832449
_cell_angle_beta                  90.158594
_cell_angle_gamma                 91.081497
_cell_volume                      1124.50127124

loop_
_atom_site_label
_atom_site_type_symbol
_atom_site_description
_atom_site_fract_x
_atom_site_fract_y
_atom_site_fract_z
_atom_type_partial_charge
O1    O     O_R   0.500000 0.316780 0.614690 -0.642576
O2    O     O_R   0.499990 0.316750 0.385360 -0.636782
C1    C     C_R   0.505586 0.260814 0.500257 0.851245
O3    O     O_R   0.314800 0.499990 0.614670 -0.624622
O4    O     O_R   0.314790 0.499970 0.385330 -0.632722
C2    C     C_R   0.257750 0.502195 0.499946 0.884252
Zn1   Zn    Zn3+2 0.500010 0.500020 0.653130 0.945963
Zn2   Zn    Zn3+2 0.499990 0.499980 0.346870 0.956030
O5    O     O_R   0.500010 0.683250 0.614640 -0.593578
O6    O     O_R   0.500000 0.683220 0.385310 -0.611344
O7    O     O_R   0.685210 0.500030 0.614670 -0.648086
O8    O     O_R   0.685200 0.500010 0.385330 -0.625490
C3    C     C_R   0.507587 0.739363 0.499738 0.941620
C4    C     C_R   0.741952 0.499037 0.500402 0.814127
C5    C     C_3   0.071371 0.499415 0.647662 -0.367567
H1    H     H_    0.111303 0.576787 0.710753 0.227279
H2    H     H_    0.099504 0.409554 0.696004 0.170656
C6    C     C_3   0.929044 0.506593 0.647875 -0.381067
H3    H     H_    0.890191 0.426779 0.708677 0.175905
H4    H     H_    0.900420 0.595539 0.697022 0.198986
H5    H     H_    0.875277 0.702921 0.455320 0.189906
C7    C     C_3   0.071143 0.631918 0.432231 0.229428
C8    C     C_3   0.069790 0.385983 0.427519 -0.456040
C9    C     C_3   0.120780 0.506350 0.499789 0.013405
H6    H     H_    0.102567 0.380456 0.321838 0.229523
H7    H     H_    0.106026 0.300667 0.478792 0.167771
C10   C     C_3   0.878090 0.501239 0.500918 0.120933
C11   C     C_3   0.925212 0.618164 0.421269 -0.472904
C12   C     C_3   0.926027 0.381564 0.431377 -0.378926
H8    H     H_    0.893190 0.296370 0.487396 0.167341
H9    H     H_    0.888921 0.374090 0.326603 0.202575
H10   H     H_    0.895025 0.607357 0.314209 0.183946
H11   H     H_    0.365463 0.110870 0.355053 0.152243
C13   C     C_R   0.702379 0.134943 0.652291 -0.197072
H12   H     H_    0.708725 0.236354 0.651608 0.152962
C14   C     C_R   0.792124 0.071082 0.727034 -0.136387
H13   H     H_    0.862807 0.123246 0.783456 0.135393
C15   C     C_R   0.792153 0.940387 0.727469 -0.055758
H14   H     H_    0.862668 0.891000 0.784530 0.160585
C16   C     C_R   0.703125 0.873025 0.652253 -0.184962
H15   H     H_    0.710151 0.771866 0.651197 0.136281
C17   C     C_R   0.609905 0.936225 0.577664 0.076588
C18   C     C_R   0.609247 0.068159 0.578009 0.111872
C19   C     C_R   0.517088 0.128783 0.499937 -0.098381
C20   C     C_R   0.434117 0.063018 0.416586 -0.217849
H16   H     H_    0.369580 0.884856 0.351267 0.226991
C21   C     C_R   0.436090 0.935062 0.414838 -0.104026
C22   C     C_R   0.519098 0.872080 0.498430 -0.120098
H17   H     H_    0.641867 0.638845 0.125133 0.145552
C23   C     C_R   0.334717 0.337633 0.139939 -0.139514
H18   H     H_    0.329717 0.331426 0.246724 0.192893
C24   C     C_R   0.252749 0.258146 0.069894 -0.176024
H19   H     H_    0.189063 0.196046 0.124415 0.154308
C25   C     C_R   0.252947 0.257835 0.930390 -0.184418
H20   H     H_    0.189376 0.195501 0.876028 0.156862
C26   C     C_R   0.335099 0.337044 0.860171 -0.161764
H21   H     H_    0.330450 0.330258 0.753358 0.202622
C27   C     C_R   0.418606 0.419884 0.927741 0.165690
C28   C     C_R   0.418518 0.420057 0.072272 0.173139
N1    N     N_R   0.498810 0.498800 0.142780 -0.121157
C29   C     C_R   0.578041 0.576401 0.071467 -0.098200
H22   H     H_    0.641808 0.638808 0.874662 0.139139
C30   C     C_R   0.578003 0.576379 0.928388 -0.105123
N2    N     N_R   0.498760 0.498720 0.857170 -0.122480
C31   C     C_2   0.122778 0.654703 0.289851 0.887885
O9    O     O_2   0.183147 0.750579 0.263912 -0.608939
O10   O     O_R   0.098080 0.567955 0.187000 -0.840396
H23   H     H_    0.137657 0.593593 0.097984 0.349445
N3    N     N_R   0.107795 0.740803 0.518439 0.199145
O11   O     O_R   0.025174 0.810794 0.576850 -0.432070
O12   O     O_R   0.225780 0.765707 0.541897 -0.414166

loop_
_geom_bond_atom_site_label_1
_geom_bond_atom_site_label_2
_geom_bond_distance
_ccdc_geom_bond_type
C7    C11   1.562417 S    
C5    H1    1.113092 S    
C5    C6    1.519750 S    
C23   C24   1.390395 A    
C18   C19   1.413102 A    
C7    C31   1.534073 S    
C5    H2    1.114306 S    
C12   H8    1.113264 S    
C4    C10   1.450197 S    
C10   C12   1.546075 S    
H11   C20   1.084751 S    
C7    N3    1.487740 S    
C13   C14   1.394087 A    
C21   C22   1.390686 A    
Zn2   O8    2.008770 S    
C2    C9    1.460815 S    
C14   C15   1.390878 A    
O2    C1    1.286028 A    
O8    C4    1.290337 A    
C28   N1    1.377040 A    
C12   H9    1.113464 S    
O1    C1    1.285471 A    
C17   C22   1.412003 A    
C24   H19   1.082890 S    
Zn1   O7    2.010743 S    
H22   C30   1.081857 S    
N1    C29   1.366956 A    
O3    Zn1   2.008768 S    
O4    C2    1.291132 A    
C23   C28   1.409764 A    
C8    C12   1.532100 S    
C16   C17   1.415783 A    
C14   H13   1.082700 S    
C15   C16   1.394216 A    
H5    C11   1.109792 S    
C24   C25   1.383827 A    
C13   H12   1.080071 S    
C6    H4    1.114054 S    
C1    C19   1.412739 S    
C20   C21   1.362447 A    
C27   N2    1.376965 A    
N3    O11   1.302109 A    
Zn2   O6    1.988088 S    
O7    C4    1.286258 A    
C7    C9    1.591851 S    
Zn1   N2    2.024059 S    
O4    Zn2   2.010742 S    
H17   C29   1.081871 S    
C17   C18   1.404229 A    
C13   C18   1.415990 A    
C8    C9    1.557839 S    
C30   N2    1.366999 A    
Zn1   O5    1.985890 S    
C11   H10   1.114408 S    
C8    H6    1.107929 S    
C15   H14   1.082522 S    
C26   H21   1.063154 S    
O3    C2    1.289027 A    
C31   O9    1.222934 D    
C8    H7    1.114241 S    
O2    Zn2   1.985890 S    
C10   C11   1.548390 S    
N3    O12   1.300273 A    
O5    C3    1.287211 A    
H16   C21   1.081875 S    
C6    H3    1.114313 S    
O1    Zn1   1.988088 S    
C16   H15   1.080641 S    
C19   C20   1.389559 A    
C23   H18   1.062534 S    
C27   C28   1.433686 A    
C25   H20   1.082908 S    
C5    C9    1.560866 S    
O6    C3    1.285899 A    
C29   C30   1.419263 A    
Zn2   N1    2.024547 S    
C6    C10   1.554959 S    
O10   H23   1.014008 S    
C26   C27   1.410171 A    
C25   C26   1.390649 A    
C31   O10   1.399014 S    
C3    C22   1.415415 S    
