data_mof_unit_1055.cif
_audit_creation_date              2012-12-11T15:43:49-0500
_audit_creation_method            fapswitch 2.2
_symmetry_space_group_name_H-M    P1
_symmetry_Int_Tables_number       1
_space_group_crystal_system       monoclinic
_cell_length_a                    14.534403
_cell_length_b                    16.17695
_cell_length_c                    6.985561
_cell_angle_alpha                 90.0
_cell_angle_beta                  99.30764
_cell_angle_gamma                 90.0
_cell_volume                      1620.83685944

loop_
_atom_site_label
_atom_site_type_symbol
_atom_type_description
_atom_site_fract_x
_atom_site_fract_y
_atom_site_fract_z
_atom_type_partial_charge
O1    O     O_R   0.831700 0.662810 0.581550 -0.543389
O2    O     O_R   0.168300 0.337190 0.418450 -0.541482
O3    O     O_R   0.168300 0.162810 0.418450 -0.543389
O4    O     O_R   0.831700 0.837190 0.581550 -0.541482
O5    O     O_R   0.842890 0.834390 0.255500 -0.535836
O6    O     O_R   0.157110 0.165610 0.744500 -0.538817
O7    O     O_R   0.157110 0.334390 0.744500 -0.535836
O8    O     O_R   0.842890 0.665610 0.255500 -0.538817
O9    O     O_R   0.661690 0.835580 0.024130 -0.536049
O10   O     O_R   0.338310 0.164420 0.975870 -0.536135
O11   O     O_R   0.338310 0.335580 0.975870 -0.536049
O12   O     O_R   0.661690 0.664420 0.024130 -0.536135
C1    C     C_R   0.863228 0.866323 0.429401 0.680100
C2    C     C_R   0.132314 0.137637 0.567121 0.700900
C3    C     C_R   0.136771 0.366323 0.570599 0.680100
C4    C     C_R   0.867686 0.637637 0.432879 0.700900
C5    C     C_R   0.057500 0.073221 0.528207 -0.075957
C6    C     C_R   0.927999 0.939906 0.455967 -0.082307
C7    C     C_R   0.942500 0.573221 0.471793 -0.075958
C8    C     C_R   0.072001 0.439906 0.544033 -0.082306
H1    H     H_    0.088936 0.044118 0.244174 0.124163
H2    H     H_    0.880431 0.979718 0.710418 0.138102
H3    H     H_    0.911064 0.544118 0.755826 0.124163
H4    H     H_    0.119569 0.479718 0.289582 0.138103
C9    C     C_R   0.974749 0.969741 0.307783 0.140395
C10   C     C_R   0.988153 0.062285 0.646685 0.143256
C11   C     C_R   0.025251 0.469741 0.692217 0.140395
C12   C     C_R   0.011847 0.562285 0.353314 0.143256
O13   O     O_3   0.687240 0.750000 0.366320 -0.369231
O14   O     O_3   0.312760 0.250000 0.633680 -0.369232
V1    V     V_3+5 0.757720 0.750000 0.115230 1.386805
V2    V     V_3+5 0.242280 0.250000 0.884770 1.386804
O15   O     O_R   0.650500 0.664000 0.690740 -0.543578
O16   O     O_R   0.349500 0.336000 0.309260 -0.544112
O17   O     O_R   0.349500 0.164000 0.309260 -0.543579
O18   O     O_R   0.650500 0.836000 0.690740 -0.544112
C13   C     C_R   0.628199 0.636096 0.853248 0.756834
C14   C     C_R   0.371463 0.364146 0.146675 0.757317
C15   C     C_R   0.371801 0.136096 0.146752 0.756834
C16   C     C_R   0.628537 0.864146 0.853325 0.757317
C17   C     C_R   0.047156 0.027953 0.353796 -0.224304
C18   C     C_R   0.930677 0.991204 0.618187 -0.237012
C19   C     C_R   0.952844 0.527953 0.646204 -0.224304
C20   C     C_R   0.069323 0.491204 0.381812 -0.237013
V3    V     V_3+5 0.735670 0.750000 0.607790 1.391028
V4    V     V_3+5 0.264330 0.250000 0.392210 1.391028
O19   O     O_3   0.806150 0.750000 0.906560 -0.375365
O20   O     O_3   0.193850 0.250000 0.093440 -0.375365
H5    H     H_    0.436026 0.057792 0.852680 0.154465
H6    H     H_    0.566082 0.943717 0.147736 0.152820
H7    H     H_    0.563974 0.557792 0.147320 0.154465
H8    H     H_    0.433918 0.443717 0.852264 0.152820
C21   C     C_2   0.559736 0.932516 0.843912 -0.347386
C22   C     C_2   0.441257 0.068209 0.156357 -0.345309
C23   C     C_2   0.440264 0.432516 0.156088 -0.347386
C24   C     C_2   0.558743 0.568209 0.843643 -0.345309
C25   C     C_2   0.535242 0.966456 0.005349 -0.128327
C26   C     C_2   0.466540 0.034830 0.995065 -0.125944
C27   C     C_2   0.464758 0.466456 0.994651 -0.128327
C28   C     C_2   0.533460 0.534830 0.004935 -0.125944
H9    H     H_    0.471749 0.044680 0.298220 0.126494
H10   H     H_    0.528979 0.955860 0.702051 0.127015
H11   H     H_    0.528251 0.544680 0.701780 0.126494
H12   H     H_    0.471021 0.455860 0.297949 0.127015
C29   C     C_3   0.930490 0.961891 0.098464 -0.337310
C30   C     C_3   0.832562 0.002391 0.070482 -0.698913
H13   H     H_    0.786761 0.975353 0.166024 0.217214
H14   H     H_    0.838828 0.069223 0.106374 0.206703
H15   H     H_    0.794240 0.994942 0.921634 0.186019
H16   H     H_    0.974604 0.993936 0.007624 0.153756
H17   H     H_    0.928276 0.897109 0.046816 0.198402
C31   C     C_3   0.965890 0.129301 0.784610 -0.366876
C32   C     C_3   0.935525 0.210113 0.678977 -0.727844
H18   H     H_    0.992368 0.237842 0.612285 0.211757
H19   H     H_    0.874570 0.198884 0.563828 0.220677
H20   H     H_    0.915095 0.255468 0.783846 0.205605
H21   H     H_    0.906249 0.110468 0.853770 0.186163
H22   H     H_    0.025161 0.139784 0.903469 0.195495
C33   C     C_3   0.069510 0.461891 0.901535 -0.337311
C34   C     C_3   0.167438 0.502391 0.929518 -0.698913
H23   H     H_    0.213239 0.475353 0.833975 0.217214
H24   H     H_    0.161172 0.569223 0.893626 0.206703
H25   H     H_    0.205760 0.494942 0.078366 0.186019
H26   H     H_    0.025395 0.493936 0.992376 0.153756
H27   H     H_    0.071724 0.397109 0.953184 0.198402
C35   C     C_3   0.034110 0.629301 0.215390 -0.366876
C36   C     C_3   0.064474 0.710113 0.321022 -0.727843
H28   H     H_    0.007631 0.737842 0.387714 0.211757
H29   H     H_    0.125430 0.698884 0.436171 0.220677
H30   H     H_    0.084905 0.755468 0.216154 0.205604
H31   H     H_    0.093751 0.610468 0.146229 0.186163
H32   H     H_    0.974839 0.639784 0.096530 0.195495

loop_
_geom_bond_atom_site_label_1
_geom_bond_atom_site_label_2
_ccdc_geom_bond_type
C30   H14   S    
C36   H28   S    
C23   C27   D    
C10   C31   S    
C32   H18   S    
O6    V2    S    
H2    C18   S    
O2    V4    S    
C1    C6    S    
C5    C10   A    
C11   C33   S    
C35   H31   S    
C6    C18   A    
C33   H26   S    
C30   H15   S    
C29   H16   S    
O12   C13   A    
H3    C19   S    
O4    C1    A    
C31   H22   S    
C13   C24   S    
C14   C23   S    
O16   V4    S    
O5    C1    A    
O7    C3    A    
C30   H13   S    
O15   V3    S    
C27   C28   S    
O8    C4    A    
V1    O19   S    
C32   H19   S    
C2    C5    S    
C6    C9    A    
C34   H25   S    
C8    C20   A    
C7    C19   A    
O4    V3    S    
V3    O19   S    
C3    C8    S    
V4    O20   S    
O18   C16   A    
C9    C29   S    
C34   H24   S    
C9    C17   A    
C21   C25   D    
C35   C36   S    
C34   H23   S    
C29   H17   S    
C12   C20   A    
O9    C16   A    
O15   C13   A    
H5    C26   S    
C24   C28   D    
O13   V3    S    
O10   C15   A    
O11   C14   A    
O17   C15   A    
C31   H21   S    
C7    C12   A    
H8    C27   S    
O10   V2    S    
O6    C2    A    
C21   H10   S    
C23   H12   S    
C24   H11   S    
O18   V3    S    
O1    C4    A    
O2    C3    A    
O3    C2    A    
H1    C17   S    
C8    C11   A    
O11   V2    S    
C29   C30   S    
C36   H29   S    
O12   V1    S    
C12   C35   S    
H4    C20   S    
C32   H20   S    
C33   H27   S    
C10   C18   A    
C22   C26   D    
O7    V2    S    
O16   C14   A    
O8    V1    S    
O14   V4    S    
C31   C32   S    
C22   H9    S    
O3    V4    S    
O13   V1    S    
C35   H32   S    
O14   V2    S    
H6    C25   S    
O1    V3    S    
C25   C26   S    
V2    O20   S    
C4    C7    S    
C5    C17   A    
O9    V1    S    
C33   C34   S    
C15   C22   S    
C11   C19   A    
C16   C21   S    
C36   H30   S    
H7    C28   S    
O17   V4    S    
O5    V1    S    
