data_mof_unit_3461.cif
_audit_creation_date              2012-12-11T14:52:41-0500
_audit_creation_method            fapswitch 2.2
_symmetry_space_group_name_H-M    P1
_symmetry_Int_Tables_number       1
_space_group_crystal_system       triclinic
_cell_length_a                    18.91575
_cell_length_b                    10.880241
_cell_length_c                    18.827076
_cell_angle_alpha                 89.962017
_cell_angle_beta                  90.774005
_cell_angle_gamma                 90.012457
_cell_volume                      3874.40684132

loop_
_atom_site_label
_atom_site_type_symbol
_atom_type_description
_atom_site_fract_x
_atom_site_fract_y
_atom_site_fract_z
_atom_type_partial_charge
C1    C     C_R   0.272465 0.041791 0.853914 0.545303
C2    C     C_R   0.696395 0.532855 0.036774 -0.117957
C3    C     C_3   0.026272 0.327135 0.065196 0.000012
C4    C     C_2   0.351119 0.831462 0.006124 0.239154
C5    C     C_2   0.648862 0.831465 0.993884 0.239399
C6    C     C_2   0.851119 0.331462 0.006124 0.239154
C7    C     C_2   0.148862 0.331465 0.993884 0.239398
C8    C     C_2   0.453936 0.039993 0.073463 0.258443
C9    C     C_2   0.546094 0.039927 0.926319 0.258933
C10   C     C_2   0.953936 0.539993 0.073463 0.258443
C11   C     C_2   0.046094 0.539927 0.926319 0.258933
C12   C     C_R   0.803626 0.032936 0.963298 -0.118356
C13   C     C_R   0.196395 0.032855 0.036774 -0.117958
C14   C     C_R   0.299227 0.518856 0.036775 -0.128189
C15   C     C_R   0.700804 0.518710 0.963303 -0.128201
C16   C     C_R   0.799227 0.018856 0.036775 -0.128189
C17   C     C_R   0.200803 0.018710 0.963303 -0.128201
C18   C     C_R   0.244833 0.577654 0.073982 0.066355
C19   C     C_R   0.755181 0.577553 0.926033 0.065607
C20   C     C_R   0.744833 0.077654 0.073982 0.066354
C21   C     C_R   0.727541 0.041845 0.146100 0.541740
C22   C     C_R   0.255181 0.077553 0.926033 0.065608
C23   C     C_R   0.196746 0.653113 0.037610 -0.107359
C24   C     C_R   0.803253 0.653099 0.962347 -0.107351
C25   C     C_R   0.696746 0.153113 0.037610 -0.107358
C26   C     C_R   0.303253 0.153099 0.962347 -0.107351
C27   C     C_R   0.200078 0.664562 0.965240 -0.104420
C28   C     C_R   0.799906 0.664627 0.034714 -0.103681
C29   C     C_R   0.700078 0.164562 0.965240 -0.104420
C30   C     C_R   0.299906 0.164627 0.034714 -0.103681
C31   C     C_R   0.253047 0.604373 0.927030 0.075081
C32   C     C_R   0.772465 0.541791 0.853914 0.545304
C33   C     C_R   0.746952 0.604398 0.072983 0.076064
C34   C     C_R   0.753047 0.104373 0.927030 0.075080
C35   C     C_R   0.246952 0.104398 0.072983 0.076066
C36   C     C_R   0.465616 0.725805 0.527748 -0.128347
C37   C     C_R   0.473142 0.729710 0.455199 -0.134959
C38   C     C_R   0.965529 0.225826 0.527725 -0.128313
C39   C     C_R   0.973080 0.229730 0.455177 -0.134910
C40   C     C_R   0.500194 0.835189 0.423308 0.028918
C41   C     C_R   0.482903 0.828631 0.569734 0.030467
C42   C     C_R   0.000171 0.335190 0.423294 0.028908
C43   C     C_R   0.227541 0.541845 0.146100 0.541739
C44   C     C_R   0.982846 0.328629 0.569715 0.030431
C45   C     C_R   0.513814 0.940983 0.464306 -0.139312
C46   C     C_R   0.504820 0.937783 0.537538 -0.147960
C47   C     C_R   0.013792 0.440958 0.464293 -0.139366
C48   C     C_R   0.004775 0.437756 0.537522 -0.148058
C49   C     C_R   0.443245 0.817981 0.863109 0.547416
C50   C     C_R   0.556741 0.818052 0.136889 0.547095
C51   C     C_R   0.943245 0.317981 0.863109 0.547420
C52   C     C_R   0.056741 0.318052 0.136889 0.547093
C53   C     C_R   0.215004 0.698215 0.524672 -0.126405
C54   C     C_3   0.522483 0.725976 0.965944 -0.122018
C55   C     C_R   0.817113 0.586816 0.455421 -0.134051
C56   C     C_R   0.715078 0.198324 0.524657 -0.126406
C57   C     C_R   0.317119 0.086983 0.455438 -0.134011
C58   C     C_R   0.213543 0.685866 0.452281 -0.136108
C59   C     C_R   0.823457 0.580294 0.527868 -0.127939
C60   C     C_R   0.713606 0.185932 0.452267 -0.136121
C61   C     C_R   0.323443 0.080513 0.527887 -0.127940
C62   C     C_R   0.252050 0.591475 0.421413 0.033141
C63   C     C_R   0.763143 0.562647 0.569383 0.037876
C64   C     C_R   0.752054 0.091447 0.421418 0.033128
C65   C     C_3   0.477472 0.726018 0.034165 -0.122331
C66   C     C_R   0.263136 0.062669 0.569380 0.037885
C67   C     C_R   0.299124 0.519463 0.462288 -0.137828
C68   C     C_R   0.696960 0.543994 0.537687 -0.148148
C69   C     C_R   0.799076 0.019351 0.462308 -0.137848
C70   C     C_R   0.196986 0.043800 0.537656 -0.148066
C71   C     C_R   0.301157 0.532822 0.535193 -0.148790
C72   C     C_R   0.690368 0.552425 0.464737 -0.141130
C73   C     C_R   0.801111 0.032732 0.535210 -0.148846
C74   C     C_R   0.190412 0.052205 0.464703 -0.141105
C75   C     C_R   0.256779 0.618726 0.566591 0.037391
C76   C     C_3   0.022483 0.225976 0.965944 -0.122017
C77   C     C_R   0.750125 0.580211 0.424120 0.032223
C78   C     C_R   0.756788 0.118748 0.566590 0.037377
C79   C     C_R   0.250152 0.080178 0.424109 0.032239
C80   C     C_R   0.261402 0.639124 0.852911 0.570938
C81   C     C_R   0.738594 0.639156 0.147087 0.567276
C82   C     C_R   0.761402 0.139124 0.852911 0.570939
C83   C     C_R   0.238594 0.139156 0.147087 0.567272
C84   C     C_R   0.273693 0.041049 0.643775 0.554542
C85   C     C_R   0.729589 0.047675 0.352913 0.555755
C86   C     C_R   0.773697 0.541040 0.643775 0.554528
C87   C     C_3   0.977472 0.226018 0.034165 -0.122332
C88   C     C_R   0.229590 0.547682 0.352910 0.555762
C89   C     C_R   0.466586 0.823012 0.644815 0.566042
C90   C     C_R   0.529294 0.824255 0.352655 0.567763
C91   C     C_R   0.966568 0.323010 0.644805 0.566034
C92   C     C_R   0.029291 0.324255 0.352652 0.567778
C93   C     C_R   0.261609 0.642964 0.641312 0.561116
C94   C     C_R   0.740251 0.633859 0.355185 0.561875
C95   C     C_R   0.761611 0.142970 0.641311 0.561098
C96   C     C_R   0.240257 0.133847 0.355179 0.561892
C97   C     C_3   0.478130 0.928263 0.034175 -0.011309
C98   C     C_R   0.303626 0.532936 0.963298 -0.118357
C99   C     C_3   0.521870 0.928224 0.965715 -0.011600
C100  C     C_3   0.978130 0.428263 0.034175 -0.011309
C101  C     C_3   0.021870 0.428224 0.965715 -0.011600
C102  C     C_3   0.429761 0.827862 0.002661 -0.012285
C103  C     C_3   0.570217 0.827859 0.997337 -0.012009
C104  C     C_3   0.929761 0.327862 0.002661 -0.012286
C105  C     C_3   0.070217 0.327859 0.997337 -0.012009
C106  C     C_3   0.473706 0.827049 0.934803 -0.000720
C107  C     C_3   0.526272 0.827135 0.065196 0.000011
C108  C     C_3   0.973707 0.327049 0.934803 -0.000722
Cr1   Cr    Cr6+3 0.229630 0.835900 0.747350 1.030319
Cr2   Cr    Cr6+3 0.614200 0.677120 0.250660 1.019393
Cr3   Cr    Cr6+3 0.885800 0.177120 0.749340 1.022175
Cr4   Cr    Cr6+3 0.114200 0.177120 0.250660 1.019404
Cr5   Cr    Cr6+3 0.770370 0.835900 0.252650 1.028022
Cr6   Cr    Cr6+3 0.729630 0.335900 0.747350 1.030306
Cr7   Cr    Cr6+3 0.270370 0.335900 0.252650 1.028025
Cr8   Cr    Cr6+3 0.387410 0.989850 0.750850 1.045800
Cr9   Cr    Cr6+3 0.612590 0.989850 0.249150 1.044162
Cr10  Cr    Cr6+3 0.887410 0.489850 0.750850 1.045794
Cr11  Cr    Cr6+3 0.112590 0.489850 0.249150 1.044154
Cr12  Cr    Cr6+3 0.385800 0.677120 0.749340 1.022169
H1    H     H_    0.183112 0.770305 0.547612 0.141524
H2    H     H_    0.650707 0.525070 0.569226 0.124841
H3    H     H_    0.830021 0.946432 0.438906 0.138909
H4    H     H_    0.150744 0.024712 0.569175 0.124835
H5    H     H_    0.335894 0.474933 0.566909 0.123761
H6    H     H_    0.637986 0.546306 0.441006 0.138371
H7    H     H_    0.835798 0.974769 0.566940 0.123787
H8    H     H_    0.138048 0.045908 0.440948 0.138300
H9    H     H_    0.541602 0.642797 0.937965 0.146055
H10   H     H_    0.458324 0.642871 0.062234 0.145614
H11   H     H_    0.041602 0.142797 0.937965 0.146056
H12   H     H_    0.863761 0.606002 0.424466 0.134077
H13   H     H_    0.958324 0.142871 0.062234 0.145614
H14   H     H_    0.346273 0.488963 0.935142 0.120331
H15   H     H_    0.653758 0.488837 0.064971 0.119969
H16   H     H_    0.846273 0.988963 0.935142 0.120331
H17   H     H_    0.153758 0.988837 0.064971 0.119969
H18   H     H_    0.336681 0.459410 0.063942 0.114900
H19   H     H_    0.663366 0.459192 0.936193 0.114940
H20   H     H_    0.836681 0.959410 0.063942 0.114900
H21   H     H_    0.163366 0.959192 0.936193 0.114940
H22   H     H_    0.154410 0.700310 0.064576 0.126660
H23   H     H_    0.683242 0.270502 0.547587 0.141568
H24   H     H_    0.845581 0.700333 0.935338 0.126934
H25   H     H_    0.654410 0.200310 0.064576 0.126660
H26   H     H_    0.345581 0.200332 0.935338 0.126933
H27   H     H_    0.161710 0.724402 0.939713 0.133994
H28   H     H_    0.838251 0.724543 0.060191 0.134085
H29   H     H_    0.661710 0.224402 0.939713 0.133993
H30   H     H_    0.338251 0.224543 0.060191 0.134085
H31   H     H_    0.445555 0.641692 0.550763 0.138308
H32   H     H_    0.461610 0.647589 0.424597 0.130349
H33   H     H_    0.945438 0.141735 0.550737 0.138333
H34   H     H_    0.363761 0.106309 0.424505 0.134084
H35   H     H_    0.961537 0.147627 0.424571 0.130366
H36   H     H_    0.535087 0.023554 0.440547 0.136774
H37   H     H_    0.515997 0.019074 0.568915 0.125591
H38   H     H_    0.035084 0.523509 0.440536 0.136793
H39   H     H_    0.015943 0.519024 0.568897 0.125611
H40   H     H_    0.319733 0.835354 0.957658 0.069753
H41   H     H_    0.680241 0.835441 0.042349 0.070311
H42   H     H_    0.819733 0.335354 0.957658 0.069752
H43   H     H_    0.180241 0.335441 0.042349 0.070311
H44   H     H_    0.466691 0.131011 0.054049 0.042635
H45   H     H_    0.178250 0.743801 0.421168 0.130505
H46   H     H_    0.533290 0.130953 0.945595 0.042474
H47   H     H_    0.966692 0.631011 0.054049 0.042635
H48   H     H_    0.033290 0.630953 0.945595 0.042474
H49   H     H_    0.875906 0.588421 0.551181 0.139750
H50   H     H_    0.678356 0.243925 0.421138 0.130513
H51   H     H_    0.375875 0.088824 0.551215 0.139738
H52   H     H_    0.330117 0.446628 0.438870 0.138837
O1    O     O_R   0.214270 0.709000 0.827470 -0.499036
O2    O     O_R   0.543270 0.717630 0.330160 -0.520597
O3    O     O_R   0.956730 0.217630 0.669840 -0.520460
O4    O     O_R   0.043270 0.217630 0.330160 -0.520565
O5    O     O_R   0.320620 0.625640 0.672920 -0.507759
O6    O     O_R   0.679380 0.625640 0.327080 -0.508020
O7    O     O_R   0.820620 0.125640 0.672920 -0.507772
O8    O     O_R   0.179380 0.125640 0.327080 -0.508000
O9    O     O_3   0.334280 0.834290 0.749180 -0.285953
O10   O     O_3   0.665720 0.834290 0.250820 -0.278175
O11   O     O_3   0.834280 0.334290 0.749180 -0.285973
O12   O     O_R   0.785730 0.709000 0.172530 -0.501696
O13   O     O_3   0.165720 0.334290 0.250820 -0.278167
O14   O     O_R   0.236160 0.958490 0.823130 -0.514481
O15   O     O_R   0.763840 0.958490 0.176870 -0.516708
O16   O     O_R   0.736160 0.458490 0.823130 -0.514480
O17   O     O_R   0.263840 0.458490 0.176870 -0.516711
O18   O     O_R   0.332080 0.075470 0.831280 -0.533018
O19   O     O_R   0.667920 0.075470 0.168720 -0.535528
O20   O     O_R   0.832080 0.575470 0.831280 -0.533014
O21   O     O_R   0.167920 0.575470 0.168720 -0.535529
O22   O     O_R   0.446300 0.918110 0.826620 -0.459982
O23   O     O_R   0.714270 0.209000 0.827470 -0.499034
O24   O     O_R   0.553700 0.918110 0.173380 -0.462091
O25   O     O_R   0.946300 0.418110 0.826620 -0.459972
O26   O     O_R   0.053700 0.418110 0.173380 -0.462095
O27   O     O_R   0.457110 0.716200 0.831760 -0.507357
O28   O     O_R   0.542890 0.716200 0.168240 -0.510315
O29   O     O_R   0.957110 0.216200 0.831760 -0.507349
O30   O     O_R   0.042890 0.216200 0.168240 -0.510321
O31   O     O_R   0.320980 0.624310 0.823030 -0.528121
O32   O     O_R   0.679020 0.624310 0.176970 -0.530548
O33   O     O_R   0.820980 0.124310 0.823030 -0.528119
O34   O     O_R   0.285730 0.209000 0.172530 -0.501699
O35   O     O_R   0.179020 0.124310 0.176970 -0.530554
O36   O     O_R   0.213890 0.710430 0.665540 -0.517341
O37   O     O_R   0.786110 0.710430 0.334460 -0.515346
O38   O     O_R   0.713890 0.210430 0.665540 -0.517327
O39   O     O_R   0.286110 0.210430 0.334460 -0.515360
O40   O     O_R   0.235810 0.959820 0.673020 -0.506116
O41   O     O_R   0.764190 0.959820 0.326980 -0.505377
O42   O     O_R   0.735810 0.459820 0.673020 -0.506131
O43   O     O_R   0.264190 0.459820 0.326980 -0.505357
O44   O     O_R   0.331700 0.076900 0.669350 -0.525308
O45   O     O_R   0.445950 0.919440 0.676520 -0.494601
O46   O     O_R   0.668300 0.076900 0.330650 -0.523679
O47   O     O_R   0.831700 0.576900 0.669350 -0.525300
O48   O     O_R   0.168300 0.576900 0.330650 -0.523701
O49   O     O_2   0.322198 0.832118 0.063617 -0.468437
O50   O     O_2   0.677794 0.832033 0.936395 -0.466793
O51   O     O_2   0.822198 0.332118 0.063617 -0.468437
O52   O     O_2   0.177794 0.332033 0.936395 -0.466791
O53   O     O_2   0.419941 0.029019 0.127720 -0.437632
O54   O     O_2   0.580155 0.028920 0.872119 -0.434424
O55   O     O_2   0.919941 0.529019 0.127720 -0.437634
O56   O     O_R   0.554050 0.919440 0.323480 -0.493481
O57   O     O_2   0.080155 0.528920 0.872119 -0.434418
O58   O     O_R   0.945950 0.419440 0.676520 -0.494628
O59   O     O_R   0.054050 0.419440 0.323480 -0.493496
O60   O     O_R   0.456730 0.717630 0.669840 -0.520496

loop_
_geom_bond_atom_site_label_1
_geom_bond_atom_site_label_2
_ccdc_geom_bond_type
C50   C107  S    
C58   C62   A    
C99   C103  S    
C5    C103  S    
Cr9   O56   S    
C76   C105  S    
C88   O43   A    
C55   C59   A    
Cr11  O26   S    
C88   O48   A    
C57   C79   A    
C41   C89   S    
Cr5   O12   S    
Cr5   O41   S    
Cr8   O44   S    
Cr12  O60   S    
C86   O42   A    
C65   H10   S    
C27   H27   S    
C56   C78   A    
C31   C80   S    
C54   C65   S    
C53   C75   A    
C45   C46   A    
C92   O4    A    
C15   C19   A    
C62   C67   A    
Cr3   O3    S    
C90   O56   A    
C9    H46   S    
C89   O45   A    
Cr10  O58   S    
C80   O1    A    
C13   C35   A    
C37   C40   A    
C38   C39   A    
C55   C77   A    
C76   H11   S    
Cr1   O1    S    
C30   H30   S    
C80   O31   A    
C20   C25   A    
C69   H3    S    
Cr6   O11   S    
Cr5   O15   S    
Cr10  O11   S    
C77   C94   S    
C100  C104  S    
Cr12  O27   S    
Cr6   O16   S    
C32   O20   A    
Cr2   O32   S    
C94   O6    A    
C31   C98   A    
C26   H26   S    
C58   H45   S    
Cr6   O42   S    
C83   O35   A    
C86   O47   A    
C51   O25   A    
C56   H23   S    
Cr10  O20   S    
C3    C100  S    
C74   H8    S    
C14   H18   S    
C57   H34   S    
C10   H47   S    
C4    C102  S    
C70   C74   A    
C12   H16   S    
C41   C46   A    
C7    C105  S    
C23   H22   S    
C14   C98   A    
C9    O54   D    
C61   H51   S    
C6    C104  S    
C81   O32   A    
Cr1   O40   S    
Cr9   O19   S    
Cr12  O9    S    
Cr3   O33   S    
C42   C92   S    
C97   C102  S    
C68   C72   A    
Cr4   O8    S    
Cr8   O22   S    
C1    O18   A    
C101  C108  S    
C5    O50   D    
C1    C22   S    
C11   O57   D    
C96   O39   A    
C6    H42   S    
C25   C29   A    
Cr3   O29   S    
C36   C41   A    
C16   H20   S    
C50   O24   A    
C65   C102  S    
C19   C32   S    
C61   C66   A    
C97   C99   S    
C52   O30   A    
C60   C64   A    
C21   O15   A    
C39   C42   A    
C15   H19   S    
Cr2   O2    S    
C101  C105  S    
C40   C45   A    
C48   H39   S    
C35   C83   S    
C28   H28   S    
Cr6   O23   S    
C54   C106  S    
C91   O58   A    
C3    C87   S    
C18   C23   A    
C12   C16   A    
C54   C103  S    
Cr3   O7    S    
C8    H44   S    
C68   H2    S    
Cr4   O13   S    
C93   O5    A    
Cr9   O10   S    
C51   C108  S    
C92   O59   A    
C73   H7    S    
C73   C78   A    
C7    H43   S    
C29   C34   A    
C3    C105  S    
Cr4   O30   S    
C56   C60   A    
C2    H15   S    
C72   H6    S    
Cr11  O21   S    
C13   H17   S    
Cr1   O36   S    
C10   C100  S    
C8    C97   S    
Cr11  O13   S    
C38   C44   A    
C72   C77   A    
C87   H13   S    
C85   O41   A    
Cr5   O10   S    
C47   C48   A    
C78   C95   S    
C16   C20   A    
Cr8   O9    S    
Cr3   O11   S    
Cr7   O43   S    
Cr9   O46   S    
C11   C101  S    
C45   H36   S    
C64   C69   A    
C96   O8    A    
C69   C73   A    
C2    C15   A    
C76   C87   S    
C43   O17   A    
C82   O23   A    
C44   C91   S    
C53   C58   A    
C30   C35   A    
C2    C33   A    
C95   O7    A    
Cr4   O4    S    
Cr10  O25   S    
C28   C33   A    
C26   C30   A    
C23   C27   A    
C74   C79   A    
C27   C31   A    
C22   C26   A    
Cr11  O48   S    
Cr1   O14   S    
C52   O26   A    
C37   H32   S    
C12   C34   A    
C85   O46   A    
C64   C85   S    
C104  C108  S    
C75   C93   S    
C6    O51   D    
C49   O27   A    
Cr1   O9    S    
C91   O3    A    
C99   C106  S    
Cr8   O18   S    
C63   C68   A    
C36   C37   A    
C50   O28   A    
C95   O38   A    
C14   C18   A    
C54   H9    S    
C24   C28   A    
Cr4   O35   S    
C4    H40   S    
C103  C107  S    
C8    O53   D    
C84   O40   A    
C36   H31   S    
C57   C61   A    
C49   C106  S    
C84   O44   A    
Cr7   O17   S    
Cr11  O59   S    
C67   H52   S    
C83   O34   A    
C10   O55   D    
C98   H14   S    
C39   H35   S    
C59   C63   A    
C17   C22   A    
C38   H33   S    
Cr2   O28   S    
C13   C17   A    
C43   O21   A    
Cr7   O39   S    
Cr6   O38   S    
C19   C24   A    
C60   H50   S    
C79   C96   S    
C63   C86   S    
Cr9   O24   S    
C53   H1    S    
C18   C43   S    
C3    C52   S    
C71   C75   A    
C7    O52   D    
C46   H37   S    
C1    O14   A    
C4    O49   D    
C66   C70   A    
C62   C88   S    
C24   H24   S    
Cr7   O13   S    
C32   O16   A    
C100  C101  S    
C76   C108  S    
C102  C106  S    
C67   C71   A    
C42   C47   A    
C89   O60   A    
C17   H21   S    
C29   H29   S    
C21   O19   A    
C90   O2    A    
C66   C84   S    
C87   C104  S    
C97   C107  S    
C70   H4    S    
C11   H48   S    
C20   C21   S    
Cr2   O10   S    
C94   O37   A    
C9    C99   S    
C55   H12   S    
C49   O22   A    
Cr7   O34   S    
C51   O29   A    
Cr10  O47   S    
Cr12  O31   S    
Cr2   O6    S    
C71   H5    S    
C25   H25   S    
C34   C82   S    
C81   O12   A    
C40   C90   S    
Cr8   O45   S    
C59   H49   S    
C93   O36   A    
C33   C81   S    
C65   C107  S    
C82   O33   A    
Cr12  O5    S    
C44   C48   A    
C5    H41   S    
Cr5   O37   S    
C47   H38   S    
