data_mof_unit_1107.cif
_audit_creation_date              2012-12-10T20:41:46-0500
_audit_creation_method            fapswitch 2.2
_symmetry_space_group_name_H-M    P1
_symmetry_Int_Tables_number       1
_space_group_crystal_system       triclinic
_cell_length_a                    15.060788
_cell_length_b                    15.174535
_cell_length_c                    9.870902
_cell_angle_alpha                 90.296734
_cell_angle_beta                  89.126902
_cell_angle_gamma                 90.05243
_cell_volume                      2255.60747569

loop_
_atom_site_label
_atom_site_type_symbol
_atom_type_description
_atom_site_fract_x
_atom_site_fract_y
_atom_site_fract_z
_atom_type_partial_charge
C1    C     C_R   0.382074 0.877801 0.500174 0.882190
C2    C     C_R   0.382230 0.122512 0.500465 0.882087
C3    C     C_R   0.882074 0.377800 0.500175 0.882190
C4    C     C_R   0.882231 0.622512 0.500465 0.882088
C5    C     C_3   0.269834 0.206785 0.751020 -0.509232
C6    C     C_3   0.255407 0.811543 0.742056 -0.500476
C7    C     C_3   0.769838 0.706791 0.751021 -0.509237
C8    C     C_3   0.755373 0.311579 0.742033 -0.500487
C9    C     C_R   0.428295 0.969048 0.073224 0.218478
C10   C     C_R   0.928293 0.469052 0.073224 0.218482
C11   C     C_R   0.574044 0.022078 0.070330 -0.141316
C12   C     C_R   0.074046 0.522072 0.070329 -0.141320
C13   C     C_R   0.574108 0.021873 0.926412 -0.142211
C14   C     C_R   0.074110 0.521867 0.926412 -0.142207
C15   C     C_R   0.427993 0.969513 0.930558 0.219354
C16   C     C_R   0.927991 0.469518 0.930558 0.219356
C17   C     C_3   0.336903 0.007922 0.931492 -0.539207
C18   C     C_3   0.836904 0.507933 0.931492 -0.539214
C19   C     C_3   0.336728 0.004649 0.084624 -0.499699
C20   C     C_3   0.836728 0.504659 0.084624 -0.499698
C21   C     C_R   0.622396 0.117597 0.499499 0.875167
C22   C     C_R   0.622594 0.882645 0.499003 0.874322
C23   C     C_R   0.122397 0.617596 0.499499 0.875168
C24   C     C_R   0.122594 0.382644 0.499003 0.874320
C25   C     C_R   0.303582 0.242277 0.619201 0.132900
C26   C     C_R   0.296356 0.766435 0.621773 0.138223
C27   C     C_R   0.803585 0.742280 0.619199 0.132901
C28   C     C_R   0.796337 0.266454 0.621779 0.138229
C29   C     C_R   0.327849 0.199540 0.499069 -0.107068
C30   C     C_R   0.327096 0.801480 0.499827 -0.106490
C31   C     C_R   0.827849 0.699541 0.499068 -0.107067
C32   C     C_R   0.827096 0.301480 0.499832 -0.106489
C33   C     C_R   0.301531 0.235082 0.374634 -0.222796
C34   C     C_R   0.306105 0.759744 0.377078 -0.227060
C35   C     C_R   0.801531 0.735081 0.374634 -0.222796
C36   C     C_R   0.806122 0.259727 0.377090 -0.227062
C37   C     C_R   0.737106 0.799980 0.373510 -0.228969
C38   C     C_R   0.741581 0.194763 0.376676 -0.228059
C39   C     C_R   0.237107 0.299981 0.373510 -0.228968
C40   C     C_R   0.241565 0.694778 0.376665 -0.228062
C41   C     C_R   0.699827 0.828828 0.496838 -0.103691
C42   C     C_R   0.698949 0.172372 0.499007 -0.101047
C43   C     C_R   0.199827 0.328827 0.496839 -0.103690
C44   C     C_R   0.198952 0.672369 0.499004 -0.101047
C45   C     C_R   0.739883 0.806364 0.617894 0.132861
C46   C     C_R   0.732830 0.202153 0.621418 0.127954
C47   C     C_R   0.239880 0.306362 0.617896 0.132860
C48   C     C_R   0.232852 0.702131 0.621413 0.127952
C49   C     C_3   0.699434 0.777766 0.749401 -0.464130
C50   C     C_3   0.685450 0.239940 0.742447 -0.473757
C51   C     C_3   0.199429 0.277761 0.749400 -0.464129
C52   C     C_3   0.185491 0.739898 0.742476 -0.473755
H1    H     H_    0.325030 0.208566 0.278571 0.167195
H2    H     H_    0.334243 0.781293 0.281150 0.169143
H3    H     H_    0.825028 0.708564 0.278571 0.167194
H4    H     H_    0.834277 0.281262 0.281164 0.169143
H5    H     H_    0.333988 0.070873 0.133050 0.215704
H6    H     H_    0.289407 0.955488 0.127400 0.200562
H7    H     H_    0.833991 0.570882 0.133050 0.215702
H8    H     H_    0.789404 0.455500 0.127399 0.200567
H9    H     H_    0.711998 0.821801 0.277048 0.172307
H10   H     H_    0.720914 0.167367 0.280608 0.163825
H11   H     H_    0.212000 0.321803 0.277048 0.172306
H12   H     H_    0.220884 0.667398 0.280594 0.163832
H13   H     H_    0.707454 0.828157 0.830484 0.202103
H14   H     H_    0.689124 0.196118 0.832037 0.196019
H15   H     H_    0.207449 0.328150 0.830486 0.202102
H16   H     H_    0.189187 0.696063 0.832049 0.196007
H17   H     H_    0.318378 0.217180 0.833251 0.201058
H18   H     H_    0.299084 0.809220 0.831742 0.203412
H19   H     H_    0.818384 0.717188 0.833250 0.201058
H20   H     H_    0.799034 0.309261 0.831737 0.203411
H21   H     H_    0.241795 0.139269 0.741092 0.205533
H22   H     H_    0.228200 0.877407 0.716604 0.198023
H23   H     H_    0.741800 0.639275 0.741098 0.205535
H24   H     H_    0.728177 0.377443 0.716556 0.198025
H25   H     H_    0.633399 0.041379 0.123215 0.141316
H26   H     H_    0.133403 0.541369 0.123215 0.141316
H27   H     H_    0.633598 0.040625 0.871035 0.145039
H28   H     H_    0.133602 0.540613 0.871035 0.145035
H29   H     H_    0.337741 0.075782 0.892718 0.217229
H30   H     H_    0.286506 0.964203 0.886421 0.200493
H31   H     H_    0.837748 0.575792 0.892720 0.217231
H32   H     H_    0.786504 0.464218 0.886419 0.200495
N1    N     N_R   0.499140 0.000000 0.142800 -0.106107
N2    N     N_R   0.999140 0.500000 0.142800 -0.106107
N3    N     N_R   0.499160 0.000000 0.857150 -0.104509
N4    N     N_R   0.999160 0.500000 0.857150 -0.104509
O1    O     O_R   0.408400 0.908380 0.614690 -0.614605
O2    O     O_R   0.408400 0.091620 0.614690 -0.613949
O3    O     O_R   0.908400 0.408380 0.614690 -0.614604
O4    O     O_R   0.908400 0.591620 0.614690 -0.613949
O5    O     O_R   0.408370 0.908370 0.385350 -0.622172
O6    O     O_R   0.408370 0.091630 0.385350 -0.623191
O7    O     O_R   0.908370 0.408370 0.385350 -0.622170
O8    O     O_R   0.908370 0.591630 0.385350 -0.623191
O9    O     O_R   0.591610 0.091610 0.614650 -0.623606
O10   O     O_R   0.591610 0.908390 0.614650 -0.620323
O11   O     O_R   0.091610 0.591610 0.614650 -0.623606
O12   O     O_R   0.091610 0.408390 0.614650 -0.620323
O13   O     O_R   0.591590 0.091600 0.385310 -0.627893
O14   O     O_R   0.591590 0.908400 0.385310 -0.624746
O15   O     O_R   0.091590 0.591600 0.385310 -0.627894
O16   O     O_R   0.091590 0.408400 0.385310 -0.624747
Zn1   Zn    Zn3+2 0.500010 0.000000 0.653130 0.940364
Zn2   Zn    Zn3+2 0.000010 0.500000 0.653130 0.940364
Zn3   Zn    Zn3+2 0.499980 0.000000 0.346870 0.938460
Zn4   Zn    Zn3+2 0.999980 0.500000 0.346870 0.938460
H33   H     H_    0.631010 0.751216 0.738718 0.207902
H34   H     H_    0.617849 0.264528 0.719114 0.207087
H35   H     H_    0.131005 0.251211 0.738714 0.207901
H36   H     H_    0.117882 0.764484 0.719183 0.207096

loop_
_geom_bond_atom_site_label_1
_geom_bond_atom_site_label_2
_ccdc_geom_bond_type
O13   Zn3   S    
C23   O11   A    
C13   H27   S    
C6    H18   S    
C22   O10   A    
C2    O6    A    
C50   H34   S    
C7    C27   S    
C19   H5    S    
C28   C46   A    
C33   C39   A    
O10   Zn1   S    
C49   H13   S    
C2    C29   S    
C34   C40   A    
C32   C36   A    
C49   H33   S    
C35   C37   A    
C38   C42   A    
C7    H19   S    
C22   C41   S    
C52   H36   S    
C29   C33   A    
C8    H24   S    
N4    Zn2   S    
C3    O3    A    
C17   H30   S    
C42   C46   A    
C2    O2    A    
C5    H17   S    
C11   H25   S    
C9    N1    A    
C4    O8    A    
C9    C19   S    
C23   O15   A    
C10   C20   S    
C12   H26   S    
C18   H32   S    
O15   Zn4   S    
C14   H28   S    
C20   H8    S    
C25   C47   A    
C40   C44   A    
C17   H29   S    
C52   H16   S    
C26   C48   A    
O9    Zn1   S    
C27   C45   A    
O8    Zn4   S    
C25   C29   A    
O3    Zn2   S    
C6    H22   S    
C19   H6    S    
C33   H1    S    
C1    O1    A    
O6    Zn3   S    
C8    H20   S    
C30   C34   A    
C35   H3    S    
C28   C32   A    
C7    C49   S    
C7    H23   S    
C27   C31   A    
C23   C44   S    
C24   O16   A    
C36   H4    S    
C21   O9    A    
C37   H9    S    
N3    Zn1   S    
C45   C49   S    
C13   N3    A    
C18   H31   S    
O14   Zn3   S    
C16   C18   S    
C51   H15   S    
C20   H7    S    
C50   H14   S    
C5    C25   S    
O4    Zn2   S    
C12   C14   A    
C34   H2    S    
C4    O4    A    
C8    C28   S    
C31   C35   A    
C8    C50   S    
O16   Zn4   S    
C15   N3    A    
C15   C17   S    
O11   Zn2   S    
C10   N2    A    
C51   H35   S    
C24   O12   A    
C5    H21   S    
N2    Zn4   S    
O2    Zn1   S    
C22   O14   A    
C47   C51   S    
C26   C30   A    
C39   H11   S    
C46   C50   S    
O12   Zn2   S    
C40   H12   S    
C12   N2    A    
C36   C38   A    
C9    C15   A    
C14   N4    A    
C21   O13   A    
C10   C16   A    
O5    Zn3   S    
C11   C13   A    
C6    C26   S    
C11   N1    A    
C1    C30   S    
C17   C19   S    
C18   C20   S    
C37   C41   A    
C3    C32   S    
C4    C31   S    
O7    Zn4   S    
C21   C42   S    
C48   C52   S    
C39   C43   A    
C1    O5    A    
O1    Zn1   S    
C16   N4    A    
C24   C43   S    
C41   C45   A    
C5    C51   S    
C3    O7    A    
C6    C52   S    
N1    Zn3   S    
C43   C47   A    
C44   C48   A    
C38   H10   S    
