data_mof_unit_4693.cif
_audit_creation_date              2012-12-11T15:59:48-0500
_audit_creation_method            fapswitch 2.2
_symmetry_space_group_name_H-M    P1
_symmetry_Int_Tables_number       1
_space_group_crystal_system       triclinic
_cell_length_a                    10.752
_cell_length_b                    10.705164
_cell_length_c                    16.9997
_cell_angle_alpha                 98.914673
_cell_angle_beta                  99.530385
_cell_angle_gamma                 60.849724
_cell_volume                      1679.00205609

loop_
_atom_site_label
_atom_site_type_symbol
_atom_type_description
_atom_site_fract_x
_atom_site_fract_y
_atom_site_fract_z
_atom_type_partial_charge
C1    C     C_R   0.377080 0.719941 0.388073 0.570921
C2    C     C_R   0.874930 0.322476 0.341674 0.007880
C3    C     C_R   0.362316 0.797512 0.150893 0.003292
C4    C     C_R   0.369163 0.346507 0.357650 0.582624
C5    C     C_R   0.455624 0.826200 0.210664 0.007886
C6    C     C_R   0.434679 0.834775 0.291221 0.026860
C7    C     C_R   0.297399 0.705081 0.247857 -0.158243
C8    C     C_R   0.292727 0.726334 0.169268 -0.149149
C9    C     C_R   0.563278 0.853373 0.192912 -0.088245
C10   C     C_R   0.635349 0.904740 0.253296 -0.154943
C11   C     C_R   0.594912 0.938664 0.330581 -0.093979
C12   C     C_R   0.936048 0.167917 0.217952 0.025784
C13   C     C_R   0.487815 0.913003 0.348857 0.113422
C14   C     C_R   0.361859 0.764383 0.309402 0.020954
C15   C     C_R   0.353756 0.358562 0.838789 -0.001529
C16   C     C_R   0.784203 0.373598 0.407339 0.539152
C17   C     C_R   0.493797 0.274758 0.814311 0.018306
C18   C     C_R   0.515232 0.269141 0.733778 0.016879
C19   C     C_R   0.280692 0.481200 0.718278 -0.143761
C20   C     C_R   0.252151 0.474008 0.794046 -0.035931
C21   C     C_R   0.610739 0.188012 0.867482 -0.075591
C22   C     C_R   0.734131 0.075782 0.838799 -0.088097
C23   C     C_R   0.915812 0.186496 0.300265 0.031214
C24   C     C_R   0.751870 0.060113 0.758454 -0.129686
C25   C     C_R   0.647186 0.158359 0.707147 -0.097512
C26   C     C_R   0.403405 0.373228 0.684342 -0.016896
C27   C     C_1   0.818281 0.341301 0.708811 -0.063436
C28   C     C_R   0.358082 0.769237 0.627306 0.562972
C29   C     C_1   0.844764 0.314688 0.777005 -0.047018
C30   C     C_1   0.339127 0.810287 0.709393 -0.045135
C31   C     C_1   0.313326 0.838288 0.777582 -0.044191
C32   C     C_R   0.960885 0.279883 0.100070 0.568576
C33   C     C_R   0.319193 0.299591 0.119976 0.542434
C34   C     C_R   0.897714 0.422951 0.311156 -0.138872
C35   C     C_R   0.299994 0.882334 0.081738 0.542216
C36   C     C_R   0.885557 0.298221 0.859303 0.570312
C37   C     C_R   0.311981 0.299359 0.897294 0.538848
C38   C     C_R   0.278993 0.884971 0.857354 0.550188
C39   C     C_R   0.413171 0.378095 0.599418 0.571318
C40   C     C_R   0.774277 0.379728 0.629453 0.540232
C41   C     C_1   0.342219 0.336463 0.274226 -0.043161
C42   C     C_1   0.331539 0.325953 0.203298 -0.042422
C43   C     C_R   0.939302 0.281895 0.183978 -0.001544
C44   C     C_3   0.111375 0.589893 0.822513 -0.249243
C45   C     C_R   0.932343 0.401319 0.234230 -0.156882
C46   C     C_3   0.986993 0.565608 0.779266 -0.274153
C47   C     C_3   0.845454 0.672736 0.812123 -0.414682
C48   C     C_R   0.949181 0.037653 0.175033 -0.087961
C49   C     C_R   0.960251 0.926587 0.213890 -0.143301
C50   C     C_R   0.958745 0.940643 0.296168 -0.114737
C51   C     C_R   0.934858 0.070078 0.339149 -0.067678
Cr1   Cr    Cr6+3 0.608100 0.610860 0.522250 1.032602
Cr2   Cr    Cr6+3 0.288890 0.599990 0.488420 1.007711
Cr3   Cr    Cr6+3 0.603040 0.289190 0.489390 0.992841
Cr4   Cr    Cr6+3 0.053960 0.052250 0.967380 0.971697
Cr5   Cr    Cr6+3 0.059890 0.373160 0.992710 0.984196
Cr6   Cr    Cr6+3 0.373370 0.061690 0.991710 1.004483
H1    H     H_    0.878095 0.524651 0.344395 0.147387
H2    H     H_    0.944890 0.484290 0.212697 0.139013
H3    H     H_    0.971873 0.827870 0.179859 0.099093
H4    H     H_    0.971842 0.852406 0.326350 0.119904
H5    H     H_    0.934195 0.077505 0.403296 0.135566
H6    H     H_    0.245345 0.646896 0.260955 0.125633
H7    H     H_    0.595024 0.831657 0.133068 0.138442
H8    H     H_    0.227107 0.695633 0.123565 0.127637
H9    H     H_    0.816071 0.782780 0.799682 0.141640
H10   H     H_    0.759442 0.647203 0.782513 0.170763
H11   H     H_    0.853518 0.668283 0.877706 0.161293
H12   H     H_    0.716083 0.926728 0.238758 0.128520
H13   H     H_    0.976422 0.576730 0.714221 0.166497
H14   H     H_    0.009736 0.454971 0.786044 0.204602
H15   H     H_    0.113456 0.596665 0.888422 0.162714
H16   H     H_    0.094126 0.696084 0.809377 0.150967
H17   H     H_    0.643444 0.989563 0.375491 0.151780
H18   H     H_    0.201047 0.568496 0.683762 0.146322
H19   H     H_    0.604912 0.202997 0.931509 0.129476
H20   H     H_    0.818381 0.003765 0.879571 0.119470
H21   H     H_    0.850341 0.975470 0.736470 0.117331
H22   H     H_    0.676473 0.142872 0.647917 0.173268
H23   H     H_    0.948508 0.015761 0.111638 0.173761
I1    I     I_    0.378024 0.039221 0.449864 -0.280848
O1    O     O_R   0.749810 0.499790 0.438040 -0.521076
O2    O     O_R   0.411730 0.181020 0.091530 -0.511043
O3    O     O_R   0.365010 0.944360 0.063320 -0.507812
O4    O     O_R   0.477660 0.726260 0.439290 -0.471124
O5    O     O_R   0.159380 0.906670 0.876210 -0.533145
O6    O     O_R   0.930820 0.177420 0.886730 -0.490882
O7    O     O_R   0.910360 0.395420 0.895720 -0.524052
O8    O     O_R   0.186010 0.361730 0.919870 -0.507421
O9    O     O_R   0.400000 0.173010 0.914630 -0.517441
O10   O     O_R   0.354140 0.936940 0.899340 -0.489819
O11   O     O_3   0.162410 0.162370 0.983930 -0.253401
O12   O     O_R   0.298970 0.468800 0.557390 -0.491886
O13   O     O_R   0.260150 0.743000 0.412270 -0.514781
O14   O     O_R   0.297740 0.466550 0.394720 -0.513083
O15   O     O_R   0.488080 0.253500 0.386430 -0.502623
O16   O     O_R   0.722670 0.303800 0.421940 -0.512603
O17   O     O_R   0.751130 0.502220 0.613520 -0.511820
O18   O     O_R   0.478890 0.728510 0.601960 -0.478689
O19   O     O_R   0.261470 0.745430 0.587750 -0.525790
O20   O     O_R   0.489400 0.255930 0.561910 -0.502246
O21   O     O_R   0.723890 0.306050 0.584610 -0.537132
O22   O     O_3   0.500010 0.500010 0.500020 -0.293270
O23   O     O_R   0.171100 0.914680 0.053100 -0.547382
O24   O     O_R   0.941680 0.184840 0.050710 -0.524560
O25   O     O_R   0.922080 0.403420 0.072610 -0.518020
O26   O     O_R   0.196880 0.369150 0.083850 -0.526949

loop_
_geom_bond_atom_site_label_1
_geom_bond_atom_site_label_2
_ccdc_geom_bond_type
Cr1   O22   S    
Cr6   O11   S    
Cr2   O14   S    
C9    H7    S    
C41   C42   T    
Cr3   O20   S    
C19   C20   A    
C18   C26   A    
C12   C48   A    
C7    C8    A    
C36   O7    A    
C51   H5    S    
C12   C23   A    
C49   H3    S    
C37   O9    A    
Cr4   O24   S    
C33   C42   S    
Cr1   O4    S    
C12   C43   A    
C40   O17   A    
C30   C31   T    
C26   C39   S    
Cr5   O7    S    
C27   C29   T    
C4    C41   S    
C13   I1    S    
Cr1   O17   S    
C19   C26   A    
C39   O12   A    
C21   H19   S    
C4    O15   A    
C7    C14   A    
C15   C37   S    
C1    O13   A    
C33   O26   A    
Cr6   O2    S    
Cr3   O16   S    
C2    C16   S    
C9    C10   A    
C47   H9    S    
Cr3   O15   S    
C2    C34   A    
C8    H8    S    
Cr2   O19   S    
C32   O25   A    
C21   C22   A    
C18   C25   A    
C47   H10   S    
C20   C44   S    
C44   C46   S    
C39   O20   A    
C36   O6    A    
C1    O4    A    
C15   C20   A    
Cr6   O9    S    
Cr2   O12   S    
Cr3   O22   S    
C24   C25   A    
C35   O23   A    
C50   C51   A    
Cr4   O23   S    
C17   C21   A    
Cr5   O26   S    
C5    C9    A    
Cr4   O11   S    
C6    C14   A    
C4    O14   A    
C33   O2    A    
C23   C51   A    
C29   C36   S    
C3    C35   S    
C27   C40   S    
C7    H6    S    
C16   O1    A    
C17   C18   A    
Cr6   O3    S    
C34   C45   A    
Cr1   O1    S    
C43   C45   A    
Cr5   O25   S    
C46   H14   S    
C28   O18   A    
C24   H21   S    
Cr5   O8    S    
C38   O5    A    
C3    C8    A    
C32   O24   A    
C22   C24   A    
C47   H11   S    
C15   C17   A    
C46   C47   S    
C45   H2    S    
Cr6   O10   S    
Cr2   O13   S    
C25   H22   S    
Cr3   O21   S    
C22   H20   S    
C3    C5    A    
C11   H17   S    
C35   O3    A    
Cr1   O18   S    
C31   C38   S    
C37   O8    A    
C48   H23   S    
Cr4   O5    S    
C19   H18   S    
C6    C13   A    
C11   C13   A    
C28   O19   A    
C5    C6    A    
Cr2   O22   S    
C48   C49   A    
C38   O10   A    
C28   C30   S    
C32   C43   S    
C44   H15   S    
Cr4   O6    S    
C44   H16   S    
C16   O16   A    
C46   H13   S    
C10   C11   A    
C40   O21   A    
C10   H12   S    
Cr5   O11   S    
C49   C50   A    
C2    C23   A    
C34   H1    S    
C50   H4    S    
C1    C14   S    
