data_mof_unit_429.cif
_audit_creation_date              2012-12-11T16:33:21-0500
_audit_creation_method            fapswitch 2.2
_symmetry_space_group_name_H-M    P1
_symmetry_Int_Tables_number       1
_space_group_crystal_system       triclinic
_cell_length_a                    6.950229
_cell_length_b                    18.439242
_cell_length_c                    19.986601
_cell_angle_alpha                 68.51114
_cell_angle_beta                  89.615954
_cell_angle_gamma                 90.729105
_cell_volume                      2383.00368137

loop_
_atom_site_label
_atom_site_type_symbol
_atom_type_description
_atom_site_fract_x
_atom_site_fract_y
_atom_site_fract_z
_atom_type_partial_charge
O1    O     O_R   0.488960 0.443750 0.941980 -0.534531
O2    O     O_R   0.823890 0.406510 0.087590 -0.541792
O3    O     O_R   0.999680 0.556250 0.058020 -0.532608
C1    C     C_R   0.653647 0.385173 0.116259 0.717175
O4    O     O_R   0.818360 0.434410 0.944340 -0.541512
O5    O     O_R   0.994110 0.584350 0.913750 -0.537146
C2    C     C_R   0.649706 0.419452 0.924578 0.711203
O6    O     O_R   0.494530 0.415650 0.086250 -0.518363
O7    O     O_3   0.662590 0.549160 0.990130 -0.372102
V1    V     V_3+5 0.935320 0.490880 0.001830 1.474664
O8    O     O_R   0.324180 0.593490 0.912410 -0.544226
C3    C     C_R   0.157159 0.615705 0.884267 0.677027
O9    O     O_R   0.329720 0.565590 0.055660 -0.527013
C4    C     C_R   0.161222 0.579998 0.075879 0.771987
V2    V     V_3+5 0.435990 0.509120 0.998170 1.488352
O10   O     O_3   0.158850 0.450840 0.009870 -0.367800
C5    C     C_3   0.158179 0.702264 0.318142 -0.140676
C6    C     C_3   0.305577 0.715644 0.255979 -0.154465
H1    H     H_    0.447147 0.686995 0.260903 0.123427
H2    H     H_    0.177916 0.662945 0.374879 0.134150
H3    H     H_    0.391021 0.849996 0.215314 0.169054
C7    C     C_1   0.153706 0.626087 0.121094 -0.123775
C8    C     C_1   0.113377 0.874391 0.378215 -0.114372
C9    C     C_3   0.993498 0.695620 0.268600 -0.126607
C10   C     C_3   0.140778 0.709626 0.207077 0.146931
C11   C     C_3   0.962765 0.784769 0.243302 -0.132956
C12   C     C_3   0.127566 0.790816 0.292209 0.149045
C13   C     C_3   0.110158 0.798157 0.181146 -0.131533
C14   C     C_3   0.274850 0.804799 0.230679 -0.097950
C15   C     C_1   0.147921 0.663974 0.159594 -0.030071
C16   C     C_1   0.120029 0.836548 0.339664 0.000874
H4    H     H_    0.090442 0.837466 0.124406 0.126214
H5    H     H_    0.821143 0.813377 0.238332 0.130417
H6    H     H_    0.877394 0.650384 0.283896 0.130819
C17   C     C_R   0.187323 0.770986 0.884798 -0.131353
C18   C     C_R   0.196971 0.844491 0.888606 -0.141384
C19   C     C_R   0.162543 0.909784 0.828082 -0.133843
C20   C     C_R   0.119657 0.902724 0.762383 0.006441
C21   C     C_R   0.127252 0.828418 0.754870 0.000405
C22   C     C_R   0.154453 0.761253 0.818797 0.071189
C23   C     C_R   0.112728 0.818637 0.686959 -0.170049
C24   C     C_R   0.125329 0.742777 0.684641 0.082742
C25   C     C_R   0.150301 0.676800 0.748892 0.050696
C26   C     C_R   0.152597 0.685541 0.816294 -0.155202
C27   C     C_R   0.119070 0.731441 0.618374 -0.151827
C28   C     C_R   0.152234 0.658717 0.614822 -0.162199
C29   C     C_R   0.192659 0.595031 0.677088 0.000416
C30   C     C_R   0.184210 0.603515 0.743890 -0.195798
H7    H     H_    0.210681 0.721940 0.934156 0.089435
H8    H     H_    0.225257 0.850669 0.939481 0.123402
H9    H     H_    0.159060 0.966165 0.833494 0.127533
H10   H     H_    0.094770 0.779047 0.568056 0.093672
H11   H     H_    0.155357 0.653266 0.562663 0.147346
H12   H     H_    0.212522 0.553049 0.791660 0.134838
H13   H     H_    0.901090 0.336943 0.428330 0.146499
C31   C     C_R   0.506338 0.104439 0.247114 0.496372
C32   C     C_R   0.452862 0.098865 0.182017 0.625499
C33   C     C_R   0.461188 0.164002 0.118958 -0.290795
C34   C     C_R   0.522723 0.235513 0.120185 -0.249031
C35   C     C_R   0.575499 0.243996 0.185323 0.014312
C36   C     C_R   0.567209 0.177189 0.250414 -0.130286
C37   C     C_R   0.636269 0.317712 0.185802 -0.110044
C38   C     C_R   0.686034 0.325404 0.252169 0.016306
C39   C     C_R   0.696379 0.256904 0.315625 0.050566
C40   C     C_R   0.626185 0.184157 0.315844 -0.139831
C41   C     C_R   0.727274 0.399077 0.258389 -0.020291
C42   C     C_R   0.813943 0.401608 0.320551 -0.126842
C43   C     C_R   0.839567 0.333901 0.379780 -0.110120
C44   C     C_R   0.774201 0.262925 0.378704 -0.154436
H14   H     H_    0.420918 0.159074 0.068533 0.184350
H15   H     H_    0.528072 0.283924 0.069201 0.146685
H16   H     H_    0.850078 0.456934 0.325181 0.144527
H17   H     H_    0.787599 0.212927 0.427998 0.099682
O11   O     O_R   0.770540 0.084530 0.414050 -0.547056
O12   O     O_R   0.445710 0.065660 0.555720 -0.537184
O13   O     O_R   0.270420 0.915650 0.586190 -0.539859
C45   C     C_R   0.613751 0.079751 0.576317 0.752084
O14   O     O_R   0.441140 0.093540 0.412470 -0.524374
O15   O     O_R   0.265820 0.943740 0.441930 -0.508112
C46   C     C_R   0.611583 0.116243 0.384928 0.809208
O16   O     O_R   0.775150 0.056440 0.558310 -0.534542
O17   O     O_3   0.602370 0.950960 0.510050 -0.362470
V3    V     V_3+5 0.329450 0.009140 0.498150 1.540188
O18   O     O_R   0.935790 0.934280 0.444060 -0.538805
C47   C     C_R   0.104601 0.920222 0.423681 0.743923
O19   O     O_R   0.940370 0.906390 0.587310 -0.528080
C48   C     C_R   0.107172 0.886666 0.617309 0.705276
V4    V     V_3+5 0.828810 0.990710 0.501460 1.527258
O20   O     O_3   0.105780 0.049100 0.489960 -0.382471
C49   C     C_3   0.721721 0.310640 0.722057 -0.169928
C50   C     C_3   0.535231 0.283602 0.696246 0.617470
H18   H     H_    0.798375 0.366879 0.693650 0.190634
C51   C     C_1   0.618454 0.123264 0.623640 -0.111099
C52   C     C_1   0.642398 0.371149 0.881375 -0.139214
C53   C     C_3   0.805060 0.227866 0.739712 -0.134613
C54   C     C_3   0.617872 0.202106 0.713425 0.012208
C55   C     C_3   0.718098 0.201364 0.817029 -0.111266
C56   C     C_3   0.634826 0.283568 0.798852 -0.001359
C57   C     C_3   0.530057 0.174749 0.790197 -0.232199
C58   C     C_3   0.449021 0.257401 0.772607 -0.078658
C59   C     C_1   0.617562 0.158742 0.664130 0.047300
C60   C     C_1   0.639747 0.331060 0.844832 0.023755
H19   H     H_    0.450017 0.119104 0.817714 0.155371
H20   H     H_    0.794432 0.167467 0.867120 0.144157
H21   H     H_    0.950852 0.213741 0.725553 0.168727
C61   C     C_2   0.037943 0.972396 0.708370 0.700856
O21   O     O_2   0.868000 0.971534 0.693727 -0.559653
O22   O     O_R   0.149510 0.040481 0.678775 -0.663694
H22   H     H_    0.074866 0.085087 0.643881 0.292111
F1    F     F_    0.502452 0.037322 0.305715 -0.671757
F2    F     F_    0.394915 0.029172 0.179973 -0.663085
C62   C     C_2   0.650665 0.473847 0.209217 0.712926
O23   O     O_2   0.481681 0.477677 0.192020 -0.556431
O24   O     O_R   0.765837 0.541278 0.188106 -0.670221
H23   H     H_    0.695037 0.589136 0.156379 0.286626
F3    F     F_    0.439580 0.325489 0.633849 -0.644166
C63   C     C_2   0.254111 0.275826 0.793494 0.775905
O25   O     O_2   0.153360 0.322167 0.748538 -0.538127
O26   O     O_R   0.192240 0.242327 0.865063 -0.666367
H24   H     H_    0.061693 0.261697 0.873299 0.290519
C64   C     C_2   0.259191 0.521407 0.672059 0.820779
O27   O     O_2   0.224120 0.505890 0.618854 -0.519683
O28   O     O_R   0.371042 0.471279 0.726986 -0.666442
H25   H     H_    0.427255 0.428035 0.713630 0.322217

loop_
_geom_bond_atom_site_label_1
_geom_bond_atom_site_label_2
_ccdc_geom_bond_type
C57   H19   S    
C12   C14   S    
C23   C24   A    
C53   C54   S    
C1    O6    A    
C62   O24   S    
C55   C56   S    
C49   C50   S    
O28   H25   S    
C21   C23   A    
C27   C28   A    
C50   F3    S    
C10   C13   S    
C30   H12   S    
C11   C12   S    
C19   C20   A    
C13   C14   S    
C9    C11   S    
C6    H1    S    
C63   O26   S    
O5    C3    A    
C20   C21   A    
C19   H9    S    
O19   V4    S    
C29   C64   S    
C61   O21   D    
V2    O10   S    
C54   C57   S    
C1    C37   S    
C5    H2    S    
O22   H22   S    
C35   C37   A    
C42   H16   S    
C53   H21   S    
C50   C54   S    
O8    V2    S    
O14   V3    S    
C17   C18   A    
C43   C44   A    
C17   H7    S    
C44   H17   S    
O1    V2    S    
C45   O16   A    
C50   C58   S    
C25   C30   A    
C41   C42   A    
C38   C41   A    
C34   C35   A    
C40   C46   S    
O11   C46   A    
O9    C4    A    
C6    C10   S    
V3    O20   S    
O13   V3    S    
C31   F1    S    
C62   O23   D    
C55   C57   S    
H13   C43   S    
C23   C48   S    
C5    C9    S    
C12   C16   S    
C42   C43   A    
C5    C12   S    
C49   C53   S    
O18   C47   A    
C51   C59   T    
C21   C22   A    
O4    C2    A    
O19   C48   A    
C33   H14   S    
C27   H10   S    
C33   C34   A    
C56   C60   S    
H3    C14   S    
C9    H6    S    
C35   C36   A    
C24   C27   A    
C8    C16   T    
C20   C61   S    
O2    C1    A    
C25   C26   A    
C37   C38   A    
C11   H5    S    
C49   H18   S    
C29   C30   A    
C13   H4    S    
O26   H24   S    
C5    C6    S    
C6    C14   S    
C39   C44   A    
C9    C10   S    
O12   C45   A    
O13   C48   A    
C64   O27   D    
O3    C4    A    
O6    V2    S    
C56   C58   S    
O9    V2    S    
C24   C25   A    
O2    V1    S    
O15   C47   A    
C18   H8    S    
O7    V1    S    
C10   C15   S    
C31   C32   A    
C2    C52   S    
C28   C29   A    
C18   C19   A    
C7    C15   T    
O1    C2    A    
O18   V4    S    
O5    V1    S    
O8    C3    A    
C53   C55   S    
O24   H23   S    
C11   C13   S    
C57   C58   S    
C55   H20   S    
C41   C62   S    
C39   C40   A    
C4    C7    S    
C17   C22   A    
O7    V2    S    
O4    V1    S    
C3    C26   S    
O3    V1    S    
V1    O10   S    
C63   O25   D    
O15   V3    S    
O12   V3    S    
C32   C33   A    
C32   F2    S    
C61   O22   S    
O17   V4    S    
C28   H11   S    
C45   C51   S    
O14   C46   A    
C64   O28   S    
O16   V4    S    
C38   C39   A    
C36   C40   A    
C22   C26   A    
V4    O20   S    
C52   C60   T    
O17   V3    S    
C8    C47   S    
C31   C36   A    
C58   C63   S    
O11   V4    S    
C54   C59   S    
C49   C56   S    
C34   H15   S    
