data_mof_unit_885.cif
_audit_creation_date              2012-12-11T15:29:37-0500
_audit_creation_method            fapswitch 2.2
_symmetry_space_group_name_H-M    P1
_symmetry_Int_Tables_number       1
_space_group_crystal_system       triclinic
_cell_length_a                    21.428909
_cell_length_b                    7.243397
_cell_length_c                    14.956419
_cell_angle_alpha                 89.961199
_cell_angle_beta                  73.516982
_cell_angle_gamma                 90.105065
_cell_volume                      2226.09644705

loop_
_atom_site_label
_atom_site_type_symbol
_atom_type_description
_atom_site_fract_x
_atom_site_fract_y
_atom_site_fract_z
_atom_type_partial_charge
O1    O     O_R   0.464160 0.506670 0.130070 -0.496894
O2    O     O_R   0.535840 0.006670 0.869930 -0.525388
O3    O     O_R   0.589710 0.179080 0.006710 -0.536096
O4    O     O_R   0.410290 0.679080 0.993290 -0.531871
C1    C     C_R   0.615898 0.344753 0.004429 0.673492
C2    C     C_R   0.383980 0.844450 0.996195 0.686552
O5    O     O_R   0.467940 0.177220 0.138010 -0.545072
O6    O     O_R   0.532060 0.677220 0.861990 -0.537971
O7    O     O_R   0.413200 0.002810 0.002170 -0.547572
O8    O     O_R   0.586800 0.502810 0.997830 -0.530259
C3    C     C_R   0.454899 0.345434 0.174352 0.760292
C4    C     C_R   0.543157 0.846118 0.825545 0.795715
O9    O     O_3   0.482180 0.337850 0.955280 -0.394223
O10   O     O_3   0.517820 0.837850 0.044720 -0.369718
V1    V     V_3+5 0.503310 0.064600 0.008300 1.528958
V2    V     V_3+5 0.496690 0.564600 0.991700 1.559854
C5    C     C_R   0.572299 0.858861 0.724204 -0.148174
C6    C     C_R   0.427639 0.350681 0.276389 -0.120038
C7    C     C_R   0.928339 0.852146 0.274772 -0.040822
C8    C     C_R   0.072671 0.361060 0.725284 -0.026763
C9    C     C_R   0.561487 0.974181 0.577435 -0.145463
C10   C     C_R   0.441575 0.283278 0.428119 -0.148329
C11   C     C_R   0.533850 0.929339 0.670702 -0.257723
C12   C     C_R   0.466855 0.292730 0.331592 -0.230958
C13   C     C_R   0.639369 0.824140 0.682467 0.392106
C14   C     C_R   0.361649 0.395676 0.318886 0.373193
C15   C     C_R   0.665158 0.844152 0.583503 -0.044347
C16   C     C_R   0.332981 0.343319 0.413472 -0.026981
C17   C     C_R   0.627269 0.938302 0.534329 0.093480
C18   C     C_R   0.374776 0.307091 0.469594 0.102366
C19   C     C_R   0.728452 0.784632 0.532114 0.096234
C20   C     C_R   0.264719 0.324049 0.454462 0.102750
C21   C     C_R   0.760041 0.865363 0.444055 0.053278
C22   C     C_R   0.238775 0.324912 0.553181 0.056236
C23   C     C_R   0.722223 0.974446 0.400945 -0.189305
C24   C     C_R   0.282574 0.310741 0.607937 -0.184526
C25   C     C_R   0.656036 0.000941 0.443448 -0.172632
C26   C     C_R   0.349231 0.293171 0.566276 -0.168574
C27   C     C_R   0.758648 0.635053 0.562393 -0.093351
C28   C     C_R   0.222598 0.285218 0.399734 -0.063454
C29   C     C_R   0.823987 0.598073 0.522895 -0.185851
C30   C     C_R   0.155615 0.280983 0.438637 -0.192405
C31   C     C_R   0.859408 0.697825 0.445440 0.131584
C32   C     C_R   0.128686 0.310195 0.533968 0.132692
C33   C     C_R   0.827384 0.826538 0.401579 0.076268
C34   C     C_R   0.169897 0.330947 0.592935 0.083114
C35   C     C_R   0.925648 0.659441 0.407607 -0.152137
C36   C     C_R   0.060753 0.314400 0.571246 -0.146157
C37   C     C_R   0.959747 0.735444 0.322611 -0.159987
C38   C     C_R   0.032908 0.339058 0.666558 -0.164047
C39   C     C_R   0.863568 0.904147 0.315545 -0.220222
C40   C     C_R   0.140410 0.358054 0.689130 -0.210504
H1    H     H_    0.627750 0.077725 0.406372 0.115944
H2    H     H_    0.381048 0.270241 0.610083 0.113951
H3    H     H_    0.841687 0.994034 0.275493 0.099408
H4    H     H_    0.168695 0.379230 0.737572 0.088334
H5    H     H_    0.009491 0.692250 0.290632 0.110857
H6    H     H_    0.980408 0.338974 0.694721 0.107791
H7    H     H_    0.846498 0.487914 0.551801 0.129230
H8    H     H_    0.124724 0.256133 0.393673 0.119146
H9    H     H_    0.531548 0.039620 0.539267 0.117592
H10   H     H_    0.473754 0.250150 0.469998 0.113228
H11   H     H_    0.482935 0.960228 0.702869 0.116699
H12   H     H_    0.517728 0.260614 0.299974 0.115571
H13   H     H_    0.741546 0.034044 0.332614 0.115767
H14   H     H_    0.266422 0.299661 0.682891 0.113980
H15   H     H_    0.731264 0.543263 0.615734 0.173092
H16   H     H_    0.241380 0.255279 0.326253 0.152535
H17   H     H_    0.950177 0.562141 0.441173 0.114974
H18   H     H_    0.029155 0.297193 0.526645 0.114001
C41   C     C_3   0.215889 0.664793 0.976753 -0.319737
C42   C     C_3   0.770141 0.265781 0.092242 -0.310613
H19   H     H_    0.188906 0.567598 0.032030 0.144468
H20   H     H_    0.787029 0.120999 0.094061 0.138543
H21   H     H_    0.209577 0.615572 0.909347 0.134170
H22   H     H_    0.776410 0.336651 0.155116 0.125482
C43   C     C_3   0.288839 0.660075 0.971702 -0.323180
C44   C     C_3   0.696580 0.265114 0.096001 -0.352741
H23   H     H_    0.317597 0.617820 0.900385 0.126500
H24   H     H_    0.668146 0.343436 0.158173 0.127962
H25   H     H_    0.296569 0.552729 0.020242 0.190168
H26   H     H_    0.677991 0.120718 0.104262 0.142514
H27   H     H_    0.166698 0.832478 0.149711 0.137935
H28   H     H_    0.825458 0.120093 0.911937 0.162285
H29   H     H_    0.273710 0.814001 0.146514 0.226402
H30   H     H_    0.717322 0.093806 0.932732 0.208270
C45   C     C_3   0.196379 0.923101 0.093377 -0.357743
C46   C     C_3   0.803470 0.260118 0.916444 -0.352185
C47   C     C_3   0.229906 0.994050 0.921753 -0.307341
C48   C     C_3   0.783974 0.561988 0.001014 -0.322369
C49   C     C_3   0.187840 0.862987 0.998063 0.124180
C50   C     C_3   0.812096 0.364202 0.002477 0.109703
H31   H     H_    0.211388 0.137997 0.933881 0.139344
H32   H     H_    0.812280 0.637864 0.937648 0.157806
H33   H     H_    0.226130 0.951511 0.851997 0.129322
H34   H     H_    0.788246 0.641319 0.062754 0.140574
C51   C     C_3   0.312913 0.851971 0.995494 0.098953
C52   C     C_3   0.686851 0.352455 0.005942 0.072637
C53   C     C_3   0.268919 0.913119 0.092406 -0.277669
C54   C     C_3   0.730432 0.241915 0.922388 -0.244063
C55   C     C_3   0.302584 0.990924 0.921807 -0.342858
C56   C     C_3   0.711887 0.554837 0.001708 -0.300013
H35   H     H_    0.333798 0.952486 0.851282 0.118950
H36   H     H_    0.682148 0.633428 0.062927 0.134588
H37   H     H_    0.317440 0.132009 0.937132 0.149953
H38   H     H_    0.706373 0.625606 0.938919 0.229888
H39   H     H_    0.178405 0.066731 0.109684 0.146088
H40   H     H_    0.829256 0.335505 0.851573 0.136331
H41   H     H_    0.284856 0.050479 0.111144 0.163010
H42   H     H_    0.721890 0.284557 0.855714 0.187707
O11   O     O_R   0.913210 0.208550 0.002110 -0.539505
O12   O     O_R   0.086790 0.708550 0.997890 -0.541294
O13   O     O_R   0.032060 0.539960 0.861980 -0.538478
O14   O     O_R   0.967940 0.039960 0.138020 -0.542047
C57   C     C_R   0.044085 0.372346 0.825849 0.690372
C58   C     C_R   0.956272 0.871604 0.174243 0.688292
O15   O     O_R   0.910290 0.538020 0.993280 -0.544666
O16   O     O_R   0.089710 0.038020 0.006720 -0.545566
O17   O     O_R   0.964160 0.712340 0.130090 -0.536241
O18   O     O_R   0.035840 0.212340 0.869910 -0.535032
C59   C     C_R   0.883709 0.370268 0.999678 0.647824
C60   C     C_R   0.116282 0.870110 0.000480 0.642362
O19   O     O_3   0.017820 0.379210 0.044690 -0.379567
O20   O     O_3   0.982180 0.879210 0.955310 -0.373988
V3    V     V_3+5 0.996690 0.652500 0.991710 1.405134
V4    V     V_3+5 0.003310 0.152500 0.008290 1.397736
S1    S     S_3+6 0.691871 0.802465 0.756171 -0.074768
O21   O     O_2   0.757307 0.887023 0.710139 -0.356370
O22   O     O_2   0.664005 0.898337 0.847529 -0.369341
O23   O     O_3   0.700396 0.578097 0.778268 -0.549203
H43   H     H_    0.747478 0.561894 0.771069 0.334456
S2    S     S_3+6 0.321739 0.552351 0.261200 -0.067397
O24   O     O_2   0.261831 0.634258 0.327413 -0.361607
O25   O     O_2   0.366611 0.709400 0.220075 -0.329130
O26   O     O_3   0.301916 0.438379 0.175178 -0.559596
H44   H     H_    0.254513 0.457035 0.186593 0.321946

loop_
_geom_bond_atom_site_label_1
_geom_bond_atom_site_label_2
_ccdc_geom_bond_type
H27   C45   S    
C3    C6    S    
C54   H42   S    
C45   C49   S    
O11   C59   A    
C21   C33   A    
O1    C3    A    
C42   H22   S    
O2    C4    A    
C2    O7    A    
C14   S2    S    
O26   H44   S    
C27   C29   A    
O5    C3    A    
C5    C11   A    
C6    C12   A    
C23   C25   A    
C36   C38   A    
C46   H40   S    
C24   H14   S    
O13   V3    S    
C23   H13   S    
C53   H41   S    
C34   C40   A    
C37   H5    S    
C15   C17   A    
C18   C26   A    
O16   C60   A    
C7    C37   A    
C35   H17   S    
C8    C38   A    
C48   C56   S    
C46   C50   S    
S2    O24   D    
C49   C60   S    
C6    C14   A    
C4    C5    S    
C44   C52   S    
C42   C44   S    
C19   C21   A    
C43   C51   S    
C22   C34   A    
C47   C49   S    
H30   C54   S    
C9    H9    S    
C25   H1    S    
C11   H11   S    
O6    V2    S    
C47   H31   S    
C29   C31   A    
C30   C32   A    
O4    V2    S    
C51   C53   S    
C32   C34   A    
C48   H32   S    
C45   C53   S    
C43   H23   S    
C55   H37   S    
C15   C19   A    
C38   H6    S    
C2    C51   S    
C16   C20   A    
C29   H7    S    
C42   H20   S    
C30   H8    S    
C41   H19   S    
O19   V4    S    
C39   H3    S    
C52   C56   S    
C9    C17   A    
C12   H12   S    
C20   C22   A    
C47   H33   S    
S1    O22   D    
O12   C60   A    
H29   C53   S    
C10   H10   S    
C44   H26   S    
C48   C50   S    
C26   H2    S    
C43   H25   S    
O6    C4    A    
O11   V4    S    
C41   C49   S    
O1    V2    S    
C56   H36   S    
O2    V1    S    
C31   C33   A    
O12   V3    S    
C46   C54   S    
O18   V4    S    
O17   V3    S    
S2    O25   D    
C52   C54   S    
C9    C11   A    
C10   C12   A    
O4    C2    A    
C13   C15   A    
S1    O21   D    
C41   C43   S    
O3    V1    S    
C10   C18   A    
C47   C55   S    
C27   H15   S    
H28   C46   S    
C36   H18   S    
C28   C30   A    
O3    C1    A    
C8    C57   S    
O14   C58   A    
C48   H34   S    
O15   C59   A    
C35   C37   A    
C14   C16   A    
C58   O17   A    
C5    C13   A    
C24   C26   A    
O23   H43   S    
C13   S1    S    
S1    O23   S    
C16   C18   A    
C8    C40   A    
C32   C36   A    
O8    V2    S    
C50   C59   S    
C41   H21   S    
C31   C35   A    
C7    C58   S    
S2    O26   S    
C42   C50   S    
O5    V1    S    
C21   C23   A    
C22   C24   A    
C19   C27   A    
C56   H38   S    
C44   H24   S    
C20   C28   A    
O7    V1    S    
C7    C39   A    
C1    O8    A    
C45   H39   S    
C1    C52   S    
C55   H35   S    
C57   O18   A    
C28   H16   S    
O9    V2    S    
C17   C25   A    
O14   V4    S    
C33   C39   A    
O10   V1    S    
O16   V4    S    
O15   V3    S    
C51   C55   S    
C40   H4    S    
O20   V3    S    
O13   C57   A    
