data_mof_unit_4824.cif
_audit_creation_date              2012-12-10T17:52:24-0500
_audit_creation_method            fapswitch 2.2
_symmetry_space_group_name_H-M    P1
_symmetry_Int_Tables_number       1
_space_group_crystal_system       triclinic
_cell_length_a                    18.949418
_cell_length_b                    10.675198
_cell_length_c                    9.962417
_cell_angle_alpha                 86.664039
_cell_angle_beta                  88.926194
_cell_angle_gamma                 94.2725
_cell_volume                      2005.74034415

loop_
_atom_site_label
_atom_site_type_symbol
_atom_type_description
_atom_site_fract_x
_atom_site_fract_y
_atom_site_fract_z
_atom_type_partial_charge
C1    C     C_R   0.503125 0.259790 0.504527 0.909119
C2    C     C_R   0.292461 0.542475 0.502778 -0.142820
C3    C     C_R   0.934388 0.608964 0.518495 0.330239
C4    C     C_R   0.077232 0.628064 0.523911 0.318904
C5    C     C_R   0.819752 0.534187 0.629072 -0.164092
C6    C     C_R   0.748727 0.493341 0.624007 0.274513
C7    C     C_R   0.713456 0.498927 0.499522 -0.196200
C8    C     C_R   0.754771 0.525159 0.378966 -0.079708
C9    C     C_R   0.825824 0.568461 0.387348 -0.190378
C10   C     C_R   0.858186 0.575724 0.511964 0.003407
C11   C     C_R   0.469272 0.084438 0.756766 -0.228693
C12   C     C_R   0.366109 0.510174 0.500529 0.887804
C13   C     C_R   0.434717 0.002019 0.856754 -0.016437
C14   C     C_R   0.398579 0.891031 0.819464 -0.147383
C15   C     C_R   0.408349 0.851858 0.690627 -0.155654
C16   C     C_R   0.454833 0.923476 0.598542 0.117391
C17   C     C_R   0.475739 0.047996 0.622959 0.090720
C18   C     C_R   0.507092 0.125439 0.513918 -0.103427
C19   C     C_R   0.532919 0.072212 0.399519 -0.093463
C20   C     C_R   0.524529 0.944637 0.389026 -0.206643
C21   C     C_R   0.486608 0.870434 0.489112 -0.114228
C22   C     C_R   0.382620 0.363402 0.141394 -0.148848
C23   C     C_R   0.495306 0.738762 0.496312 0.878876
C24   C     C_R   0.322991 0.333947 0.062015 0.247950
C25   C     C_R   0.332619 0.320967 0.926153 -0.234828
C26   C     C_R   0.397194 0.356472 0.865054 -0.224506
C27   C     C_R   0.449119 0.426548 0.932041 0.178580
C28   C     C_R   0.446307 0.427065 0.076688 0.113660
C29   C     C_R   0.543319 0.583195 0.062806 0.009764
C30   C     C_R   0.544953 0.577937 0.920679 -0.074468
C31   C     C_R   0.635169 0.495328 0.499370 0.913106
C32   C     C_R   0.252180 0.514319 0.621596 -0.208325
C33   C     C_R   0.183276 0.548556 0.631268 -0.124977
C34   C     C_R   0.153062 0.611061 0.521640 0.016230
C35   C     C_R   0.193697 0.643346 0.404175 -0.136465
C36   C     C_R   0.263164 0.610453 0.393794 0.265761
H1    H     H_    0.273769 0.464629 0.707236 0.179970
H2    H     H_    0.497007 0.169065 0.788453 0.210444
H3    H     H_    0.368413 0.828571 0.892589 0.208201
H4    H     H_    0.383977 0.761077 0.666771 0.159593
H5    H     H_    0.548805 0.904029 0.304285 0.199683
H6    H     H_    0.290382 0.278778 0.868006 0.193363
H7    H     H_    0.403831 0.333942 0.762912 0.222616
H8    H     H_    0.153039 0.521966 0.723155 0.178543
H9    H     H_    0.580807 0.642642 0.859723 0.178904
H10   H     H_    0.171241 0.693106 0.319283 0.190370
H11   H     H_    0.845179 0.530850 0.725549 0.191295
H12   H     H_    0.856908 0.590803 0.295494 0.197461
H13   H     H_    0.559736 0.129637 0.317871 0.217143
N1    N     N_R   0.043480 0.651003 0.407232 -0.149319
N2    N     N_R   0.973289 0.641695 0.404575 -0.151304
N3    N     N_R   0.968164 0.592367 0.636248 -0.155985
N4    N     N_R   0.038315 0.601489 0.638894 -0.155685
N5    N     N_R   0.499340 0.498800 0.142780 -0.135126
N6    N     N_R   0.499320 0.498720 0.857170 -0.121608
O1    O     O_R   0.500000 0.316780 0.614690 -0.654478
O2    O     O_R   0.499990 0.316750 0.385360 -0.592760
O3    O     O_R   0.398140 0.500000 0.614700 -0.649705
O4    O     O_R   0.398130 0.499970 0.385370 -0.604251
O5    O     O_R   0.500010 0.683250 0.614640 -0.621263
O6    O     O_R   0.500000 0.683220 0.385310 -0.587966
O7    O     O_R   0.601870 0.500030 0.614630 -0.574630
O8    O     O_R   0.601860 0.500000 0.385300 -0.548613
Zn1   Zn    Zn3+2 0.500000 0.500020 0.653130 0.973310
Zn2   Zn    Zn3+2 0.500000 0.499980 0.346870 1.044084
C37   C     C_2   0.442811 0.023189 0.000788 0.989621
O9    O     O_2   0.487398 0.102586 0.036028 -0.589715
O10   O     O_R   0.402890 0.945884 0.096926 -0.752453
H14   H     H_    0.417958 0.958710 0.192333 0.389832
C38   C     C_2   0.579934 0.697097 0.115613 0.936905
O11   O     O_2   0.575347 0.799153 0.055068 -0.635336
O12   O     O_R   0.621483 0.690400 0.228886 -0.765575
H15   H     H_    0.645513 0.774822 0.249901 0.335545
C39   C     C_2   0.384004 0.269715 0.256110 1.064616
O13   O     O_2   0.420703 0.182113 0.245621 -0.579704
O14   O     O_R   0.336957 0.265454 0.366441 -0.765405
H16   H     H_    0.301991 0.332328 0.359767 0.330095
Br1   Br    Br    0.230788 0.274422 0.134377 -0.445908
Br2   Br    Br    0.314392 0.667889 0.230389 -0.465533
Br3   Br    Br    0.706568 0.420936 0.791254 -0.473402
C40   C     C_2   0.728579 0.500844 0.242853 1.019168
O15   O     O_2   0.691269 0.405128 0.224513 -0.586153
O16   O     O_R   0.750211 0.584196 0.133836 -0.781768
H17   H     H_    0.728853 0.558162 0.046310 0.368403

loop_
_geom_bond_atom_site_label_1
_geom_bond_atom_site_label_2
_ccdc_geom_bond_type
C37   O10   S    
O8    Zn2   S    
C16   C21   A    
C4    N4    A    
C30   H9    S    
C35   C36   A    
C2    C12   S    
C20   H5    S    
C7    C8    A    
N5    Zn2   S    
C5    H11   S    
C1    C18   S    
C39   O14   S    
C1    O1    A    
C18   C19   A    
C5    C6    A    
C27   N6    A    
C29   N5    A    
C15   C16   A    
C2    C32   A    
C34   C35   A    
O7    Zn1   S    
C14   H3    S    
O10   H14   S    
C12   O4    A    
C19   C20   A    
C8    C9    A    
O1    Zn1   S    
C38   O11   D    
C9    C10   A    
C12   O3    A    
C37   O9    D    
C22   C28   A    
C13   C14   A    
C31   O7    A    
C40   O16   S    
C26   H7    S    
C17   C18   A    
C13   C37   S    
O3    Zn1   S    
C23   O5    A    
C4    C34   S    
C7    C31   S    
C39   O13   D    
C8    C40   S    
C31   O8    A    
O14   H16   S    
C28   N5    A    
C16   C17   A    
N1    N2    A    
C25   C26   A    
C40   O15   D    
C4    N1    A    
C11   H2    S    
C29   C30   A    
C1    O2    A    
C19   H13   S    
C6    Br3   S    
O16   H17   S    
N6    Zn1   S    
C33   C34   A    
C26   C27   A    
C32   H1    S    
C24   C25   A    
C24   Br1   S    
C21   C23   S    
C22   C24   A    
C22   C39   S    
N3    N4    A    
C29   C38   S    
C2    C36   A    
C11   C17   A    
C3    N2    A    
C33   H8    S    
O2    Zn2   S    
O12   H15   S    
C36   Br2   S    
C25   H6    S    
C3    N3    A    
C6    C7    A    
C30   N6    A    
O5    Zn1   S    
C32   C33   A    
C5    C10   A    
C3    C10   S    
O4    Zn2   S    
C11   C13   A    
C15   H4    S    
O6    Zn2   S    
C23   O6    A    
C20   C21   A    
C9    H12   S    
C27   C28   A    
C14   C15   A    
C38   O12   S    
C35   H10   S    
