data_mof_unit_2051.cif
_audit_creation_date              2012-12-11T15:54:47-0500
_audit_creation_method            fapswitch 2.2
_symmetry_space_group_name_H-M    P1
_symmetry_Int_Tables_number       1
_space_group_crystal_system       triclinic
_cell_length_a                    6.925178
_cell_length_b                    14.521103
_cell_length_c                    16.12173
_cell_angle_alpha                 89.907076
_cell_angle_beta                  89.890418
_cell_angle_gamma                 89.699645
_cell_volume                      1621.19353923

loop_
_atom_site_label
_atom_site_type_symbol
_atom_type_description
_atom_site_fract_x
_atom_site_fract_y
_atom_site_fract_z
_atom_type_partial_charge
O1    O     O_R   0.638180 0.333920 0.163320 -0.550422
O2    O     O_R   0.361820 0.666080 0.836680 -0.550422
O3    O     O_R   0.308470 0.344960 0.336080 -0.512675
O4    O     O_R   0.691530 0.655040 0.663920 -0.512675
O5    O     O_R   0.138140 0.166110 0.336680 -0.537818
O6    O     O_R   0.861860 0.833890 0.663320 -0.537818
C1    C     C_R   0.476722 0.366599 0.365549 0.741243
C2    C     C_R   0.523278 0.633401 0.634451 0.741243
O7    O     O_R   0.308460 0.344950 0.163930 -0.508411
O8    O     O_R   0.691540 0.655050 0.836070 -0.508411
O9    O     O_R   0.138140 0.166100 0.163310 -0.514111
O10   O     O_R   0.861860 0.833900 0.836690 -0.514112
C3    C     C_R   0.476962 0.367764 0.135435 0.763411
C4    C     C_R   0.523038 0.632236 0.864565 0.763410
O11   O     O_R   0.638180 0.333930 0.336700 -0.553192
O12   O     O_R   0.361820 0.666070 0.663300 -0.553192
O13   O     O_3   0.471670 0.191340 0.250000 -0.372878
O14   O     O_3   0.528330 0.808660 0.750000 -0.372878
V1    V     V_3+5 0.196830 0.260900 0.250000 1.556673
V2    V     V_3+5 0.803170 0.739100 0.750000 1.556673
O15   O     O_R   0.808420 0.155070 0.163920 -0.548624
O16   O     O_R   0.191580 0.844930 0.836080 -0.548624
C5    C     C_R   0.978227 0.133521 0.134468 0.729944
C6    C     C_R   0.021772 0.866479 0.865532 0.729944
O17   O     O_R   0.808420 0.155080 0.336070 -0.546197
O18   O     O_R   0.191580 0.844920 0.663930 -0.546197
C7    C     C_R   0.977457 0.132989 0.364612 0.686147
C8    C     C_R   0.022543 0.867011 0.635388 0.686148
V3    V     V_3+5 0.696830 0.239130 0.250000 1.468376
V4    V     V_3+5 0.303170 0.760870 0.750000 1.468376
O19   O     O_3   0.971850 0.308690 0.250010 -0.361930
O20   O     O_3   0.028150 0.691310 0.749990 -0.361930
C9    C     C_R   0.842004 0.177176 0.529820 -0.211821
C10   C     C_R   0.157996 0.822824 0.470179 -0.211821
C11   C     C_R   0.775566 0.202402 0.608380 0.391592
C12   C     C_R   0.224433 0.797598 0.391620 0.391591
C13   C     C_R   0.787203 0.138798 0.674291 0.314227
C14   C     C_R   0.212797 0.861202 0.325709 0.314228
C15   C     C_R   0.865683 0.050768 0.659655 -0.276643
C16   C     C_R   0.134317 0.949231 0.340345 -0.276643
C17   C     C_R   0.931505 0.024144 0.580100 0.034706
C18   C     C_R   0.068495 0.975855 0.419900 0.034706
C19   C     C_R   0.919428 0.088655 0.513850 -0.010659
C20   C     C_R   0.080572 0.911345 0.486150 -0.010659
C21   C     C_R   0.012129 0.935308 0.566400 -0.103373
C22   C     C_R   0.987871 0.064692 0.433600 -0.103373
H1    H     H_    0.832841 0.228788 0.481483 0.156118
H2    H     H_    0.167159 0.771212 0.518517 0.156118
H3    H     H_    0.875969 0.003744 0.711573 0.112883
H4    H     H_    0.124031 0.996256 0.288427 0.112883
C23   C     C_R   0.167790 0.990332 0.952605 -0.322826
C24   C     C_R   0.832210 0.009668 0.047395 -0.322826
H5    H     H_    0.297842 0.983923 0.915566 0.155002
H6    H     H_    0.702158 0.016077 0.084434 0.155002
C25   C     C_R   0.161378 0.055819 0.017001 0.369256
C26   C     C_R   0.838622 0.944181 0.982999 0.369256
C27   C     C_R   0.991502 0.065560 0.065338 -0.109750
C28   C     C_R   0.008498 0.934440 0.934662 -0.109750
C29   C     C_R   0.327363 0.450307 0.488072 0.388228
C30   C     C_R   0.672637 0.549693 0.511928 0.388228
C31   C     C_R   0.342874 0.515516 0.552477 -0.283436
C32   C     C_R   0.657126 0.484484 0.447523 -0.283435
H7    H     H_    0.220859 0.526570 0.593493 0.154716
H8    H     H_    0.779141 0.473430 0.406507 0.154717
C33   C     C_R   0.514004 0.565164 0.565454 -0.086608
C34   C     C_R   0.485996 0.434836 0.434546 -0.086608
C35   C     C_R   0.327838 0.493911 0.046854 0.366623
C36   C     C_R   0.672162 0.506089 0.953146 0.366623
C37   C     C_R   0.343221 0.556543 0.980378 -0.303285
C38   C     C_R   0.656779 0.443457 0.019622 -0.303285
H9    H     H_    0.221460 0.600925 0.966117 0.156014
H10   H     H_    0.778540 0.399074 0.033883 0.156014
C39   C     C_R   0.513602 0.563666 0.933301 -0.107880
C40   C     C_R   0.486398 0.436334 0.066699 -0.107880
O21   O     O_3   0.277274 0.835970 0.247765 -0.650453
H11   H     H_    0.258878 0.888245 0.208850 0.291229
O22   O     O_3   0.722725 0.164030 0.752235 -0.650453
H12   H     H_    0.741121 0.111755 0.791150 0.291229
O23   O     O_3   0.701421 0.290299 0.617865 -0.646146
H13   H     H_    0.659267 0.299507 0.675976 0.333369
O24   O     O_3   0.298578 0.709700 0.382135 -0.646146
H14   H     H_    0.340733 0.700493 0.324023 0.333369
O25   O     O_3   0.318227 0.111757 0.032256 -0.640827
H15   H     H_    0.423756 0.096393 0.992895 0.284200
O26   O     O_3   0.681773 0.888243 0.967744 -0.640827
H16   H     H_    0.576244 0.903607 0.007105 0.284200
O27   O     O_3   0.160571 0.399713 0.477973 -0.644454
H17   H     H_    0.065933 0.417295 0.521462 0.298136
O28   O     O_3   0.839429 0.600287 0.522027 -0.644455
H18   H     H_    0.934068 0.582704 0.478539 0.298137
O29   O     O_3   0.160766 0.489469 0.093701 -0.639011
H19   H     H_    0.065445 0.534679 0.072120 0.291336
O30   O     O_3   0.839233 0.510531 0.906299 -0.639011
H20   H     H_    0.934555 0.465321 0.927879 0.291336

loop_
_geom_bond_atom_site_label_1
_geom_bond_atom_site_label_2
_ccdc_geom_bond_type
C14   C16   A    
O27   H17   S    
O30   H20   S    
O13   V3    S    
O4    C2    A    
V1    O19   S    
O24   H14   S    
C15   C17   A    
O22   H12   S    
O9    V1    S    
C11   C13   A    
O3    C1    A    
C29   C34   A    
O26   H16   S    
O12   V4    S    
C30   C32   A    
C18   C22   A    
C11   O23   S    
C37   H9    S    
O7    C3    A    
C32   H8    S    
O13   V1    S    
O5    C7    A    
O7    V1    S    
O6    C8    A    
O8    V2    S    
C38   C40   A    
O3    V1    S    
O14   V4    S    
C23   C25   A    
C16   C18   A    
C2    C33   S    
C2    O12   A    
C17   C19   A    
C18   C20   A    
C35   O29   S    
C24   H6    S    
O11   V3    S    
C14   O21   S    
O15   C5    A    
O17   V3    S    
C13   C15   A    
C8    C21   S    
C29   C31   A    
C32   C34   A    
C9    C19   A    
C4    C39   S    
C10   C20   A    
O8    C4    A    
O29   H19   S    
C23   C28   A    
C1    O11   A    
C36   C39   A    
C30   O28   S    
O15   V3    S    
C23   H5    S    
O21   H11   S    
O25   H15   S    
C12   O24   S    
O10   V2    S    
O1    V3    S    
C35   C40   A    
C37   C39   A    
C7    C22   S    
C36   C38   A    
C15   H3    S    
C30   C33   A    
O18   V4    S    
C25   C27   A    
C9    H1    S    
O16   C6    A    
O1    C3    A    
C25   O25   S    
C20   C21   A    
V2    O20   S    
C5    C27   S    
O16   V4    S    
C31   H7    S    
O5    V1    S    
O17   C7    A    
O6    V2    S    
O10   C6    A    
O18   C8    A    
C36   O30   S    
O2    V4    S    
C12   C14   A    
V3    O19   S    
C1    C34   S    
V4    O20   S    
C26   O26   S    
C13   O22   S    
C16   H4    S    
O9    C5    A    
C9    C11   A    
C10   C12   A    
C26   C28   A    
O14   V2    S    
O2    C4    A    
C19   C22   A    
C29   O27   S    
C24   C27   A    
O23   H13   S    
O4    V2    S    
C31   C33   A    
C10   H2    S    
C3    C40   S    
C6    C28   S    
C17   C21   A    
C38   H10   S    
C35   C37   A    
O28   H18   S    
C24   C26   A    
