data_mof_unit_2435.cif
_audit_creation_date              2012-12-10T17:19:52-0500
_audit_creation_method            fapswitch 2.2
_symmetry_space_group_name_H-M    P1
_symmetry_Int_Tables_number       1
_space_group_crystal_system       triclinic
_cell_length_a                    9.653417
_cell_length_b                    10.857442
_cell_length_c                    15.349356
_cell_angle_alpha                 84.275852
_cell_angle_beta                  74.036585
_cell_angle_gamma                 91.499486
_cell_volume                      1536.61867714

loop_
_atom_site_label
_atom_site_type_symbol
_atom_type_description
_atom_site_fract_x
_atom_site_fract_y
_atom_site_fract_z
_atom_type_partial_charge
C1    C     C_R   0.000691 0.263369 0.495098 0.808193
C2    C     C_R   0.671482 0.459430 0.913884 0.098900
C3    C     C_R   0.769962 0.489502 0.963113 0.156818
C4    C     C_R   0.523173 0.431189 0.961200 0.029564
C5    C     C_R   0.471611 0.455647 0.052911 0.132566
C6    C     C_R   0.572940 0.481311 0.100814 -0.107876
C7    C     C_R   0.719889 0.496468 0.056747 -0.163656
C8    C     C_R   0.426351 0.375343 0.920970 -0.301876
C9    C     C_R   0.281440 0.344290 0.969382 0.478096
C10   C     C_R   0.227314 0.377004 0.059180 -0.112398
C11   C     C_R   0.320820 0.444733 0.096645 -0.101159
C12   C     C_R   0.917633 0.497292 0.672737 0.797870
C13   C     C_R   0.082623 0.346667 0.112844 0.401400
C14   C     C_R   0.031918 0.388860 0.198892 0.241303
C15   C     C_R   0.260436 0.502909 0.175551 0.273445
C16   C     C_R   0.264309 0.136239 0.416314 -0.121360
C17   C     C_R   0.394954 0.087734 0.419048 -0.202727
C18   C     C_R   0.395606 0.972191 0.468207 0.470627
C19   C     C_R   0.266757 0.899085 0.502048 -0.107227
C20   C     C_R   0.134413 0.943902 0.493048 -0.024003
C21   C     C_R   0.132622 0.070786 0.464480 0.096565
C22   C     C_R   0.001027 0.129567 0.490446 -0.143492
C23   C     C_R   0.999344 0.736602 0.507421 0.879692
C24   C     C_R   0.871918 0.058466 0.530185 -0.216255
C25   C     C_R   0.871314 0.929998 0.542611 0.389689
C26   C     C_R   0.002191 0.870517 0.517441 -0.187134
C27   C     C_R   0.694751 0.683722 0.374868 0.420127
C28   C     C_R   0.638247 0.778932 0.327627 0.246978
C29   C     C_R   0.493864 0.770875 0.329083 0.301271
C30   C     C_R   0.405371 0.675640 0.384032 -0.126601
C31   C     C_R   0.451353 0.587684 0.442319 -0.034330
C32   C     C_R   0.601505 0.589028 0.440312 0.022856
C33   C     C_R   0.550106 0.415647 0.555102 0.503339
C34   C     C_R   0.081081 0.494525 0.327790 0.910437
C35   C     C_R   0.401513 0.415093 0.555358 0.376005
C36   C     C_R   0.870204 0.490684 0.773061 -0.062499
C37   C     C_R   0.121946 0.466417 0.231502 -0.274651
C38   C     C_R   0.917414 0.512637 0.917974 -0.090258
C39   C     C_R   0.967423 0.512308 0.823592 -0.154598
C40   C     C_R   0.723759 0.463360 0.818552 -0.192441
Cu1   Cu    Cu3+1 0.140660 0.499990 0.500010 0.956593
Cu2   Cu    Cu3+1 0.859340 0.500010 0.499990 1.070737
H1    H     H_    0.794250 0.516271 0.095802 0.150171
H2    H     H_    0.771497 0.102889 0.554847 0.209913
H3    H     H_    0.267268 0.226852 0.379208 0.163748
H4    H     H_    0.494476 0.142611 0.386731 0.142890
H5    H     H_    0.271583 0.811492 0.540733 0.184151
H6    H     H_    0.299229 0.675191 0.377819 0.267538
H7    H     H_    0.993726 0.532931 0.955576 0.149167
H8    H     H_    0.081210 0.532249 0.790008 0.167247
H9    H     H_    0.650733 0.450382 0.777873 0.177021
H10   H     H_    0.539856 0.485132 0.173757 0.175324
H11   H     H_    0.463269 0.347258 0.853362 0.145214
N1    N     N_R   0.648320 0.501210 0.499140 -0.198417
N2    N     N_R   0.352470 0.501290 0.499110 -0.238410
O1    O     O_R   0.118810 0.319640 0.500010 -0.600575
O2    O     O_R   0.881240 0.319660 0.500000 -0.530407
O3    O     O_R   0.055570 0.499980 0.629840 -0.617070
O4    O     O_R   0.818000 0.500010 0.629830 -0.528321
O5    O     O_R   0.118760 0.680340 0.500000 -0.635839
O6    O     O_R   0.881190 0.680360 0.499990 -0.462177
O7    O     O_R   0.182000 0.499990 0.370170 -0.591307
O8    O     O_R   0.944430 0.500020 0.370160 -0.532977
Cl1   Cl    Cl    0.960288 0.249682 0.079602 -0.467599
O9    O     O_3   0.520149 0.927319 0.483003 -0.694491
H12   H     H_    0.600775 0.990197 0.455489 0.341630
Cl2   Cl    Cl    0.707362 0.848605 0.603969 -0.550884
O10   O     O_3   0.599506 0.330907 0.611308 -0.712245
H13   H     H_    0.519061 0.274715 0.650031 0.349112
O11   O     O_3   0.841394 0.687782 0.355275 -0.664131
H14   H     H_    0.887180 0.725422 0.291830 0.356167
O12   O     O_3   0.728708 0.879775 0.281691 -0.699272
H15   H     H_    0.671475 0.954185 0.281646 0.349198
Cl3   Cl    Cl    0.336398 0.647063 0.188301 -0.604040
O13   O     O_3   0.434136 0.854718 0.278028 -0.670602
H16   H     H_    0.510093 0.889758 0.222773 0.365638
O14   O     O_3   0.310107 0.323847 0.613169 -0.759924
H17   H     H_    0.210335 0.346075 0.621184 0.385591
O15   O     O_3   0.893930 0.351251 0.250412 -0.668427
H18   H     H_    0.840485 0.427670 0.260424 0.331412
O16   O     O_3   0.191408 0.286663 0.927812 -0.657244
H19   H     H_    0.245413 0.272999 0.864851 0.334698

loop_
_geom_bond_atom_site_label_1
_geom_bond_atom_site_label_2
_ccdc_geom_bond_type
C8    C9    A    
C16   C21   A    
C34   C37   S    
Cu1   Cu2   S    
C19   C20   A    
C25   Cl2   S    
C4    C8    A    
O16   H19   S    
C38   H7    S    
O14   H17   S    
C18   O9    S    
C30   H6    S    
C28   C29   A    
C1    O1    A    
Cu1   O3    S    
C5    C11   A    
C3    C7    A    
C5    C6    A    
C19   H5    S    
C34   O7    A    
C18   C19   A    
C23   C26   S    
C15   C37   A    
O10   H13   S    
C12   O4    A    
C11   C15   A    
Cu1   N2    S    
C3    C38   A    
C16   C17   A    
O11   H14   S    
C7    H1    S    
C12   C36   S    
C9    C10   A    
C12   O3    A    
C1    C22   S    
C21   C22   A    
C28   O12   S    
Cu1   O7    S    
Cu2   O2    S    
C32   N1    A    
C23   O5    A    
C35   N2    A    
C36   C40   A    
C38   C39   A    
C24   C25   A    
O12   H15   S    
C25   C26   A    
C35   O14   S    
C16   H3    S    
C2    C4    A    
O13   H16   S    
Cu1   O1    S    
C29   C30   A    
C1    O2    A    
C31   C32   A    
C39   H8    S    
C17   C18   A    
C14   O15   S    
C17   H4    S    
Cu2   O6    S    
C27   O11   S    
C24   H2    S    
C22   C24   A    
C33   N1    A    
C27   C32   A    
C36   C39   A    
Cu1   O5    S    
C4    C5    A    
C10   C13   A    
C8    H11   S    
C6    C7    A    
C29   O13   S    
C40   H9    S    
C31   N2    A    
C2    C3    A    
Cu2   N1    S    
C14   C37   A    
C30   C31   A    
C13   Cl1   S    
C20   C26   A    
C34   O8    A    
C33   C35   A    
C10   C11   A    
O15   H18   S    
C2    C40   A    
C23   O6    A    
C15   Cl3   S    
C20   C21   A    
O9    H12   S    
Cu2   O4    S    
C27   C28   A    
C6    H10   S    
C13   C14   A    
Cu2   O8    S    
C33   O10   S    
C9    O16   S    
