data_mof_unit_4999.cif
_audit_creation_date              2012-10-26T20:34:05-0400
_audit_creation_method            fapswitch 2.2
_symmetry_space_group_name_H-M    P1
_symmetry_Int_Tables_number       1
_space_group_crystal_system       triclinic
_cell_length_a                    15.891332
_cell_length_b                    9.089206
_cell_length_c                    7.812843
_cell_angle_alpha                 89.984633
_cell_angle_beta                  89.608027
_cell_angle_gamma                 89.703364
_cell_volume                      1128.44227899

loop_
_atom_site_label
_atom_site_type_symbol
_atom_type_description
_atom_site_fract_x
_atom_site_fract_y
_atom_site_fract_z
_atom_type_partial_charge
C1    C     C_R   0.500001 0.220133 0.500018 0.547260
C2    C     C_3   0.051064 0.491246 0.309514 -0.072878
C3    C     C_3   0.949674 0.310586 0.568317 -0.087790
C4    C     C_3   0.951882 0.489617 0.305037 -0.071646
C5    C     C_1   0.749297 0.487568 0.497538 -0.043336
C6    C     C_1   0.250604 0.492565 0.502475 -0.051182
C7    C     C_3   0.083822 0.466070 0.498521 0.045219
C8    C     C_3   0.916450 0.460822 0.490627 0.050145
C9    C     C_3   0.949054 0.587264 0.608706 -0.271031
C10   C     C_3   0.046024 0.598003 0.602937 -0.273727
C11   C     C_R   0.910438 0.168915 0.492480 0.041515
C12   C     C_1   0.824401 0.474214 0.494703 -0.063958
C13   C     C_R   0.955963 0.058564 0.403711 -0.090591
C14   C     C_R   0.916110 0.934966 0.336779 -0.136293
C15   C     C_R   0.830412 0.913633 0.364116 -0.107464
C16   C     C_R   0.784642 0.015934 0.459446 -0.101616
C17   C     C_R   0.824243 0.140932 0.523813 -0.087492
C18   C     C_R   0.903202 0.414488 0.159847 0.033782
C19   C     C_R   0.919369 0.270575 0.103272 -0.074500
C20   C     C_R   0.861207 0.195254 0.002813 -0.123830
C21   C     C_R   0.787260 0.264825 0.951289 -0.107411
C22   C     C_R   0.773345 0.411873 0.992821 -0.096426
C23   C     C_1   0.175461 0.481050 0.503687 -0.065320
C24   C     C_R   0.830785 0.486330 0.095287 -0.106175
C25   C     C_R   0.098686 0.178215 0.615465 0.010414
C26   C     C_R   0.068185 0.076098 0.737376 -0.091130
C27   C     C_R   0.111247 0.945149 0.771246 -0.127032
C28   C     C_R   0.186309 0.913322 0.685561 -0.113845
C29   C     C_R   0.218475 0.012871 0.566585 -0.121348
C30   C     C_R   0.175694 0.144413 0.532488 -0.111250
C31   C     C_R   0.104085 0.428084 0.161196 0.029348
C32   C     C_R   0.128279 0.279746 0.153425 -0.107137
C33   C     C_R   0.188864 0.230204 0.036212 -0.113835
C34   C     C_R   0.339888 0.500536 0.500639 0.534942
C35   C     C_R   0.227449 0.329144 0.924884 -0.072560
C36   C     C_R   0.204547 0.477222 0.929683 -0.102689
C37   C     C_R   0.142689 0.525995 0.044148 -0.117131
C38   C     C_R   0.660094 0.498904 0.499404 0.538760
C39   C     C_1   0.499945 0.934612 0.499994 -0.064418
C40   C     C_1   0.499963 0.065415 0.500034 -0.063686
C41   C     C_R   0.499947 0.779882 0.499989 0.546198
C42   C     C_3   0.048660 0.322538 0.593074 -0.088267
Cu1   Cu    Cu3+1 0.500000 0.500010 0.669080 0.989875
Cu2   Cu    Cu3+1 0.500000 0.500010 0.330920 1.013411
H1    H     H_    0.070454 0.600064 0.735609 0.121195
H2    H     H_    0.952280 0.856093 0.262999 0.084582
H3    H     H_    0.799733 0.817193 0.313501 0.104605
H4    H     H_    0.718334 0.998369 0.484230 0.109983
H5    H     H_    0.786827 0.214797 0.600533 0.102775
H6    H     H_    0.974677 0.212986 0.140263 0.111320
H7    H     H_    0.872992 0.081963 0.966901 0.106646
H8    H     H_    0.740838 0.205018 0.878941 0.113567
H9    H     H_    0.716664 0.466998 0.950480 0.144129
H10   H     H_    0.815763 0.598156 0.132364 0.091785
H11   H     H_    0.010751 0.098546 0.807781 0.097558
H12   H     H_    0.064523 0.705658 0.546604 0.133752
H13   H     H_    0.086443 0.868716 0.864805 0.090816
H14   H     H_    0.219675 0.811773 0.711665 0.108546
H15   H     H_    0.277114 0.988468 0.500898 0.113430
H16   H     H_    0.204298 0.216476 0.440743 0.126314
H17   H     H_    0.102708 0.202459 0.241268 0.095020
H18   H     H_    0.207098 0.115329 0.034332 0.119621
H19   H     H_    0.275294 0.291236 0.835821 0.138987
H20   H     H_    0.235404 0.555453 0.846592 0.123037
H21   H     H_    0.127768 0.642365 0.045511 0.078659
H22   H     H_    0.928273 0.568062 0.743309 0.129094
H23   H     H_    0.921740 0.695119 0.570334 0.136934
H24   H     H_    0.064237 0.610674 0.291313 0.092136
H25   H     H_    0.053709 0.356244 0.730097 0.130016
H26   H     H_    0.935214 0.607238 0.283068 0.081766
H27   H     H_    0.924213 0.309071 0.701423 0.106846
H28   H     H_    0.021700 0.066124 0.378716 0.110987
N1    N     N_1   0.500000 0.499970 0.076820 -0.084540
N2    N     N_1   0.500000 0.499970 0.923180 -0.087993
O1    O     O_R   0.500000 0.288400 0.642760 -0.497869
O2    O     O_R   0.500000 0.288400 0.357240 -0.492047
O3    O     O_R   0.379440 0.500020 0.642850 -0.512881
O4    O     O_R   0.379440 0.500020 0.357150 -0.486043
O5    O     O_R   0.620560 0.500020 0.642850 -0.511517
O6    O     O_R   0.620560 0.500020 0.357150 -0.495839
O7    O     O_R   0.500000 0.711620 0.642810 -0.493980
O8    O     O_R   0.500000 0.711620 0.357190 -0.495277

loop_
_geom_bond_atom_site_label_1
_geom_bond_atom_site_label_2
_ccdc_geom_bond_type
C8    C9    S    
C7    C10   S    
C3    C42   S    
N1    N2    T    
C3    H27   S    
C19   C20   A    
C15   H3    S    
C4    C8    S    
C26   H11   S    
C16   H4    S    
C4    H26   S    
C14   H2    S    
C26   C27   A    
C18   C24   A    
C36   C37   A    
C32   H17   S    
C20   H7    S    
C2    H24   S    
C34   O3    A    
C38   O5    A    
C6    C23   T    
C24   H10   S    
C15   C16   A    
C18   C19   A    
C7    C42   S    
Cu2   O2    S    
C9    H22   S    
C1    C40   S    
C11   C17   A    
C29   H15   S    
C16   C17   A    
C37   H21   S    
C13   C14   A    
C10   H12   S    
C9    C10   S    
C4    C18   S    
Cu1   N2    S    
C21   C22   A    
C22   H9    S    
Cu1   O1    S    
C1    O1    A    
Cu2   O6    S    
C5    C12   T    
C39   C41   S    
C3    C8    S    
C27   H13   S    
C17   H5    S    
C39   C40   T    
C33   H18   S    
C25   C26   A    
C42   H25   S    
C31   C37   A    
C30   H16   S    
C2    C31   S    
C35   C36   A    
C2    C4    S    
Cu1   Cu2   S    
C9    H23   S    
C29   C30   A    
C31   C32   A    
C8    C12   S    
C41   O7    A    
C10   H1    S    
C2    C7    S    
Cu1   O7    S    
C22   C24   A    
C25   C30   A    
C28   C29   A    
C1    O2    A    
C25   C42   S    
C13   H28   S    
C28   H14   S    
Cu1   O3    S    
Cu2   O8    S    
C32   C33   A    
Cu2   O4    S    
C36   H20   S    
C34   O4    A    
C11   C13   A    
C19   H6    S    
C38   O6    A    
C7    C23   S    
C41   O8    A    
C33   C35   A    
Cu2   N1    S    
C3    C11   S    
C6    C34   S    
C20   C21   A    
C27   C28   A    
C14   C15   A    
C35   H19   S    
C5    C38   S    
Cu1   O5    S    
C21   H8    S    
