data_mof_unit_2852.cif
_audit_creation_date              2012-10-26T20:20:48-0400
_audit_creation_method            fapswitch 2.2
_symmetry_space_group_name_H-M    P1
_symmetry_Int_Tables_number       1
_space_group_crystal_system       triclinic
_cell_length_a                    8.730335
_cell_length_b                    10.831532
_cell_length_c                    9.553134
_cell_angle_alpha                 89.734211
_cell_angle_beta                  97.6624
_cell_angle_gamma                 90.70429
_cell_volume                      895.23405558

loop_
_atom_site_label
_atom_site_type_symbol
_atom_type_description
_atom_site_fract_x
_atom_site_fract_y
_atom_site_fract_z
_atom_type_partial_charge
C1    C     C_R   0.499827 0.262174 0.500131 0.557844
C2    C     C_R   0.502755 0.063336 0.627616 -0.119669
C3    C     C_R   0.500189 0.871734 0.499806 0.025085
C4    C     C_R   0.499811 0.128266 0.500193 0.025085
C5    C     C_R   0.403433 0.423205 0.063862 -0.006032
C6    C     C_R   0.596567 0.576795 0.936139 -0.006031
C7    C     C_R   0.403076 0.422851 0.915419 0.091589
C8    C     C_R   0.596924 0.577149 0.084581 0.091589
C9    C     C_1   0.298801 0.339137 0.832780 0.222190
C10   C     C_1   0.701199 0.660863 0.167220 0.222190
C11   C     C_R   0.500173 0.737826 0.499869 0.557844
C12   C     C_R   0.203937 0.499840 0.463947 0.557430
C13   C     C_R   0.796063 0.500160 0.536053 0.557430
C14   C     C_2   0.038210 0.499555 0.444052 -0.132641
C15   C     C_2   0.961790 0.500445 0.555948 -0.132641
C16   C     C_R   0.497042 0.064391 0.372566 -0.132031
C17   C     C_R   0.502958 0.935609 0.627433 -0.132031
C18   C     C_R   0.497245 0.936664 0.372384 -0.119669
Cu1   Cu    Cu3+1 0.500000 0.500020 0.640660 0.970989
Cu2   Cu    Cu3+1 0.500000 0.499980 0.359340 0.970989
H1    H     H_    0.978823 0.498527 0.336524 0.138638
H2    H     H_    0.021177 0.501473 0.663476 0.138638
H3    H     H_    0.494612 0.112813 0.272837 0.132909
H4    H     H_    0.505388 0.887187 0.727163 0.132909
H5    H     H_    0.494912 0.889085 0.272627 0.143411
H6    H     H_    0.505088 0.110915 0.727373 0.143411
H7    H     H_    0.326515 0.361817 0.111990 0.117923
H8    H     H_    0.673485 0.638183 0.888010 0.117923
N1    N     N_R   0.500040 0.500030 0.852080 -0.248158
N2    N     N_R   0.499960 0.499970 0.147920 -0.248158
N3    N     N_1   0.214522 0.271441 0.767157 -0.313869
N4    N     N_1   0.785478 0.728558 0.232843 -0.313869
O1    O     O_R   0.499990 0.319660 0.618740 -0.495397
O2    O     O_R   0.500010 0.680340 0.381260 -0.495397
O3    O     O_R   0.499990 0.319630 0.381170 -0.515912
O4    O     O_R   0.500010 0.680370 0.618830 -0.515912
O5    O     O_R   0.274840 0.500010 0.591370 -0.490586
O6    O     O_R   0.725160 0.499990 0.408630 -0.490586
O7    O     O_R   0.274830 0.499980 0.353800 -0.503713
O8    O     O_R   0.725170 0.500020 0.646200 -0.503713

loop_
_geom_bond_atom_site_label_1
_geom_bond_atom_site_label_2
_ccdc_geom_bond_type
C4    C16   A    
C2    C4    A    
C7    N1    A    
Cu2   O6    S    
Cu1   Cu2   S    
C1    C4    S    
C8    N2    A    
C12   O7    A    
C1    O1    A    
C2    H6    S    
Cu2   N2    S    
C2    C17   A    
C13   O6    A    
C18   H5    S    
C14   H1    S    
C8    C10   S    
C11   O4    A    
C15   H2    S    
C12   C14   S    
C3    C17   A    
C16   H3    S    
C5    C7    A    
Cu1   O4    S    
C13   C15   S    
C17   H4    S    
C3    C11   S    
Cu1   O8    S    
C9    N3    T    
Cu2   O2    S    
Cu1   N1    S    
C10   N4    T    
C6    N1    A    
C1    O3    A    
C3    C18   A    
C16   C18   A    
C5    N2    A    
Cu1   O1    S    
C12   O5    A    
C7    C9    S    
Cu2   O7    S    
C14   C15   D    
C13   O8    A    
C6    C8    A    
Cu1   O5    S    
C5    H7    S    
Cu2   O3    S    
C11   O2    A    
C6    H8    S    
