data_mof_unit_1793.cif
_audit_creation_date              2012-12-10T17:15:49-0500
_audit_creation_method            fapswitch 2.2
_symmetry_space_group_name_H-M    P1
_symmetry_Int_Tables_number       1
_space_group_crystal_system       triclinic
_cell_length_a                    10.143398
_cell_length_b                    10.644981
_cell_length_c                    10.688024
_cell_angle_alpha                 91.4672
_cell_angle_beta                  94.65932
_cell_angle_gamma                 84.859758
_cell_volume                      1145.41820256

loop_
_atom_site_label
_atom_site_type_symbol
_atom_type_description
_atom_site_fract_x
_atom_site_fract_y
_atom_site_fract_z
_atom_type_partial_charge
C1    C     C_R   0.445845 0.517146 0.268013 0.869686
C2    C     C_R   0.545480 0.053332 0.387600 -0.010265
C3    C     C_R   0.479879 0.128948 0.478093 -0.104798
C4    C     C_R   0.430284 0.076602 0.580707 -0.237309
C5    C     C_R   0.447446 0.948185 0.597614 -0.155048
C6    C     C_R   0.523874 0.873807 0.514609 -0.100081
C7    C     C_2   0.416914 0.542928 0.136509 0.438607
C8    C     C_2   0.513331 0.577089 0.069431 0.347348
C9    C     C_2   0.584736 0.517285 0.866653 -0.398954
C10   C     C_2   0.492179 0.576619 0.935102 0.683265
C11   C     C_2   0.075015 0.468498 0.513700 -0.069947
C12   C     C_R   0.492957 0.261342 0.488096 0.879356
C13   C     C_2   0.930991 0.483474 0.533128 0.085132
C14   C     C_R   0.554987 0.498306 0.733169 0.965234
C15   C     C_R   0.506710 0.740192 0.504978 0.839531
C16   C     C_R   0.569965 0.095030 0.266333 -0.159170
C17   C     C_R   0.662458 0.022291 0.195511 -0.104185
C18   C     C_R   0.735491 0.918082 0.250159 -0.263671
C19   C     C_R   0.705236 0.873586 0.365576 -0.064130
C20   C     C_R   0.592539 0.930992 0.423085 0.077087
H1    H     H_    0.384795 0.137040 0.651528 0.190636
H2    H     H_    0.897574 0.524724 0.619854 0.141102
H3    H     H_    0.817814 0.873061 0.202519 0.171899
H4    H     H_    0.680954 0.481119 0.909836 0.196100
N1    N     N_2   0.157290 0.551390 0.551110 -0.227416
N2    N     N_2   0.842740 0.448550 0.448960 0.160971
O1    O     O_R   0.568950 0.489660 0.307530 -0.535905
O2    O     O_R   0.348880 0.522640 0.340350 -0.555801
O3    O     O_R   0.610060 0.300270 0.483590 -0.583023
O4    O     O_R   0.389990 0.333260 0.516410 -0.639871
O5    O     O_R   0.651120 0.477360 0.659650 -0.631260
O6    O     O_R   0.431050 0.510340 0.692470 -0.546514
O7    O     O_R   0.610010 0.666740 0.483590 -0.634104
O8    O     O_R   0.389940 0.699730 0.516410 -0.599865
Zn1   Zn    Zn3+2 0.646940 0.477980 0.478090 1.110639
Zn2   Zn    Zn3+2 0.353060 0.522020 0.521910 1.083544
F1    F     F_    0.293785 0.524555 0.082092 -0.551196
C21   C     C_2   0.122597 0.354069 0.444945 1.093386
O9    O     O_2   0.162384 0.362693 0.341090 -0.486363
O10   O     O_R   0.112754 0.235693 0.495252 -0.805697
H5    H     H_    0.146114 0.163972 0.438551 0.338868
F2    F     F_    0.879373 0.417412 0.333893 -0.503154
C22   C     C_2   0.114656 0.659528 0.623116 1.145973
O11   O     O_2   0.130350 0.764462 0.586433 -0.572262
O12   O     O_R   0.062229 0.645729 0.738518 -0.753386
H6    H     H_    0.038059 0.729755 0.781373 0.388853
C23   C     C_2   0.491977 0.206077 0.208067 0.932882
O13   O     O_2   0.547546 0.279010 0.148503 -0.566239
O14   O     O_R   0.354625 0.225276 0.213872 -0.697822
H7    H     H_    0.316095 0.153543 0.254848 0.313495
C24   C     C_2   0.686296 0.052463 0.064484 1.045903
O15   O     O_2   0.592414 0.069487 0.985952 -0.532428
O16   O     O_R   0.814843 0.058768 0.028044 -0.714447
H8    H     H_    0.885376 0.050703 0.100820 0.326418
C25   C     C_2   0.811791 0.793903 0.437259 0.995270
O17   O     O_2   0.827282 0.806944 0.551227 -0.566123
O18   O     O_R   0.898489 0.707093 0.377179 -0.767061
H9    H     H_    0.866851 0.686407 0.287405 0.368238
C26   C     C_2   0.401164 0.896204 0.712401 1.074232
O19   O     O_2   0.472571 0.815952 0.770785 -0.549058
O20   O     O_R   0.279780 0.940149 0.758157 -0.694455
H10   H     H_    0.223867 0.000872 0.699804 0.336317
F3    F     F_    0.371275 0.624561 0.883448 -0.563670
F4    F     F_    0.636232 0.598639 0.122781 -0.655294

loop_
_geom_bond_atom_site_label_1
_geom_bond_atom_site_label_2
_ccdc_geom_bond_type
C11   C21   S    
C26   O19   D    
C9    C14   S    
C9    H4    S    
O16   H8    S    
C24   O15   D    
C12   O3    A    
C1    O2    A    
C6    C20   A    
C9    C10   D    
O3    Zn1   S    
C15   O8    A    
C19   C20   A    
O4    Zn2   S    
C14   O5    A    
C25   O17   D    
C12   O4    A    
N1    C22   S    
C10   F3    S    
C17   C18   A    
C7    F1    S    
C7    C8    D    
C23   O14   S    
O12   H6    S    
C21   O10   S    
C4    H1    S    
C22   O12   S    
N2    F2    S    
O18   H9    S    
C5    C6    A    
C8    F4    S    
O6    Zn2   S    
C16   C23   S    
O10   H5    S    
O7    Zn1   S    
C13   H2    S    
C2    C3    A    
O8    Zn2   S    
C25   O18   S    
C22   O11   D    
O20   H10   S    
O5    Zn1   S    
C13   N2    D    
C26   O20   S    
C16   C17   A    
C5    C26   S    
N1    Zn2   S    
C2    C20   A    
C18   H3    S    
C23   O13   D    
N2    Zn1   S    
C11   C13   S    
C2    C16   A    
O2    Zn2   S    
C17   C24   S    
C8    C10   S    
O14   H7    S    
C19   C25   S    
C1    O1    A    
C11   N1    D    
C18   C19   A    
C3    C12   S    
O1    Zn1   S    
C6    C15   S    
C1    C7    S    
C15   O7    A    
C3    C4    A    
C14   O6    A    
C4    C5    A    
C24   O16   S    
C21   O9    D    
