data_mof_unit_2382.cif
_audit_creation_date              2012-12-11T16:27:23-0500
_audit_creation_method            fapswitch 2.2
_symmetry_space_group_name_H-M    P1
_symmetry_Int_Tables_number       1
_space_group_crystal_system       triclinic
_cell_length_a                    21.708854
_cell_length_b                    6.94049
_cell_length_c                    14.755064
_cell_angle_alpha                 89.876727
_cell_angle_beta                  105.007516
_cell_angle_gamma                 89.931058
_cell_volume                      2147.31081148

loop_
_atom_site_label
_atom_site_type_symbol
_atom_type_description
_atom_site_fract_x
_atom_site_fract_y
_atom_site_fract_z
_atom_type_partial_charge
O1    O     O_R   0.835850 0.638310 0.002120 -0.536872
O2    O     O_R   0.164150 0.361690 0.997880 -0.538176
O3    O     O_R   0.664150 0.138310 0.997880 -0.537006
O4    O     O_R   0.335850 0.861690 0.002120 -0.538977
O5    O     O_R   0.717530 0.306070 0.861970 -0.546309
O6    O     O_R   0.282470 0.693930 0.138030 -0.541368
O7    O     O_R   0.782470 0.806070 0.138030 -0.546020
O8    O     O_R   0.217530 0.193930 0.861970 -0.542584
C1    C     C_R   0.703718 0.477472 0.824461 0.721024
C2    C     C_R   0.295162 0.521553 0.175636 0.703859
C3    C     C_R   0.796974 0.976860 0.175221 0.723363
C4    C     C_R   0.205441 0.022050 0.824478 0.704553
O9    O     O_R   0.838690 0.308440 0.993250 -0.541106
O10   O     O_R   0.161310 0.691560 0.006750 -0.538849
O11   O     O_R   0.661310 0.808440 0.006750 -0.539871
O12   O     O_R   0.338690 0.191560 0.993250 -0.538815
O13   O     O_R   0.786170 0.140510 0.130090 -0.541470
O14   O     O_R   0.213830 0.859490 0.869910 -0.542234
O15   O     O_R   0.713830 0.640510 0.869910 -0.541441
O16   O     O_R   0.286170 0.359490 0.130090 -0.542283
C5    C     C_R   0.864986 0.477482 0.996295 0.692897
C6    C     C_R   0.135105 0.522830 0.003739 0.695410
C7    C     C_R   0.634566 0.977473 0.001444 0.693718
C8    C     C_R   0.365020 0.022771 0.997175 0.694859
O17   O     O_3   0.732630 0.472520 0.044740 -0.368484
O18   O     O_3   0.267370 0.527480 0.955260 -0.368990
O19   O     O_3   0.767370 0.972520 0.955260 -0.369438
O20   O     O_3   0.232630 0.027480 0.044740 -0.368640
V1    V     V_3+5 0.753220 0.196740 0.991700 1.411802
V2    V     V_3+5 0.246780 0.803260 0.008300 1.412996
V3    V     V_3+5 0.746780 0.696740 0.008300 1.413404
V4    V     V_3+5 0.253220 0.303260 0.991700 1.412549
H1    H     H_    0.610150 0.179275 0.309366 0.109180
H2    H     H_    0.386656 0.873256 0.682157 0.105551
H3    H     H_    0.891645 0.663628 0.686629 0.109732
H4    H     H_    0.109422 0.384793 0.318630 0.106189
C9    C     C_R   0.533994 0.913158 0.831454 -0.150510
C10   C     C_R   0.464312 0.115108 0.162710 -0.151903
C11   C     C_R   0.964005 0.414108 0.166412 -0.149124
C12   C     C_R   0.036582 0.610855 0.836599 -0.153081
C13   C     C_R   0.487000 0.886718 0.747952 -0.130756
C14   C     C_R   0.510816 0.158827 0.244257 -0.107178
C15   C     C_R   0.010166 0.390675 0.250707 -0.136830
C16   C     C_R   0.990490 0.650545 0.753975 -0.107945
C17   C     C_R   0.422915 0.896349 0.746989 -0.130838
C18   C     C_R   0.574807 0.144207 0.246008 -0.132722
C19   C     C_R   0.074285 0.403607 0.253058 -0.135414
C20   C     C_R   0.926438 0.633288 0.751044 -0.130669
C21   C     C_R   0.405279 0.935734 0.829305 -0.128936
C22   C     C_R   0.593202 0.086229 0.166507 -0.139113
C23   C     C_R   0.093106 0.441245 0.171476 -0.127881
C24   C     C_R   0.907407 0.578436 0.830542 -0.139886
C25   C     C_R   0.451829 0.966721 0.914768 0.068894
C26   C     C_R   0.547101 0.043351 0.082170 0.074434
C27   C     C_R   0.047320 0.468913 0.085045 0.067607
C28   C     C_R   0.953038 0.539878 0.915923 0.072653
C29   C     C_R   0.517667 0.954490 0.916058 0.057394
C30   C     C_R   0.481230 0.057141 0.080489 0.064884
C31   C     C_R   0.981297 0.455307 0.082485 0.059924
C32   C     C_R   0.019083 0.554707 0.918697 0.066480
C33   C     C_R   0.433631 0.014167 0.997494 -0.185284
C34   C     C_R   0.565575 0.988638 0.000348 -0.185531
C35   C     C_R   0.066277 0.514618 0.002624 -0.186067
C36   C     C_R   0.933972 0.487765 0.997641 -0.185626
H5    H     H_    0.583185 0.901427 0.828769 0.104296
H6    H     H_    0.415058 0.129020 0.164665 0.110232
H7    H     H_    0.914683 0.400489 0.168099 0.106632
H8    H     H_    0.085943 0.626159 0.835494 0.111290
H9    H     H_    0.500463 0.854780 0.683878 0.117738
H10   H     H_    0.497253 0.204746 0.306439 0.122843
H11   H     H_    0.996066 0.359588 0.314444 0.123620
H12   H     H_    0.004352 0.695097 0.691765 0.122246
H13   H     H_    0.354867 0.944377 0.825003 0.085595
H14   H     H_    0.643739 0.076793 0.171713 0.090421
H15   H     H_    0.143683 0.451533 0.177133 0.084141
H16   H     H_    0.856810 0.567329 0.824514 0.086659
C37   C     C_R   0.181177 0.999946 0.722325 -0.135368
C38   C     C_R   0.827414 0.989342 0.277081 -0.158585
C39   C     C_R   0.321221 0.498452 0.277948 -0.156687
C40   C     C_R   0.674557 0.491261 0.722033 -0.157953
C41   C     C_R   0.184554 0.799361 0.589524 0.287291
C42   C     C_R   0.821272 0.115706 0.428207 0.314504
C43   C     C_R   0.318596 0.309698 0.416255 0.291868
C44   C     C_R   0.681689 0.622175 0.571507 0.313246
C45   C     C_R   0.212591 0.867846 0.679105 -0.285898
C46   C     C_R   0.793647 0.080700 0.332871 -0.240536
C47   C     C_R   0.290184 0.370502 0.324239 -0.246076
C48   C     C_R   0.708676 0.585580 0.667222 -0.241436
C49   C     C_R   0.121381 0.073284 0.672974 0.196427
C50   C     C_R   0.890948 0.927091 0.315894 0.218962
C51   C     C_R   0.381034 0.573510 0.325692 0.198965
C52   C     C_R   0.611713 0.426480 0.681265 0.217953
C53   C     C_R   0.086827 0.980998 0.588250 -0.019666
C54   C     C_R   0.923012 0.972906 0.411942 0.002588
C55   C     C_R   0.416948 0.481097 0.409871 -0.001949
C56   C     C_R   0.580756 0.473596 0.584955 -0.000702
C57   C     C_R   0.120505 0.847953 0.545536 0.045895
C58   C     C_R   0.887232 0.076197 0.465243 -0.003418
C59   C     C_R   0.384361 0.347175 0.454097 0.002768
C60   C     C_R   0.616032 0.582643 0.533372 -0.001682
C61   C     C_R   0.019747 0.009960 0.546597 0.072243
C62   C     C_R   0.989122 0.926728 0.457431 0.078960
C63   C     C_R   0.484045 0.512304 0.450640 0.069353
C64   C     C_R   0.515726 0.423463 0.538099 0.073650
C65   C     C_R   0.024809 0.790865 0.421290 -0.186756
C66   C     C_R   0.981120 0.102855 0.595960 -0.150737
C67   C     C_R   0.482824 0.276047 0.570932 -0.150961
C68   C     C_R   0.521850 0.614250 0.402889 -0.155065
C69   C     C_R   0.088731 0.755654 0.462837 -0.206456
C70   C     C_R   0.917541 0.138353 0.556050 -0.209445
C71   C     C_R   0.418753 0.242476 0.531940 -0.224956
C72   C     C_R   0.585422 0.650341 0.443348 -0.211084
H17   H     H_    0.112665 0.647973 0.431300 0.159052
H18   H     H_    0.892962 0.220257 0.598243 0.136930
H19   H     H_    0.397338 0.124128 0.560539 0.130129
H20   H     H_    0.609626 0.738140 0.402735 0.136274
H21   H     H_    0.744870 0.122158 0.300535 0.125119
H22   H     H_    0.259080 0.813462 0.716457 0.129074
H23   H     H_    0.757076 0.628552 0.700491 0.125866
H24   H     H_    0.243144 0.320711 0.287773 0.136294
H25   H     H_    0.004009 0.695873 0.364988 0.193221
H26   H     H_    0.997564 0.140412 0.668903 0.170577
H27   H     H_    0.506471 0.173178 0.622543 0.181362
H28   H     H_    0.504979 0.659141 0.330961 0.174718
N1    N     N_2   0.921313 0.822399 0.256670 -0.552861
H29   H     H_    0.893328 0.718340 0.216497 0.266479
C73   C     C_3   0.956303 0.935634 0.204723 -0.524757
H30   H     H_    0.923721 0.035284 0.155905 0.195676
H31   H     H_    0.994844 0.015755 0.253885 0.218957
H32   H     H_    0.978961 0.838972 0.162926 0.207337
N2    N     N_2   0.100247 0.250914 0.702270 -0.538940
H33   H     H_    0.105154 0.263169 0.773366 0.257868
C74   C     C_3   0.123442 0.416933 0.662267 -0.483258
H34   H     H_    0.102041 0.549727 0.682338 0.182387
H35   H     H_    0.110114 0.407144 0.584437 0.209416
H36   H     H_    0.176120 0.426715 0.688838 0.193466
N3    N     N_2   0.580148 0.321244 0.739018 -0.552023
H37   H     H_    0.607799 0.218733 0.781272 0.265210
C75   C     C_3   0.542397 0.433598 0.786944 -0.518056
H38   H     H_    0.573263 0.534857 0.836691 0.194003
H39   H     H_    0.504602 0.511896 0.735152 0.217265
H40   H     H_    0.518672 0.336502 0.827245 0.207375
N4    N     N_2   0.400553 0.752854 0.295747 -0.542468
H41   H     H_    0.393777 0.768058 0.224373 0.259373
C76   C     C_3   0.378615 0.916743 0.338904 -0.481849
H42   H     H_    0.398652 0.050905 0.317581 0.183648
H43   H     H_    0.394630 0.904238 0.416548 0.205686
H44   H     H_    0.325696 0.925999 0.316567 0.203532
N5    N     N_2   0.219177 0.665629 0.548726 -0.549678
H45   H     H_    0.246385 0.570354 0.596597 0.256983
C77   C     C_3   0.256138 0.755153 0.491774 -0.541953
H46   H     H_    0.224088 0.826458 0.430042 0.225139
H47   H     H_    0.283901 0.645181 0.465700 0.208311
H48   H     H_    0.290577 0.859029 0.534229 0.212446
N6    N     N_2   0.783709 0.187307 0.488305 -0.516095
H49   H     H_    0.796045 0.132710 0.555528 0.253503
C78   C     C_3   0.715308 0.202512 0.453187 -0.530816
H50   H     H_    0.694145 0.247975 0.510582 0.203789
H51   H     H_    0.694802 0.060085 0.427645 0.208366
H52   H     H_    0.703254 0.313012 0.396932 0.190127
N7    N     N_2   0.282440 0.210913 0.470907 -0.529486
H53   H     H_    0.299762 0.227555 0.542404 0.255402
C79   C     C_3   0.213593 0.225125 0.442830 -0.586760
H54   H     H_    0.193364 0.161245 0.497770 0.213997
H55   H     H_    0.194006 0.144903 0.376712 0.198627
H56   H     H_    0.198924 0.378082 0.434325 0.225278
N8    N     N_2   0.719575 0.694747 0.512081 -0.515529
H57   H     H_    0.706292 0.645808 0.443964 0.252218
C80   C     C_3   0.788094 0.698697 0.546676 -0.535283
H58   H     H_    0.809809 0.741815 0.489445 0.204209
H59   H     H_    0.806246 0.552795 0.570957 0.211619
H60   H     H_    0.801942 0.806439 0.603654 0.189400

loop_
_geom_bond_atom_site_label_1
_geom_bond_atom_site_label_2
_ccdc_geom_bond_type
O17   V3    S    
C43   C47   A    
O1    C5    A    
C78   H50   S    
C12   C32   A    
C27   C31   A    
N6    C78   S    
O13   V1    S    
C80   H58   S    
O3    C7    A    
C79   H54   S    
C67   H27   S    
O15   V3    S    
C39   C47   A    
N7    H53   S    
C29   C34   A    
N8    C80   S    
C38   C50   A    
O7    C3    A    
N3    C75   S    
C37   C49   A    
C31   C36   A    
C61   C62   A    
C62   C65   A    
C32   C35   A    
C58   C70   A    
O9    V1    S    
C79   H55   S    
C23   H15   S    
C10   C14   A    
C22   H14   S    
C26   C30   A    
O4    C8    A    
C75   H40   S    
C21   C25   A    
C65   H25   S    
O19   V1    S    
H3    C20   S    
C55   C59   A    
N4    H41   S    
C52   C56   A    
H4    C19   S    
O2    V4    S    
C14   C18   A    
C77   H48   S    
O3    V1    S    
C5    C36   S    
C63   C64   A    
N7    C79   S    
C6    C35   S    
C10   C30   A    
C25   C33   A    
C1    O15   A    
C7    C34   S    
C10   H6    S    
C2    O16   A    
C27   C35   A    
O2    C6    A    
C74   H36   S    
C77   H46   S    
C28   C36   A    
C63   C68   A    
O14   V2    S    
C70   H18   S    
C12   C16   A    
O5    V1    S    
C69   H17   S    
C38   C46   A    
C30   C33   A    
O11   C7    A    
C43   N7    S    
C11   C31   A    
O12   C8    A    
C43   C59   A    
C9    C13   A    
H1    C18   S    
C42   C58   A    
C67   C71   A    
C68   H28   S    
C52   N3    S    
C76   H43   S    
C55   C63   A    
C50   C54   A    
C51   N4    S    
O1    V3    S    
O17   V1    S    
C75   H38   S    
O7    V3    S    
O19   V3    S    
C39   C51   A    
O8    V4    S    
O20   V4    S    
C79   H56   S    
C16   C20   A    
C53   C61   A    
N8    H57   S    
C25   C29   A    
O18   V4    S    
C19   C23   A    
C26   C34   A    
C24   H16   S    
O10   V2    S    
C51   C55   A    
O4    V2    S    
C68   C72   A    
C9    H5    S    
C1    C40   S    
C44   C60   A    
C40   C52   A    
C73   H31   S    
C14   H10   S    
O5    C1    A    
C3    C38   S    
C57   C69   A    
C17   C21   A    
O8    C4    A    
C59   C71   A    
C4    C37   S    
C66   H26   S    
O9    C5    A    
H2    C17   S    
C22   C26   A    
C13   C17   A    
C48   H23   S    
C8    C33   S    
C42   N6    S    
O18   V2    S    
O6    V2    S    
C60   C72   A    
C78   H52   S    
C56   C64   A    
N1    H29   S    
C80   H60   S    
C21   H13   S    
C78   H51   S    
C73   H30   S    
C53   C57   A    
C76   H42   S    
C72   H20   S    
C76   H44   S    
C13   H9    S    
O16   V4    S    
C61   C66   A    
N4    C76   S    
C65   C69   A    
C3    O13   A    
C15   H11   S    
C11   H7    S    
C44   C48   A    
N2    C74   S    
N2    H33   S    
O6    C2    A    
C11   C15   A    
C2    C39   S    
O11   V3    S    
O12   V4    S    
N3    H37   S    
C18   C22   A    
C49   N2    S    
O10   C6    A    
N5    C77   S    
C73   H32   S    
C47   H24   S    
C40   C48   A    
C44   N8    S    
C42   C46   A    
N5    H45   S    
C75   H39   S    
C74   H34   S    
C41   C57   A    
C41   N5    S    
C56   C60   A    
O20   V2    S    
C50   N1    S    
C16   H12   S    
C46   H21   S    
C23   C27   A    
C77   H47   S    
C49   C53   A    
C45   H22   S    
C9    C29   A    
C37   C45   A    
C28   C32   A    
C20   C24   A    
C54   C62   A    
C66   C70   A    
C12   H8    S    
C4    O14   A    
N6    H49   S    
N1    C73   S    
C74   H35   S    
C54   C58   A    
C71   H19   S    
C15   C19   A    
C64   C67   A    
C41   C45   A    
C24   C28   A    
C80   H59   S    
