data_mof_unit_1134.cif
_audit_creation_date              2012-10-26T21:09:13-0400
_audit_creation_method            fapswitch 2.2
_symmetry_space_group_name_H-M    P1
_symmetry_Int_Tables_number       1
_space_group_crystal_system       triclinic
_cell_length_a                    15.140752
_cell_length_b                    15.831018
_cell_length_c                    9.892339
_cell_angle_alpha                 91.400996
_cell_angle_beta                  90.032508
_cell_angle_gamma                 90.501034
_cell_volume                      2370.3293611

loop_
_atom_site_label
_atom_site_type_symbol
_atom_type_description
_atom_site_fract_x
_atom_site_fract_y
_atom_site_fract_z
_atom_type_partial_charge
C1    C     C_R   0.383220 0.883342 0.498128 0.577522
C2    C     C_2   0.672998 0.257827 0.433457 0.106065
C3    C     C_2   0.228278 0.290338 0.402323 0.074901
C4    C     C_2   0.173067 0.757768 0.432976 0.106068
C5    C     C_2   0.667131 0.805257 0.498572 0.121291
C6    C     C_2   0.676549 0.190200 0.515129 0.069870
C7    C     C_2   0.166801 0.304969 0.498770 0.120808
C8    C     C_2   0.176376 0.690365 0.515148 0.069643
C9    C     C_2   0.276961 0.210992 0.396975 0.078849
C10   C     C_2   0.235868 0.829463 0.451171 0.136421
C11   C     C_2   0.778283 0.712359 0.396853 0.078625
C12   C     C_R   0.384096 0.117635 0.500768 0.575874
C13   C     C_2   0.735788 0.329515 0.451800 0.136380
C14   C     C_2   0.327245 0.190704 0.502810 -0.077321
C15   C     C_2   0.319511 0.815765 0.489781 -0.023665
C16   C     C_2   0.827610 0.691001 0.503121 -0.077779
C17   C     C_2   0.819541 0.315749 0.489752 -0.023624
C18   C     C_2   0.436317 0.027663 0.926880 0.214746
C19   C     C_2   0.936750 0.528425 0.926996 0.215227
C20   C     C_2   0.429762 0.003337 0.073172 0.266086
C21   C     C_2   0.929863 0.503941 0.073107 0.266281
C22   C     C_3   0.588152 0.999981 0.089041 -0.109729
C23   C     C_R   0.883232 0.383334 0.498125 0.577421
C24   C     C_3   0.671302 0.028972 0.167287 -0.254359
C25   C     C_3   0.754438 0.013934 0.082094 -0.489542
C26   C     C_3   0.088216 0.499496 0.089191 -0.109048
C27   C     C_3   0.171407 0.528440 0.167459 -0.253600
C28   C     C_3   0.254545 0.513074 0.082417 -0.489539
C29   C     C_R   0.884198 0.617730 0.500797 0.575694
C30   C     C_R   0.614580 0.119348 0.502274 0.543462
C31   C     C_R   0.614865 0.881521 0.499224 0.619278
C32   C     C_R   0.114533 0.619395 0.502275 0.543181
C33   C     C_R   0.114790 0.381437 0.499230 0.618362
C34   C     C_2   0.729576 0.791655 0.403260 0.074780
Cu1   Cu    Cu3+1 0.500020 1.000000 0.638630 0.933616
Cu2   Cu    Cu3+1 0.000020 0.500000 0.638630 0.933871
Cu3   Cu    Cu3+1 0.499980 0.000000 0.361370 0.944413
Cu4   Cu    Cu3+1 0.999980 0.500000 0.361370 0.944287
H1    H     H_    0.330974 0.232296 0.591618 0.056823
H2    H     H_    0.542146 0.258838 0.384086 0.236248
H3    H     H_    0.315598 0.364425 0.304695 0.226374
H4    H     H_    0.231708 0.325961 0.207535 0.230332
H5    H     H_    0.110455 0.721861 0.257880 0.245154
H6    H     H_    0.042335 0.758645 0.382820 0.236492
H7    H     H_    0.692589 0.737301 0.667469 0.224164
H8    H     H_    0.632197 0.684301 0.545717 0.230989
H9    H     H_    0.691110 0.197759 0.720023 0.253149
H10   H     H_    0.766551 0.136696 0.638158 0.225854
H11   H     H_    0.193591 0.238355 0.668629 0.224080
H12   H     H_    0.345423 0.752636 0.500123 0.093237
H13   H     H_    0.132045 0.184511 0.549169 0.230910
H14   H     H_    0.190258 0.698479 0.720117 0.253133
H15   H     H_    0.266040 0.637295 0.639258 0.225977
H16   H     H_    0.203515 0.144834 0.260047 0.225349
H17   H     H_    0.295275 0.190726 0.196232 0.234422
H18   H     H_    0.152185 0.926707 0.482754 0.235548
H19   H     H_    0.188493 0.915331 0.321800 0.259034
H20   H     H_    0.705945 0.647693 0.256804 0.225156
H21   H     H_    0.798383 0.694053 0.196097 0.234619
H22   H     H_    0.652106 0.426616 0.484636 0.235745
H23   H     H_    0.830659 0.731841 0.592869 0.057364
H24   H     H_    0.688018 0.415751 0.323397 0.258742
H25   H     H_    0.404075 0.139605 0.844512 0.253865
H26   H     H_    0.330883 0.056247 0.810514 0.271062
H27   H     H_    0.906411 0.640780 0.844291 0.254005
H28   H     H_    0.831334 0.558749 0.811827 0.270430
H29   H     H_    0.302055 0.040357 0.095837 0.242341
H30   H     H_    0.340968 0.992774 0.229211 0.305336
H31   H     H_    0.802779 0.542403 0.096839 0.243375
H32   H     H_    0.840911 0.492591 0.228880 0.304723
H33   H     H_    0.761182 0.945945 0.054240 0.154743
H34   H     H_    0.845536 0.252590 0.499324 0.093068
H35   H     H_    0.751907 0.050922 0.988147 0.154719
H36   H     H_    0.813727 0.034378 0.140880 0.153481
H37   H     H_    0.669529 0.098151 0.186566 0.164576
H38   H     H_    0.681043 0.995514 0.261546 0.247191
H39   H     H_    0.601799 0.934629 0.051629 0.119446
H40   H     H_    0.591275 0.047724 0.009456 0.131733
H41   H     H_    0.261168 0.445007 0.055004 0.155510
H42   H     H_    0.252122 0.549838 0.988233 0.154610
H43   H     H_    0.313850 0.533557 0.141132 0.153152
H44   H     H_    0.169768 0.597645 0.186480 0.164190
H45   H     H_    0.525891 0.943942 0.874885 0.204353
H46   H     H_    0.181134 0.495175 0.261900 0.246777
H47   H     H_    0.101596 0.434053 0.051949 0.119662
H48   H     H_    0.091660 0.547047 0.009361 0.131418
H49   H     H_    0.025344 0.443719 0.875036 0.204261
H50   H     H_    0.817736 0.866832 0.309522 0.226577
H51   H     H_    0.734846 0.829181 0.209611 0.230283
H52   H     H_    0.609937 0.222263 0.258581 0.245059
N1    N     N_2   0.498660 0.000000 0.846910 -0.372418
N2    N     N_3   0.731383 0.193159 0.634376 -0.663730
N3    N     N_3   0.143219 0.243175 0.597337 -0.648267
N4    N     N_3   0.230818 0.693698 0.634810 -0.663664
N5    N     N_3   0.270399 0.157587 0.278175 -0.613738
N6    N     N_3   0.207673 0.913723 0.423213 -0.617610
N7    N     N_3   0.772686 0.660149 0.276639 -0.613159
N8    N     N_3   0.707454 0.413849 0.424671 -0.617962
N9    N     N_3   0.372051 0.086305 0.881780 -0.633371
N10   N     N_3   0.873502 0.588191 0.882339 -0.633093
N11   N     N_3   0.341841 0.990449 0.124701 -0.594986
N12   N     N_2   0.998660 0.500000 0.846910 -0.372324
N13   N     N_3   0.841797 0.491644 0.124356 -0.595841
N14   N     N_2   0.498630 0.000000 0.153040 -0.236689
N15   N     N_2   0.998630 0.500000 0.153040 -0.236722
N16   N     N_3   0.749852 0.854348 0.305584 -0.652808
N17   N     N_3   0.603136 0.267278 0.336442 -0.645477
N18   N     N_3   0.247672 0.352003 0.302582 -0.651800
N19   N     N_3   0.103445 0.767005 0.335496 -0.645459
N20   N     N_3   0.642808 0.742604 0.595320 -0.648640
O1    O     O_R   0.410990 0.910970 0.617040 -0.482576
O2    O     O_R   0.589050 0.910970 0.617100 -0.494534
O3    O     O_R   0.089050 0.589030 0.617100 -0.496912
O4    O     O_R   0.089050 0.410970 0.617100 -0.494043
O5    O     O_R   0.589010 0.089030 0.382960 -0.539496
O6    O     O_R   0.589010 0.910970 0.382960 -0.498268
O7    O     O_R   0.089010 0.589030 0.382960 -0.539427
O8    O     O_R   0.089010 0.410970 0.382960 -0.497973
O9    O     O_R   0.410990 0.089030 0.617040 -0.526136
O10   O     O_R   0.910990 0.410970 0.617040 -0.482046
O11   O     O_R   0.910990 0.589030 0.617040 -0.526167
O12   O     O_R   0.410950 0.910970 0.382900 -0.500745
O13   O     O_R   0.410950 0.089030 0.382900 -0.470025
O14   O     O_R   0.910950 0.410970 0.382900 -0.501586
O15   O     O_R   0.910950 0.589030 0.382900 -0.469229
O16   O     O_R   0.589050 0.089030 0.617100 -0.496736

loop_
_geom_bond_atom_site_label_1
_geom_bond_atom_site_label_2
_ccdc_geom_bond_type
C21   N13   S    
C4    N19   S    
C30   O16   A    
H3    N18   S    
C29   O15   A    
H9    N2    S    
Cu1   O9    S    
C32   O7    A    
C4    C8    D    
Cu2   O4    S    
Cu3   O6    S    
C33   O4    A    
C17   C23   S    
C18   N1    D    
C27   H46   S    
Cu1   Cu3   S    
H52   N17   S    
H22   N8    S    
C10   C15   D    
C19   N12   D    
C5    N20   S    
C22   H39   S    
H49   N12   S    
C2    N17   S    
C22   N14   S    
Cu2   N12   S    
C25   H36   S    
C15   H12   S    
H28   N10   S    
C13   N8    S    
C2    C13   S    
C28   H41   S    
C1    O12   A    
H25   N9    S    
C14   H1    S    
H24   N8    S    
Cu4   O7    S    
H26   N9    S    
H19   N6    S    
C29   O11   A    
H51   N16   S    
C31   O2    A    
H14   N4    S    
C25   H33   S    
C32   O3    A    
C9    N5    S    
C25   H35   S    
H6    N19   S    
H15   N4    S    
C33   O8    A    
Cu3   O13   S    
C7    C33   S    
C2    C6    D    
H20   N7    S    
Cu2   O10   S    
Cu2   O3    S    
C26   N15   S    
C30   O5    A    
H31   N13   S    
C7    N3    S    
C8    C32   S    
C8    N4    S    
C24   C25   S    
C22   H40   S    
H17   N5    S    
C23   O10   A    
H32   N13   S    
C24   H38   S    
C20   N11   S    
C16   C29   S    
C34   N16   S    
Cu1   O16   S    
C9    C14   D    
C3    C9    S    
C12   O9    A    
H50   N16   S    
C11   C16   D    
C10   N6    S    
C26   H48   S    
C5    C34   D    
C26   C27   S    
H30   N11   S    
H16   N5    S    
H13   N3    S    
H2    N17   S    
C1    C15   S    
C6    C30   S    
C12   C14   S    
H8    N20   S    
H10   N2    S    
H21   N7    S    
C22   C24   S    
C16   H23   S    
C4    C10   S    
C31   O6    A    
Cu4   O15   S    
Cu1   O1    S    
H29   N11   S    
H18   N6    S    
C19   C21   S    
C28   H43   S    
H7    N20   S    
C27   H44   S    
C11   C34   S    
H27   N10   S    
Cu3   N14   S    
C19   N10   S    
C24   H37   S    
C23   O14   A    
Cu3   O5    S    
C3    N18   S    
H45   N1    S    
C3    C7    D    
C13   C17   D    
C11   N7    S    
Cu4   N15   S    
Cu2   Cu4   S    
Cu2   O11   S    
C1    O1    A    
C12   O13   A    
C26   H47   S    
C6    N2    S    
C18   C20   S    
C28   H42   S    
C21   N15   D    
C20   N14   D    
Cu3   O12   S    
Cu4   O8    S    
C17   H34   S    
C18   N9    S    
C27   C28   S    
H5    N19   S    
H11   N3    S    
H4    N18   S    
Cu4   O14   S    
Cu1   O2    S    
C5    C31   S    
Cu1   N1    S    
