data_mof_unit_2010.cif
_audit_creation_date              2013-03-05T16:12:06-0500
_audit_creation_method            fapswitch 2.2
_symmetry_space_group_name_H-M    P1
_symmetry_Int_Tables_number       1
_space_group_crystal_system       triclinic
_cell_length_a                    9.833423
_cell_length_b                    10.657792
_cell_length_c                    16.778316
_cell_angle_alpha                 90.044633
_cell_angle_beta                  85.173027
_cell_angle_gamma                 90.176361
_cell_volume                      1752.16575816

loop_
_atom_site_label
_atom_site_type_symbol
_atom_site_description
_atom_site_fract_x
_atom_site_fract_y
_atom_site_fract_z
_atom_type_partial_charge
O1    O     O_R   0.385380 0.683250 0.500010 -0.539629
O2    O     O_R   0.614620 0.316750 0.499990 -0.564893
O3    O     O_R   0.614710 0.683220 0.500000 -0.637361
O4    O     O_R   0.385290 0.316780 0.500000 -0.636568
C1    C     C_R   0.500687 0.739830 0.497561 0.947690
C2    C     C_R   0.499357 0.260179 0.502356 0.945764
O5    O     O_R   0.371780 0.500040 0.615800 -0.600365
O6    O     O_R   0.628220 0.499960 0.384200 -0.587541
O7    O     O_R   0.601110 0.500010 0.615800 -0.606693
O8    O     O_R   0.398890 0.499990 0.384200 -0.604298
C3    C     C_R   0.481178 0.504530 0.653011 0.927505
C4    C     C_R   0.518729 0.494013 0.347082 0.926232
Zn1   Zn    Zn3+2 0.346870 0.500020 0.500000 1.033527
Zn2   Zn    Zn3+2 0.653130 0.499980 0.500000 1.026556
C5    C     C_R   0.470215 0.523089 0.738784 -0.068343
C6    C     C_R   0.528874 0.466923 0.262200 -0.074493
C7    C     C_R   0.578590 0.580438 0.774206 -0.274013
C8    C     C_R   0.420386 0.404317 0.230030 -0.274817
C9    C     C_R   0.573948 0.592698 0.857220 0.568970
C10   C     C_R   0.423496 0.383028 0.147792 0.566697
C11   C     C_R   0.456829 0.551407 0.903268 -0.017922
C12   C     C_R   0.539541 0.420561 0.099389 -0.023681
C13   C     C_R   0.345625 0.500387 0.867683 -0.243598
C14   C     C_R   0.651723 0.475327 0.132140 -0.237420
C15   C     C_R   0.352033 0.486573 0.785314 -0.169687
C16   C     C_R   0.646699 0.498150 0.213714 -0.135707
C17   C     C_2   0.463154 0.535853 0.989480 0.446691
C18   C     C_2   0.528996 0.433198 0.013291 0.449191
H1    H     H_    0.666574 0.614802 0.737402 0.150133
H2    H     H_    0.333261 0.373105 0.268768 0.152538
H3    H     H_    0.732091 0.544334 0.238338 0.172412
H4    H     H_    0.267167 0.443456 0.758338 0.164025
H5    H     H_    0.257246 0.465710 0.904105 0.159302
H6    H     H_    0.739214 0.507116 0.093787 0.160537
C19   C     C_R   0.585388 0.932998 0.546921 -0.290068
C20   C     C_R   0.414995 0.067070 0.452776 -0.295252
H7    H     H_    0.647447 0.879446 0.585113 0.193393
H8    H     H_    0.352916 0.120621 0.414588 0.186742
C21   C     C_R   0.582852 0.061847 0.552917 0.315884
C22   C     C_R   0.417428 0.938210 0.446852 0.339992
C23   C     C_R   0.497881 0.127774 0.504360 -0.200265
C24   C     C_R   0.502359 0.872268 0.495421 -0.195040
C25   C     C_R   0.934122 0.419872 0.451093 0.592968
C26   C     C_R   0.065811 0.576678 0.551256 0.621321
C27   C     C_R   0.079151 0.422454 0.450112 -0.287447
C28   C     C_R   0.920854 0.578123 0.549555 -0.284553
H9    H     H_    0.140883 0.363318 0.409161 0.162367
H10   H     H_    0.859138 0.642106 0.587138 0.166140
N1    N     N_R   0.142790 0.500030 0.500020 -0.133908
N2    N     N_R   0.857210 0.499970 0.499980 -0.130769
O9    O     O_3   0.583908 0.347175 0.956212 -0.632051
C29   C     C_3   0.643902 0.242542 0.990685 -0.258322
H11   H     H_    0.567974 0.190471 0.031086 0.190317
H12   H     H_    0.733612 0.271229 0.022623 0.150343
H13   H     H_    0.681040 0.177502 0.942052 0.210738
O10   O     O_3   0.408875 0.622115 0.046646 -0.630898
C30   C     C_3   0.345212 0.725090 0.012568 -0.260461
H14   H     H_    0.255936 0.694116 0.980997 0.146576
H15   H     H_    0.419110 0.779051 0.971973 0.188380
H16   H     H_    0.306694 0.789192 0.061409 0.211662
O11   O     O_3   0.317126 0.324056 0.112788 -0.622397
C31   C     C_3   0.191287 0.382754 0.135748 -0.287783
H17   H     H_    0.199548 0.487076 0.135792 0.192452
H18   H     H_    0.148569 0.348103 0.195094 0.174309
H19   H     H_    0.117715 0.357164 0.091770 0.185939
O12   O     O_3   0.679492 0.647611 0.895097 -0.617502
C32   C     C_3   0.804283 0.586533 0.873107 -0.310308
H20   H     H_    0.849547 0.621126 0.814361 0.155130
H21   H     H_    0.793371 0.482439 0.872316 0.197016
H22   H     H_    0.877012 0.609734 0.918048 0.186250
N3    N     N_R   0.661229 0.123166 0.610413 0.207602
O13   O     O_R   0.608428 0.214623 0.654033 -0.393808
O14   O     O_R   0.777076 0.075971 0.627678 -0.402802
N4    N     N_R   0.338703 0.876844 0.389558 0.219292
O15   O     O_R   0.391352 0.785502 0.345773 -0.397974
O16   O     O_R   0.222421 0.923707 0.372787 -0.391543
O17   O     O_3   0.868773 0.344191 0.399067 -0.598214
C33   C     C_3   0.900048 0.217040 0.411994 -0.253787
H23   H     H_    0.892170 0.192416 0.476776 0.193704
H24   H     H_    0.002802 0.193314 0.383482 0.166411
H25   H     H_    0.824868 0.157881 0.383381 0.196732
O18   O     O_3   0.133109 0.657916 0.599306 -0.560736
C34   C     C_3   0.075806 0.653019 0.679254 -0.328407
H26   H     H_    0.050722 0.555374 0.699387 0.137202
H27   H     H_    0.984387 0.714054 0.687528 0.171296
H28   H     H_    0.151900 0.690236 0.718469 0.203396

loop_
_geom_bond_atom_site_label_1
_geom_bond_atom_site_label_2
_geom_bond_distance
_ccdc_geom_bond_type
C26   N1    1.368399 A    
C1    C24   1.411988 S    
C7    H1    1.082814 S    
C21   C23   1.405225 A    
O17   C33   1.411489 S    
O5    C3    1.289188 A    
N4    O16   1.301532 A    
O1    C1    1.280214 A    
C19   H7    1.085041 S    
C14   C16   1.386742 A    
C26   O18   1.386615 S    
C18   O9    1.401413 S    
C33   H24   1.110756 S    
C5    C15   1.398754 A    
C10   O11   1.390249 S    
O10   C30   1.410236 S    
C9    O12   1.389325 S    
O4    Zn1   1.990283 S    
C19   C24   1.395276 A    
C31   H18   1.110645 S    
C3    C5    1.447553 S    
C4    C6    1.448174 S    
C26   C28   1.428242 A    
C13   H5    1.083655 S    
C2    C23   1.411577 S    
C8    H2    1.082579 S    
C29   H13   1.109151 S    
C15   H4    1.083212 S    
C22   C24   1.405173 A    
O12   C32   1.412116 S    
C11   C17   1.462622 S    
C16   H3    1.083316 S    
C12   C18   1.463312 S    
C20   C23   1.395187 A    
O2    C2    1.279844 A    
C29   H12   1.111972 S    
C27   H9    1.081340 S    
C6    C16   1.397997 A    
C28   H10   1.080932 S    
N4    O15   1.301320 A    
C32   H20   1.109637 S    
C20   C22   1.377017 A    
O4    C2    1.278780 A    
N3    O14   1.301502 A    
C33   H23   1.114661 S    
C30   H16   1.109151 S    
C14   H6    1.083718 S    
O9    C29   1.410198 S    
C32   H21   1.114433 S    
C19   C21   1.377000 A    
O7    Zn2   1.967073 S    
C31   H17   1.114555 S    
O7    C3    1.288162 A    
C34   H26   1.114856 S    
C27   N1    1.363928 A    
O6    C4    1.289746 A    
C25   C27   1.425024 A    
O3    Zn2   1.990283 S    
O8    C4    1.287440 A    
Zn1   N1    2.006777 S    
C34   H27   1.110405 S    
C10   C12   1.401225 A    
C11   C13   1.397730 A    
C12   C14   1.398962 A    
O1    Zn1   1.988063 S    
C29   H11   1.112554 S    
C5    C7    1.401616 A    
O6    Zn2   1.978653 S    
C31   H19   1.109306 S    
C9    C11   1.401642 A    
C17   O10   1.401986 S    
O3    C1    1.278589 A    
O8    Zn1   1.967073 S    
C25   N2    1.368226 A    
C25   O17   1.384053 S    
C28   N2    1.364050 A    
C32   H22   1.109306 S    
C20   H8    1.085110 S    
N3    O13   1.301295 A    
C33   H25   1.109480 S    
C30   H14   1.111967 S    
Zn2   N2    2.006778 S    
C7    C9    1.395783 A    
C22   N4    1.439537 S    
C8    C10   1.395980 A    
C13   C15   1.385884 A    
O11   C31   1.412512 S    
O2    Zn2   1.988063 S    
C30   H15   1.112401 S    
O5    Zn1   1.978653 S    
C34   H28   1.109403 S    
C6    C8    1.402359 A    
O18   C34   1.411496 S    
C17   C18   1.350692 D    
C21   N3    1.439720 S    
