data_mof_unit_2291.cif
_audit_creation_date              2012-10-26T21:01:05-0400
_audit_creation_method            fapswitch 2.2
_symmetry_space_group_name_H-M    P1
_symmetry_Int_Tables_number       1
_space_group_crystal_system       triclinic
_cell_length_a                    10.917594
_cell_length_b                    10.824154
_cell_length_c                    9.573087
_cell_angle_alpha                 89.953101
_cell_angle_beta                  89.475803
_cell_angle_gamma                 90.207437
_cell_volume                      1131.23212053

loop_
_atom_site_label
_atom_site_type_symbol
_atom_type_description
_atom_site_fract_x
_atom_site_fract_y
_atom_site_fract_z
_atom_type_partial_charge
C1    C     C_R   0.501657 0.262417 0.499924 0.545576
C2    C     C_R   0.394010 0.512725 0.075060 -0.014318
C3    C     C_R   0.394005 0.512563 0.926924 -0.018097
C4    C     C_R   0.265350 0.496886 0.500768 0.550473
C5    C     C_R   0.605433 0.481025 0.925011 0.113454
C6    C     C_3   0.718416 0.558342 0.916794 -0.234663
C7    C     C_3   0.720414 0.556452 0.075386 0.136993
C8    C     C_R   0.501316 0.737586 0.499830 0.547209
C9    C     C_R   0.734632 0.500371 0.499653 0.552015
C10   C     C_2   0.933573 0.463369 0.393476 -0.171133
C11   C     C_2   0.866753 0.506756 0.500409 -0.118376
C12   C     C_R   0.512218 0.129261 0.498704 0.009998
C13   C     C_2   0.067333 0.473052 0.389256 -0.168133
C14   C     C_2   0.133242 0.487051 0.505374 -0.119141
C15   C     C_R   0.526589 0.063504 0.622941 0.020377
C16   C     C_3   0.813619 0.735571 0.149353 -0.013185
C17   C     C_3   0.793104 0.860216 0.218463 -0.364357
C18   C     C_R   0.513640 0.064481 0.371444 -0.171265
C19   C     C_R   0.512439 0.935875 0.371467 -0.173016
C20   C     C_R   0.511365 0.870823 0.498638 0.001745
C21   C     C_R   0.526421 0.936301 0.622881 0.015538
C22   C     C_3   0.455612 0.929442 0.756956 -0.267020
C23   C     C_3   0.455701 0.069772 0.756946 -0.267371
C24   C     C_R   0.605566 0.480699 0.072187 0.171333
Cu1   Cu    Cu3+1 0.499990 0.499980 0.640670 0.930933
Cu2   Cu    Cu3+1 0.500010 0.500020 0.359330 0.976913
H1    H     H_    0.889322 0.420970 0.304692 0.126903
H2    H     H_    0.091099 0.485932 0.608303 0.094596
H3    H     H_    0.509342 0.112418 0.272264 0.134795
H4    H     H_    0.507161 0.888065 0.272343 0.157982
H5    H     H_    0.362893 0.888368 0.743920 0.138118
H6    H     H_    0.510497 0.889078 0.842848 0.147599
H7    H     H_    0.363038 0.110289 0.743795 0.139267
H8    H     H_    0.856993 0.751354 0.045087 0.112757
H9    H     H_    0.877171 0.681817 0.216257 0.134048
H10   H     H_    0.755860 0.846671 0.325705 0.164535
H11   H     H_    0.881396 0.911008 0.225241 0.091715
H12   H     H_    0.510551 0.110299 0.842912 0.137632
H13   H     H_    0.727901 0.915919 0.156393 0.150083
H14   H     H_    0.308083 0.525151 0.129723 0.109152
H15   H     H_    0.308166 0.524682 0.873626 0.114596
H16   H     H_    0.796643 0.507601 0.869204 0.079794
H17   H     H_    0.701075 0.651070 0.870909 0.161168
H18   H     H_    0.798011 0.503196 0.118916 0.067708
H19   H     H_    0.907883 0.549728 0.590824 0.089703
H20   H     H_    0.112098 0.465165 0.287872 0.132350
N1    N     N_R   0.500780 0.500930 0.147930 -0.207697
N2    N     N_R   0.500780 0.500890 0.852020 -0.231604
O1    O     O_R   0.500000 0.319640 0.618810 -0.496350
O2    O     O_R   0.500010 0.319680 0.381230 -0.515472
O3    O     O_R   0.321940 0.499980 0.618760 -0.517265
O4    O     O_R   0.321950 0.500020 0.381180 -0.513383
O5    O     O_R   0.499990 0.680320 0.618770 -0.502324
O6    O     O_R   0.500000 0.680360 0.381190 -0.468340
O7    O     O_R   0.678050 0.499980 0.618820 -0.510258
O8    O     O_R   0.678060 0.500020 0.381240 -0.476278
O9    O     O_3   0.700155 0.673952 0.135475 -0.518009

loop_
_geom_bond_atom_site_label_1
_geom_bond_atom_site_label_2
_ccdc_geom_bond_type
C8    O5    A    
C10   H1    S    
Cu1   O3    S    
C6    C7    S    
C9    O7    A    
C17   H10   S    
Cu2   O4    S    
C2    N1    A    
C23   H12   S    
C1    O2    A    
C19   C20   A    
C12   C15   A    
C16   O9    S    
C16   H8    S    
C22   H5    S    
C24   N1    A    
C15   C23   S    
C2    C3    A    
C18   H3    S    
C17   H11   S    
C7    H18   S    
C9    C11   S    
Cu1   N2    S    
C8    C20   S    
C5    C24   A    
C22   H6    S    
Cu2   N1    S    
C4    O4    A    
Cu2   O6    S    
C21   C22   S    
Cu1   O5    S    
C6    H17   S    
Cu2   O2    S    
C16   H9    S    
C4    C14   S    
C5    C6    S    
C5    N2    A    
Cu1   O1    S    
C11   H19   S    
C10   C11   D    
C4    O3    A    
C12   C18   A    
C7    C24   S    
C2    H14   S    
C3    N2    A    
C15   C21   A    
C20   C21   A    
C18   C19   A    
C6    H16   S    
C8    O6    A    
C9    O8    A    
C17   H13   S    
C13   H20   S    
C3    H15   S    
C13   C14   D    
C14   H2    S    
Cu1   Cu2   S    
C22   C23   S    
C19   H4    S    
C1    O1    A    
C7    O9    S    
C1    C12   S    
Cu1   O7    S    
C16   C17   S    
C23   H7    S    
C10   C13   S    
Cu2   O8    S    
