data_mof_unit_1124.cif
_audit_creation_date              2013-03-05T16:10:40-0500
_audit_creation_method            fapswitch 2.2
_symmetry_space_group_name_H-M    P1
_symmetry_Int_Tables_number       1
_space_group_crystal_system       triclinic
_cell_length_a                    9.908668
_cell_length_b                    10.819819
_cell_length_c                    15.546023
_cell_angle_alpha                 91.916157
_cell_angle_beta                  68.394862
_cell_angle_gamma                 89.035356
_cell_volume                      1547.96467127

loop_
_atom_site_label
_atom_site_type_symbol
_atom_site_description
_atom_site_fract_x
_atom_site_fract_y
_atom_site_fract_z
_atom_type_partial_charge
O1    O     O_R   0.385370 0.683250 0.500010 -0.611429
O2    O     O_R   0.614630 0.316750 0.499990 -0.612389
O3    O     O_R   0.614700 0.683220 0.500000 -0.633001
O4    O     O_R   0.385300 0.316780 0.500000 -0.632613
C1    C     C_R   0.497779 0.740041 0.500398 0.877554
C2    C     C_R   0.501866 0.259999 0.500312 0.878611
O5    O     O_R   0.319830 0.500020 0.632250 -0.616423
O6    O     O_R   0.680170 0.499980 0.367750 -0.615575
O7    O     O_R   0.549160 0.499990 0.632240 -0.646262
O8    O     O_R   0.450840 0.500010 0.367760 -0.643178
C3    C     C_R   0.409353 0.498711 0.675409 0.863134
C4    C     C_R   0.590638 0.499062 0.324495 0.865008
Zn1   Zn    Zn3+2 0.346870 0.500020 0.500000 0.921170
Zn2   Zn    Zn3+2 0.653130 0.499980 0.500000 0.920154
C5    C     C_R   0.352964 0.491217 0.775655 -0.051235
C6    C     C_R   0.645401 0.482718 0.224121 -0.051439
C7    C     C_R   0.161117 0.520527 0.925754 -0.220164
C8    C     C_R   0.818099 0.392117 0.081139 -0.225177
C9    C     C_R   0.207012 0.518672 0.829640 -0.202562
C10   C     C_R   0.782539 0.428716 0.173892 -0.210689
C11   C     C_R   0.449963 0.458364 0.817455 -0.277832
C12   C     C_R   0.547529 0.504276 0.180853 -0.273514
C13   C     C_R   0.406445 0.458002 0.913511 0.098947
C14   C     C_R   0.574935 0.457812 0.091164 0.098783
C15   C     C_R   0.260744 0.494047 0.968014 0.178819
C16   C     C_R   0.714731 0.405170 0.039637 0.179339
C17   C     C_R   0.507361 0.432594 0.956180 0.068346
C18   C     C_R   0.467046 0.463150 0.051674 0.071521
C19   C     C_R   0.319687 0.495514 0.104814 -0.233892
C20   C     C_R   0.647268 0.378810 0.906510 -0.238738
C21   C     C_R   0.217837 0.507680 0.063623 -0.247192
C22   C     C_R   0.748519 0.364523 0.948089 -0.244458
H1    H     H_    0.106384 0.533263 0.106466 0.150650
H2    H     H_    0.854132 0.322347 0.908122 0.150850
H3    H     H_    0.049432 0.547358 0.966897 0.149569
H4    H     H_    0.924205 0.349752 0.042869 0.145678
H5    H     H_    0.278532 0.509713 0.178955 0.138605
H6    H     H_    0.680010 0.342624 0.836071 0.146846
C23   C     C_R   0.624738 0.929817 0.487672 -0.264622
C24   C     C_R   0.373872 0.070405 0.515745 -0.263399
C25   C     C_R   0.633196 0.056497 0.489802 0.168658
C26   C     C_R   0.365331 0.943702 0.513856 0.168150
C27   C     C_R   0.505067 0.127405 0.502295 -0.094642
C28   C     C_R   0.493844 0.872768 0.500245 -0.096311
C29   C     C_R   0.963762 0.429103 0.436858 -0.127705
C30   C     C_R   0.036185 0.570631 0.563297 -0.126453
C31   C     C_R   0.106509 0.424968 0.437629 0.221583
C32   C     C_R   0.893288 0.574559 0.562736 0.223215
N1    N     N_R   0.142780 0.500030 0.500020 -0.119723
N2    N     N_R   0.857220 0.499970 0.499980 -0.119650
H7    H     H_    0.448391 0.555666 0.219815 0.151948
H8    H     H_    0.561846 0.440280 0.773616 0.154601
H9    H     H_    0.859566 0.410919 0.206914 0.149843
H10   H     H_    0.130165 0.543145 0.797844 0.154087
H11   H     H_    0.722705 0.875030 0.476219 0.174829
H12   H     H_    0.275827 0.125246 0.527619 0.174361
C33   C     C_3   0.780204 0.108094 0.479199 -0.376216
C34   C     C_3   0.784915 0.150617 0.572970 -0.807311
H13   H     H_    0.885308 0.202107 0.562400 0.239373
H14   H     H_    0.690065 0.211575 0.613538 0.271131
H15   H     H_    0.785225 0.068999 0.614298 0.240622
H16   H     H_    0.868517 0.036539 0.448488 0.183772
H17   H     H_    0.810279 0.182000 0.428611 0.211558
C35   C     C_3   0.217787 0.891992 0.526106 -0.379383
C36   C     C_3   0.209718 0.850891 0.432945 -0.801402
H18   H     H_    0.305524 0.792453 0.390080 0.271167
H19   H     H_    0.110592 0.797234 0.444448 0.240227
H20   H     H_    0.204599 0.933166 0.393420 0.240041
H21   H     H_    0.189938 0.817167 0.575979 0.210853
H22   H     H_    0.129547 0.963122 0.558574 0.183999
H23   H     H_    0.937172 0.374771 0.385968 0.142300
H24   H     H_    0.062807 0.624405 0.614394 0.143866
C37   C     C_3   0.214130 0.336273 0.366801 -0.365691
C38   C     C_3   0.162975 0.203158 0.373502 -0.950977
H25   H     H_    0.125098 0.174349 0.446137 0.268450
H26   H     H_    0.074427 0.192948 0.346542 0.249912
H27   H     H_    0.254614 0.140375 0.330647 0.261453
H28   H     H_    0.232329 0.367571 0.296314 0.182455
H29   H     H_    0.319431 0.331729 0.373592 0.276396
C39   C     C_3   0.784716 0.661233 0.634929 -0.368142
C40   C     C_3   0.835323 0.794396 0.631955 -0.957620
H30   H     H_    0.923743 0.802556 0.659209 0.251235
H31   H     H_    0.872809 0.826867 0.560286 0.269464
H32   H     H_    0.743423 0.855846 0.676323 0.260859
H33   H     H_    0.680628 0.667746 0.626584 0.275613
H34   H     H_    0.764512 0.626166 0.704844 0.187401

loop_
_geom_bond_atom_site_label_1
_geom_bond_atom_site_label_2
_geom_bond_distance
_ccdc_geom_bond_type
C15   C21   1.389094 A    
C16   C22   1.390445 A    
C29   H23   1.080982 S    
C37   C38   1.529031 S    
C8    C16   1.404689 A    
C40   H30   1.108318 S    
C33   H16   1.112609 S    
C23   C25   1.374658 A    
O5    C3    1.294514 A    
C30   N1    1.350648 A    
C38   H26   1.108438 S    
O1    C1    1.282950 A    
C18   C19   1.418524 A    
C14   C16   1.417963 A    
C34   H14   1.109451 S    
C20   H6    1.078473 S    
O4    Zn1   2.012555 S    
C39   H34   1.111429 S    
C3    C5    1.454715 S    
C24   C27   1.396222 A    
C23   H11   1.082443 S    
C4    C6    1.454449 S    
C24   H12   1.082212 S    
C38   H27   1.110535 S    
O6    Zn2   1.973097 S    
C37   H28   1.108747 S    
C21   H1    1.084224 S    
C13   C17   1.416645 A    
C30   H24   1.080588 S    
O6    C4    1.295551 A    
C34   H15   1.109926 S    
C32   N2    1.394512 A    
C17   C20   1.418161 A    
C25   C27   1.419103 A    
O2    C2    1.282461 A    
C26   C28   1.418857 A    
C40   H31   1.108411 S    
C33   H17   1.106443 S    
C29   C31   1.418855 A    
C30   C32   1.419089 A    
C38   H25   1.108361 S    
C31   C37   1.516812 S    
O4    C2    1.300750 A    
C39   C40   1.530105 S    
C36   H19   1.109309 S    
C34   H13   1.109656 S    
C22   H2    1.084223 S    
C5    C9    1.399681 A    
O7    Zn2   1.930798 S    
C39   H33   1.087300 S    
C5    C11   1.391507 A    
C6    C10   1.399647 A    
C36   H20   1.109316 S    
C37   H29   1.087178 S    
C35   H21   1.106645 S    
O7    C3    1.298561 A    
O3    Zn2   2.012555 S    
O8    C4    1.297786 A    
Zn1   N1    2.022144 S    
C9    H10   1.083229 S    
C1    C28   1.436063 S    
C35   H22   1.112623 S    
C2    C27   1.436069 S    
C11   C13   1.393601 A    
C12   C14   1.392928 A    
O1    Zn1   2.025188 S    
C26   C35   1.521932 S    
C40   H32   1.110605 S    
C6    C12   1.389449 A    
C14   C18   1.416570 A    
C10   H9    1.083210 S    
O3    C1    1.300263 A    
O8    Zn1   1.930800 S    
C23   C28   1.396325 A    
C31   N1    1.394056 A    
C7    C15   1.403161 A    
C35   C36   1.531366 S    
C32   C39   1.517529 S    
C25   C33   1.522301 S    
C19   C21   1.386700 A    
C20   C22   1.388260 A    
C33   C34   1.531311 S    
Zn2   N2    2.022144 S    
C29   N2    1.350888 A    
C24   C26   1.374931 A    
C7    C9    1.391807 A    
C8    C10   1.393958 A    
C13   C15   1.418595 A    
O2    Zn2   2.025188 S    
O5    Zn1   1.973096 S    
C36   H18   1.109415 S    
C19   H5    1.076242 S    
C17   C18   1.413782 A    
C7    H3    1.083309 S    
C8    H4    1.083678 S    
C11   H8    1.076639 S    
C12   H7    1.077935 S    
