data_mof_unit_1700.cif
_audit_creation_date              2013-03-05T15:53:04-0500
_audit_creation_method            fapswitch 2.2
_symmetry_space_group_name_H-M    P1
_symmetry_Int_Tables_number       1
_space_group_crystal_system       triclinic
_cell_length_a                    6.956971
_cell_length_b                    20.458565
_cell_length_c                    24.400759
_cell_angle_alpha                 89.602294
_cell_angle_beta                  90.659244
_cell_angle_gamma                 89.230257
_cell_volume                      3472.32060926

loop_
_atom_site_label
_atom_site_type_symbol
_atom_site_description
_atom_site_fract_x
_atom_site_fract_y
_atom_site_fract_z
_atom_type_partial_charge
O1    O     O_R   0.507320 0.423560 0.460500 -0.589515
O2    O     O_R   0.170760 0.556250 0.437010 -0.589519
O3    O     O_R   0.004030 0.576440 0.539500 -0.590326
C1    C     C_R   0.338156 0.576392 0.421059 0.979342
O4    O     O_R   0.177370 0.422820 0.454110 -0.590141
O5    O     O_R   0.010680 0.442050 0.556720 -0.590365
C2    C     C_R   0.346403 0.398920 0.443449 0.926219
O6    O     O_R   0.500680 0.557950 0.443280 -0.588097
O7    O     O_3   0.340380 0.506470 0.533650 -0.273204
V1    V     V_3+5 0.064130 0.498800 0.493760 1.166696
O8    O     O_R   0.681160 0.443750 0.562990 -0.592187
C3    C     C_R   0.851298 0.423683 0.578864 0.978559
O9    O     O_R   0.674560 0.577180 0.545890 -0.591352
C4    C     C_R   0.842565 0.601069 0.556562 0.922922
V2    V     V_3+5 0.564560 0.501200 0.506240 1.164968
O10   O     O_3   0.838180 0.493530 0.466350 -0.269783
C5    C     C_R   0.976752 0.838148 0.911289 -0.115556
C6    C     C_R   0.847125 0.661750 0.588766 -0.096297
C7    C     C_R   0.040551 0.721957 0.906303 -0.162231
C8    C     C_R   0.031587 0.779305 0.936532 -0.129522
C9    C     C_R   0.931332 0.839389 0.854954 -0.247364
C10   C     C_R   0.942529 0.781544 0.822761 0.113001
C11   C     C_R   0.997968 0.722555 0.849926 0.172237
C12   C     C_R   0.903317 0.780124 0.764782 0.063563
C13   C     C_R   0.920415 0.719744 0.735297 0.061125
C14   C     C_R   0.975463 0.662829 0.764811 -0.198012
C15   C     C_R   0.012876 0.664395 0.820774 -0.229464
C16   C     C_R   0.848139 0.837031 0.735277 -0.198310
C17   C     C_R   0.810612 0.835462 0.679323 -0.241998
C18   C     C_R   0.825600 0.777309 0.650166 0.187532
C19   C     C_R   0.881234 0.718329 0.677314 0.109690
C20   C     C_R   0.782878 0.777911 0.593801 -0.179820
C21   C     C_R   0.791961 0.720579 0.563558 -0.164639
C22   C     C_R   0.892648 0.660501 0.645099 -0.246427
H1    H     H_    0.055240 0.619319 0.841501 0.135404
H2    H     H_    0.931834 0.613565 0.662430 0.101505
H3    H     H_    0.754635 0.722002 0.520325 0.109044
H4    H     H_    0.768096 0.880529 0.658608 0.130531
H5    H     H_    0.083556 0.676956 0.927005 0.132446
H6    H     H_    0.068774 0.777884 0.979776 0.139141
H7    H     H_    0.892430 0.886340 0.837603 0.101038
H8    H     H_    0.991664 0.615778 0.745842 0.131009
H9    H     H_    0.831816 0.884075 0.754250 0.130270
H10   H     H_    0.739666 0.822902 0.573118 0.114794
C23   C     C_3   0.827981 0.305263 0.767665 -0.157695
C24   C     C_3   0.019777 0.275718 0.790220 -0.158437
H11   H     H_    0.108804 0.296704 0.823615 0.116520
H12   H     H_    0.758372 0.351082 0.782025 0.116801
H13   H     H_    0.232241 0.274706 0.714847 0.117687
C25   C     C_1   0.959539 0.121783 0.875291 -0.292043
C26   C     C_1   0.864778 0.378166 0.624680 -0.294620
C27   C     C_3   0.736827 0.236529 0.769160 -0.160377
C28   C     C_3   0.928413 0.207609 0.791101 0.229534
C29   C     C_3   0.804558 0.224231 0.709751 -0.161102
C30   C     C_3   0.895921 0.292340 0.708870 0.229415
C31   C     C_3   0.996353 0.194685 0.732306 -0.160439
C32   C     C_3   0.087507 0.263420 0.730811 -0.161087
C33   C     C_1   0.946206 0.160297 0.837255 -0.044698
C34   C     C_1   0.878122 0.339652 0.662717 -0.044186
H14   H     H_    0.065962 0.148866 0.717946 0.114030
H15   H     H_    0.715530 0.203244 0.676356 0.113634
H16   H     H_    0.592094 0.225243 0.785124 0.117787
C35   C     C_3   0.511802 0.721087 0.211710 0.390509
C36   C     C_3   0.315107 0.696415 0.230849 -0.305014
H17   H     H_    0.238640 0.653193 0.214715 0.172604
C37   C     C_1   0.345816 0.621937 0.375038 -0.301040
C38   C     C_1   0.478059 0.877997 0.124862 -0.220363
C39   C     C_3   0.580810 0.730255 0.271314 -0.250636
C40   C     C_3   0.382022 0.707299 0.290746 0.197939
C41   C     C_3   0.503279 0.802049 0.268746 -0.213913
C42   C     C_3   0.437587 0.791949 0.208564 0.046554
C43   C     C_3   0.304242 0.778470 0.289084 -0.204666
C44   C     C_3   0.241070 0.768246 0.228731 -0.075663
C45   C     C_1   0.358662 0.660327 0.336924 0.018763
C46   C     C_1   0.463840 0.839393 0.162761 0.153532
H18   H     H_    0.216142 0.802270 0.321129 0.118207
H19   H     H_    0.580967 0.845210 0.284483 0.136500
H20   H     H_    0.721066 0.713509 0.288876 0.132047
C47   C     C_R   0.471607 0.161830 0.088760 -0.095317
C48   C     C_R   0.353025 0.338230 0.411253 -0.098287
C49   C     C_R   0.529424 0.277844 0.093937 -0.167492
C50   C     C_R   0.521754 0.220551 0.063657 -0.164406
C51   C     C_R   0.429739 0.160652 0.145030 -0.243765
C52   C     C_R   0.439923 0.218428 0.177292 0.110405
C53   C     C_R   0.490405 0.277299 0.150249 0.173037
C54   C     C_R   0.404501 0.219882 0.235229 0.063056
C55   C     C_R   0.420181 0.280187 0.264782 0.054827
C56   C     C_R   0.470148 0.336991 0.235380 -0.187863
C57   C     C_R   0.504011 0.335388 0.179464 -0.220773
C58   C     C_R   0.354569 0.163075 0.264632 -0.195150
C59   C     C_R   0.320745 0.164674 0.320549 -0.240644
C60   C     C_R   0.334332 0.222762 0.349764 0.187429
C61   C     C_R   0.384752 0.281639 0.322720 0.110262
C62   C     C_R   0.295354 0.222209 0.406078 -0.179437
C63   C     C_R   0.302981 0.279500 0.436359 -0.164794
C64   C     C_R   0.394862 0.339418 0.354980 -0.241970
H21   H     H_    0.542582 0.380374 0.158827 0.149780
H22   H     H_    0.430023 0.386289 0.337715 0.106368
H23   H     H_    0.268451 0.278130 0.479539 0.108816
H24   H     H_    0.282216 0.119685 0.341188 0.131177
H25   H     H_    0.568719 0.322749 0.073333 0.124010
H26   H     H_    0.556304 0.221915 0.020478 0.110553
H27   H     H_    0.394474 0.113788 0.162291 0.101833
H28   H     H_    0.485050 0.383975 0.254408 0.141065
H29   H     H_    0.339697 0.116089 0.245607 0.131543
H30   H     H_    0.256118 0.177299 0.426683 0.114756
O11   O     O_R   0.323550 0.942140 0.056770 -0.577270
O12   O     O_R   0.647080 0.077200 0.045890 -0.593180
O13   O     O_R   0.813610 0.057920 0.943260 -0.592965
C65   C     C_R   0.478096 0.101137 0.056564 0.918473
O14   O     O_R   0.653470 0.943760 0.063000 -0.575899
O15   O     O_R   0.820050 0.923540 0.960490 -0.585440
C66   C     C_R   0.486043 0.923664 0.078963 0.967077
O16   O     O_R   0.317110 0.076520 0.039540 -0.591539
O17   O     O_3   0.483830 0.993580 0.966380 -0.276741
V3    V     V_3+5 0.760140 0.001190 0.006240 1.187822
O18   O     O_R   0.149510 0.922740 0.954070 -0.591983
C67   C     C_R   0.981465 0.898849 0.943457 0.939410
O19   O     O_R   0.143120 0.056170 0.936970 -0.594322
C68   C     C_R   0.972998 0.076266 0.921108 0.972558
V4    V     V_3+5 0.259690 0.998700 0.993700 1.179602
O20   O     O_3   0.986130 0.006420 0.033620 -0.264844
N1    N     N_R   0.626820 0.688049 0.170487 0.230418
O21   O     O_R   0.683846 0.627958 0.178691 -0.402174
O22   O     O_R   0.674315 0.718255 0.125683 -0.392925
C69   C     C_2   0.048088 0.788559 0.206280 0.585375
H31   H     H_    0.919940 0.769066 0.224371 0.000468
O23   O     O_2   0.033769 0.826828 0.167842 -0.573931

loop_
_geom_bond_atom_site_label_1
_geom_bond_atom_site_label_2
_geom_bond_distance
_ccdc_geom_bond_type
C13   C19   1.438322 A    
C42   C46   1.489620 S    
C55   C56   1.411070 A    
C69   H31   1.079301 S    
O17   V4    1.705110 S    
C30   C34   1.482889 S    
C4    C6    1.474334 S    
O2    C1    1.303311 A    
C7    C8    1.391257 A    
C1    O6    1.298602 A    
C49   C50   1.391204 A    
N1    O21   1.300190 A    
C49   H25   1.083962 S    
C23   C24   1.550966 S    
C14   C15   1.387854 A    
V3    O20   1.706156 S    
C25   C68   1.451406 S    
C7    H5    1.083960 S    
C16   C17   1.387771 A    
C52   C54   1.438269 A    
O5    C3    1.297989 A    
C18   C19   1.419545 A    
C8    H6    1.083654 S    
C63   H23   1.083620 S    
C23   H12   1.110075 S    
O17   V3    2.152325 S    
C37   C45   1.217965 T    
C5    C8    1.395029 A    
H13   C32   1.110375 S    
C31   C32   1.550705 S    
O18   V4    1.993358 S    
O11   C66   1.298331 A    
O13   V3    1.961384 S    
C24   H11   1.110095 S    
O16   V4    1.994230 S    
O8    V2    1.970512 S    
C39   C40   1.545134 S    
C47   C51   1.406971 A    
C64   H22   1.076989 S    
C17   H4    1.084379 S    
C36   C44   1.550985 S    
C41   C42   1.548981 S    
O1    V2    1.989634 S    
C11   C15   1.393809 A    
C59   H24   1.084384 S    
C48   C64   1.406995 A    
O7    V1    2.152384 S    
C65   O16   1.299193 A    
C43   H18   1.110139 S    
O9    C4    1.297267 A    
C41   H19   1.109966 S    
C39   H20   1.110169 S    
C56   H28   1.076118 S    
C27   C29   1.550604 S    
O19   V4    1.970331 S    
C20   H10   1.083959 S    
C29   C31   1.550965 S    
C25   C33   1.215224 T    
C12   C13   1.438072 A    
C54   C58   1.411058 A    
C59   C60   1.393783 A    
C42   C44   1.541568 S    
C53   C57   1.393811 A    
C54   C55   1.438110 A    
C23   C27   1.550702 S    
C15   H1    1.084377 S    
C13   C14   1.411081 A    
C27   H16   1.110375 S    
C21   H3    1.083619 S    
C31   H14   1.110076 S    
C57   H21   1.084390 S    
C40   C43   1.546635 S    
C7    C11   1.403761 A    
C17   C18   1.393770 A    
C18   C20   1.403683 A    
C51   C52   1.426803 A    
O8    C3    1.301452 A    
C60   C62   1.403651 A    
C50   H26   1.083618 S    
C19   C22   1.426771 A    
C40   C45   1.487578 S    
O14   C66   1.303290 A    
C36   C40   1.547275 S    
C52   C53   1.419539 A    
C48   C63   1.395033 A    
C6    C22   1.407013 A    
C23   C30   1.539154 S    
V4    O20   2.152316 S    
O14   V3    1.968212 S    
O3    C4    1.299044 A    
C51   H27   1.076986 S    
C5    C67   1.474245 S    
C9    H7    1.076979 S    
C35   C42   1.533516 S    
O6    V2    1.962465 S    
O9    V2    1.993429 S    
C24   C32   1.550606 S    
C10   C12   1.438281 A    
C26   C34   1.215222 T    
O11   V4    1.962257 S    
O2    V1    1.968178 S    
O15   V3    1.990258 S    
C3    C26   1.451408 S    
C27   C28   1.539864 S    
C14   H8    1.076114 S    
O4    C2    1.297293 A    
C28   C31   1.539152 S    
C29   C30   1.539402 S    
C62   H30   1.083961 S    
C69   O23   1.219914 D    
C47   C65   1.474395 S    
O1    C2    1.299169 A    
C12   C16   1.411073 A    
C58   H29   1.076108 S    
C43   C44   1.548394 S    
O5    V1    1.961214 S    
C47   C50   1.395047 A    
C35   N1    1.456838 S    
C28   C33   1.482888 S    
C29   H15   1.110094 S    
C61   C64   1.426801 A    
C35   C39   1.539805 S    
C16   H9    1.076102 S    
C20   C21   1.391193 A    
O12   V3    1.994603 S    
C30   C32   1.539863 S    
C44   C69   1.496731 S    
C38   C66   1.455542 S    
O4    V1    1.994614 S    
O3    V1    1.990229 S    
V1    O10   1.706244 S    
O18   C67   1.297252 A    
C36   H17   1.110215 S    
O15   C67   1.298986 A    
C58   C59   1.387768 A    
C55   C61   1.438286 A    
C24   C28   1.539402 S    
C60   C61   1.419541 A    
O12   C65   1.297338 A    
C22   H2    1.076990 S    
O7    V2    1.706410 S    
C62   C63   1.391176 A    
C6    C21   1.394999 A    
C5    C9    1.406915 A    
N1    O22   1.300266 A    
C35   C36   1.541220 S    
C38   C46   1.217694 T    
C56   C57   1.387794 A    
C1    C37   1.456099 S    
C39   C41   1.558474 S    
O19   C68   1.301444 A    
C10   C11   1.419528 A    
C41   C43   1.557811 S    
C9    C10   1.426704 A    
C49   C53   1.403661 A    
V2    O10   2.152281 S    
O13   C68   1.297979 A    
C2    C48   1.474371 S    
