data_mof_unit_2740.cif
_audit_creation_date              2012-12-10T17:12:41-0500
_audit_creation_method            fapswitch 2.2
_symmetry_space_group_name_H-M    P1
_symmetry_Int_Tables_number       1
_space_group_crystal_system       triclinic
_cell_length_a                    23.426213
_cell_length_b                    10.604831
_cell_length_c                    10.061634
_cell_angle_alpha                 92.948142
_cell_angle_beta                  89.956453
_cell_angle_gamma                 90.293668
_cell_volume                      2496.28073511

loop_
_atom_site_label
_atom_site_type_symbol
_atom_type_description
_atom_site_fract_x
_atom_site_fract_y
_atom_site_fract_z
_atom_type_partial_charge
C1    C     C_R   0.498408 0.262520 0.496466 0.907856
C2    C     C_R   0.967971 0.264101 0.501435 -0.238042
C3    C     C_R   0.027442 0.260059 0.494695 0.489646
C4    C     C_R   0.059262 0.373271 0.512942 -0.147103
C5    C     C_R   0.030388 0.489611 0.534324 -0.076248
C6    C     C_R   0.061523 0.602726 0.554347 -0.033126
C7    C     C_R   0.032976 0.717213 0.577607 -0.220297
C8    C     C_R   0.973665 0.722713 0.575785 0.207378
C9    C     C_R   0.119206 0.374999 0.508542 0.600166
C10   C     C_R   0.120965 0.598881 0.550686 0.523567
C11   C     C_R   0.235169 0.536772 0.408263 -0.319782
C12   C     C_R   0.389488 0.499368 0.500247 0.931827
C13   C     C_R   0.294577 0.545200 0.401336 0.451302
C14   C     C_R   0.327336 0.495220 0.503043 -0.185383
C15   C     C_R   0.300493 0.442709 0.612212 -0.383219
C16   C     C_R   0.241039 0.441903 0.623028 0.556475
C17   C     C_R   0.208814 0.486773 0.518602 0.178376
C18   C     C_R   0.764676 0.447489 0.399172 0.497721
C19   C     C_R   0.705033 0.439638 0.394643 0.058945
C20   C     C_R   0.672812 0.495157 0.501001 -0.150987
C21   C     C_R   0.700646 0.549228 0.613586 -0.237770
C22   C     C_R   0.759555 0.548591 0.621451 -0.146768
C23   C     C_R   0.505841 0.736896 0.503180 0.953885
C24   C     C_R   0.791738 0.498172 0.514990 0.151815
C25   C     C_2   0.539297 0.932268 0.412609 0.228224
C26   C     C_2   0.519094 0.868331 0.513618 -0.343992
C27   C     C_2   0.538758 0.068122 0.428530 -0.239610
C28   C     C_2   0.494471 0.129696 0.485122 -0.034506
C29   C     C_2   0.545099 0.484924 0.925058 -0.041432
C30   C     C_2   0.545460 0.512675 0.073294 0.069228
C31   C     C_R   0.610548 0.496860 0.499685 0.915064
C32   C     C_R   0.881527 0.608766 0.540586 0.499460
C33   C     C_R   0.879930 0.383209 0.519638 0.606290
C34   C     C_R   0.939325 0.379332 0.518978 -0.102933
C35   C     C_R   0.970324 0.493166 0.534990 -0.052390
C36   C     C_R   0.941403 0.610191 0.551341 -0.067968
H1    H     H_    0.944319 0.176244 0.490328 0.220883
H2    H     H_    0.676752 0.591416 0.696582 0.185370
H3    H     H_    0.780399 0.587694 0.710450 0.176825
H4    H     H_    0.510461 0.916762 0.609468 0.181607
H5    H     H_    0.575741 0.119452 0.393640 0.184527
H6    H     H_    0.583338 0.445647 0.878829 0.117288
H7    H     H_    0.586262 0.531980 0.120784 0.125231
H8    H     H_    0.056853 0.803893 0.597178 0.210764
H9    H     H_    0.209143 0.569950 0.328416 0.156548
H10   H     H_    0.325783 0.401708 0.688806 0.199209
N1    N     N_R   0.852540 0.496632 0.525751 -0.349421
N2    N     N_R   0.148166 0.486615 0.526611 -0.334562
N3    N     N_2   0.500610 0.501330 0.852150 0.009796
N4    N     N_2   0.500630 0.501360 0.147810 0.092565
O1    O     O_R   0.499990 0.319060 0.613040 -0.601751
O2    O     O_2   0.849517 0.274536 0.513275 -0.499225
O3    O     O_2   0.148667 0.267111 0.485258 -0.496220
O4    O     O_2   0.151622 0.706394 0.570576 -0.568682
O5    O     O_R   0.500010 0.319100 0.386900 -0.655365
O6    O     O_R   0.416150 0.499940 0.613100 -0.601398
O7    O     O_R   0.416160 0.499980 0.386960 -0.576536
O8    O     O_R   0.499990 0.680900 0.613100 -0.595658
O9    O     O_R   0.500010 0.680940 0.386960 -0.579575
O10   O     O_R   0.583840 0.500020 0.613040 -0.637796
O11   O     O_R   0.583850 0.500060 0.386900 -0.613060
O12   O     O_2   0.852062 0.717449 0.541074 -0.510952
Zn1   Zn    Zn3+2 0.499990 0.499970 0.650990 1.010361
Zn2   Zn    Zn3+2 0.500010 0.500030 0.349010 1.011062
I1    I     I_    0.667933 0.329661 0.232671 -0.344393
I2    I     I_    0.578180 0.852037 0.236577 -0.328870
I3    I     I_    0.411364 0.056079 0.525326 -0.436877
I4    I     I_    0.451198 0.662319 0.902705 -0.218462
O13   O     O_3   0.054143 0.144124 0.479190 -0.581159
C37   C     C_3   0.050638 0.100919 0.344222 0.106639
H11   H     H_    0.067689 0.173364 0.277790 0.138955
H12   H     H_    0.005587 0.078163 0.316500 0.138965
C38   C     C_3   0.086265 0.981171 0.323709 -0.266665
H13   H     H_    0.131193 0.001791 0.353362 0.259679
H14   H     H_    0.069215 0.907410 0.387542 0.232213
C39   C     C_3   0.085055 0.930859 0.178912 -0.951466
H15   H     H_    0.040592 0.907470 0.147822 0.275269
H16   H     H_    0.111188 0.843870 0.167850 0.267451
H17   H     H_    0.102972 0.002133 0.113077 0.273562
O14   O     O_3   0.453269 0.456487 0.083771 -0.542369
C40   C     C_3   0.440753 0.332227 0.119117 0.210825
H18   H     H_    0.401222 0.303291 0.064668 0.137850
H19   H     H_    0.429479 0.327980 0.224912 0.185671
C41   C     C_3   0.487517 0.237258 0.076336 -0.422769
H20   H     H_    0.498128 0.247476 0.969803 0.237007
H21   H     H_    0.526715 0.255360 0.136444 0.248978
C42   C     C_3   0.467795 0.101810 0.093431 -0.856618
H22   H     H_    0.455460 0.088410 0.198343 0.282210
H23   H     H_    0.502930 0.035900 0.065407 0.298243
H24   H     H_    0.430830 0.079112 0.027421 0.259883
I5    I     I_    0.940352 0.907129 0.618975 -0.244481
O15   O     O_3   0.320766 0.594414 0.291915 -0.627299
C43   C     C_3   0.311385 0.725916 0.293306 0.081264
H25   H     H_    0.329278 0.773261 0.385765 0.166270
H26   H     H_    0.265007 0.747169 0.286519 0.148288
C44   C     C_3   0.341272 0.778792 0.173120 -0.271500
H27   H     H_    0.388142 0.765850 0.182438 0.263414
H28   H     H_    0.326489 0.726113 0.080989 0.234333
C45   C     C_3   0.328491 0.918750 0.161609 -0.935216
H29   H     H_    0.281732 0.934249 0.155165 0.267483
H30   H     H_    0.348605 0.952193 0.069935 0.271370
H31   H     H_    0.345852 0.974609 0.248882 0.288476
O16   O     O_3   0.213095 0.387488 0.727699 -0.614487
C46   C     C_3   0.232010 0.438477 0.853086 0.078685
H32   H     H_    0.194076 0.476622 0.907648 0.167296
H33   H     H_    0.262846 0.518804 0.848281 0.133470
C47   C     C_3   0.257730 0.333333 0.932405 -0.360273
H34   H     H_    0.225173 0.258145 0.944468 0.247197
H35   H     H_    0.294703 0.290876 0.877692 0.230231
C48   C     C_3   0.277530 0.383442 0.069537 -0.881637
H36   H     H_    0.311706 0.455309 0.059407 0.300007
H37   H     H_    0.294692 0.304732 0.125944 0.261128
H38   H     H_    0.241195 0.426386 0.126106 0.268036
O17   O     O_3   0.796751 0.396590 0.294382 -0.596753
C49   C     C_3   0.810411 0.493690 0.208647 0.070369
H39   H     H_    0.838081 0.566413 0.260537 0.151515
H40   H     H_    0.770905 0.539472 0.172888 0.159226
C50   C     C_3   0.842719 0.436756 0.088136 -0.292430
H41   H     H_    0.882560 0.391894 0.122134 0.228736
H42   H     H_    0.815805 0.362814 0.036481 0.253466
C51   C     C_3   0.857973 0.536988 0.990242 -0.926639
H43   H     H_    0.818680 0.582377 0.954168 0.266572
H44   H     H_    0.880789 0.492324 0.903342 0.269256
H45   H     H_    0.886173 0.610234 0.038726 0.273368

loop_
_geom_bond_atom_site_label_1
_geom_bond_atom_site_label_2
_ccdc_geom_bond_type
C23   O8    A    
C42   H22   S    
C43   H25   S    
N3    Zn1   S    
N3    I4    S    
C29   H6    S    
N4    Zn2   S    
C38   H13   S    
C31   O11   A    
C19   C20   A    
C41   C42   S    
C18   O17   S    
C46   H33   S    
O17   C49   S    
C7    C8    A    
C29   N3    D    
C33   O2    S    
C23   O9    A    
O9    Zn2   S    
O10   Zn1   S    
C18   C24   A    
C32   C36   A    
C47   C48   S    
C3    O13   S    
C41   H21   S    
C18   C19   A    
C5    C6    A    
C49   H39   S    
C44   C45   S    
C34   C35   A    
C8    C36   A    
C23   C26   S    
C48   H36   S    
C51   H45   S    
C50   H41   S    
C21   H2    S    
C35   C36   A    
C16   C17   A    
C49   H40   S    
C44   H28   S    
C1    C28   S    
C47   H34   S    
C17   N2    S    
C37   H11   S    
C2    C34   A    
C30   N4    D    
C43   H26   S    
C21   C22   A    
C44   H27   S    
C47   H35   S    
C46   H32   S    
C40   H19   S    
C40   H18   S    
C48   H37   S    
C28   I3    S    
O1    Zn1   S    
C39   H15   S    
O14   C40   S    
C25   C26   D    
C50   C51   S    
C31   O10   A    
O11   Zn2   S    
C29   C30   S    
C27   H5    S    
C16   O16   S    
C45   H29   S    
C49   C50   S    
O5    Zn2   S    
C37   C38   S    
C33   C34   A    
O6    Zn1   S    
C8    I5    S    
C7    H8    S    
C41   H20   S    
C1    O1    A    
C48   H38   S    
C51   H43   S    
C12   O6    A    
C12   O7    A    
C45   H30   S    
C12   C14   S    
C43   C44   S    
C42   H23   S    
C13   O15   S    
C10   N2    A    
C33   N1    A    
C32   N1    A    
C22   C24   A    
C30   H7    S    
C11   H9    S    
C9    O3    S    
C38   H14   S    
C3    C4    A    
O16   C46   S    
C40   C41   S    
C39   H17   S    
O7    Zn2   S    
O8    Zn1   S    
C11   C17   A    
C24   N1    S    
C25   I2    S    
C39   H16   S    
C4    C5    A    
N4    O14   S    
C6    C10   A    
C6    C7    A    
C25   C27   S    
C2    C3    A    
C1    O5    A    
C32   O12   S    
C11   C13   A    
C2    H1    S    
C26   H4    S    
C22   H3    S    
C5    C35   A    
O15   C43   S    
C38   C39   S    
C19   I1    S    
O13   C37   S    
C10   O4    S    
C50   H42   S    
C51   H44   S    
C45   H31   S    
C20   C21   A    
C9    N2    A    
C42   H24   S    
C27   C28   D    
C14   C15   A    
C37   H12   S    
C15   H10   S    
C4    C9    A    
C13   C14   A    
C46   C47   S    
C15   C16   A    
C20   C31   S    
