data_mof_unit_3298.cif
_audit_creation_date              2012-12-10T16:56:29-0500
_audit_creation_method            fapswitch 2.2
_symmetry_space_group_name_H-M    P1
_symmetry_Int_Tables_number       1
_space_group_crystal_system       triclinic
_cell_length_a                    7.934806
_cell_length_b                    8.560517
_cell_length_c                    15.694156
_cell_angle_alpha                 93.536523
_cell_angle_beta                  84.750157
_cell_angle_gamma                 93.007864
_cell_volume                      1058.37176539

loop_
_atom_site_label
_atom_site_type_symbol
_atom_type_description
_atom_site_fract_x
_atom_site_fract_y
_atom_site_fract_z
_atom_type_partial_charge
C1    C     C_R   0.544679 0.793891 0.497715 0.951481
C2    C     C_3   0.424219 0.367284 0.026855 0.239131
C3    C     C_1   0.500373 0.499641 0.750603 -0.187087
C4    C     C_1   0.499623 0.500076 0.249396 -0.179134
C5    C     C_3   0.338464 0.488611 0.978634 -0.213168
C6    C     C_3   0.661473 0.510818 0.021371 -0.214016
C7    C     C_3   0.500152 0.499064 0.916987 0.118165
C8    C     C_3   0.499790 0.500368 0.083015 0.117506
C9    C     C_1   0.500289 0.499015 0.825981 -0.078353
C10   C     C_1   0.499692 0.500531 0.174017 -0.076791
C11   C     C_3   0.661753 0.782398 0.938907 -0.422848
C12   C     C_R   0.455560 0.206087 0.500749 0.949377
C13   C     C_3   0.721442 0.892877 0.011222 -0.873789
C14   C     C_3   0.338146 0.217089 0.061163 -0.421481
C15   C     C_3   0.278350 0.106574 0.988890 -0.875092
C16   C     C_3   0.014742 0.319594 0.429402 -0.145471
C17   C     C_3   0.929538 0.283568 0.346846 -0.861549
C18   C     C_3   0.976146 0.627994 0.598676 -0.141646
C19   C     C_3   0.078645 0.777782 0.620653 -0.875394
C20   C     C_R   0.500227 0.500435 0.661616 0.889705
C21   C     C_R   0.499768 0.499488 0.338383 0.888194
C22   C     C_2   0.568534 0.957382 0.497122 -0.379276
C23   C     C_2   0.432856 0.042495 0.497992 -0.383217
C24   C     C_3   0.414889 0.623220 0.036151 -0.211293
C25   C     C_3   0.585046 0.376203 0.963855 -0.212243
C26   C     C_3   0.575713 0.632146 0.973157 0.238810
H1    H     H_    0.346636 0.724357 0.067494 0.143322
H2    H     H_    0.772204 0.751800 0.893359 0.205701
H3    H     H_    0.570737 0.842250 0.903856 0.203261
H4    H     H_    0.183436 0.163017 0.954653 0.258278
H5    H     H_    0.387182 0.074430 0.942712 0.261878
H6    H     H_    0.218770 0.997972 0.015878 0.248201
H7    H     H_    0.429172 0.157238 0.096208 0.203460
H8    H     H_    0.227743 0.247756 0.106731 0.206743
H9    H     H_    0.797102 0.238728 0.360164 0.284570
H10   H     H_    0.935067 0.389279 0.308874 0.267994
H11   H     H_    0.997712 0.190356 0.307457 0.209306
H12   H     H_    0.653292 0.275060 0.932514 0.142758
H13   H     H_    0.147942 0.333912 0.408252 0.232178
H14   H     H_    0.994562 0.217351 0.470058 0.159350
H15   H     H_    0.203505 0.753535 0.641355 0.291981
H16   H     H_    0.092528 0.852149 0.564929 0.252956
H17   H     H_    0.009647 0.844291 0.674830 0.212339
H18   H     H_    0.852775 0.669302 0.589527 0.231865
H19   H     H_    0.965857 0.551871 0.653920 0.171394
H20   H     H_    0.792898 0.520957 0.040760 0.141453
H21   H     H_    0.207034 0.478467 0.959253 0.141323
H22   H     H_    0.697432 0.007375 0.497467 0.179374
H23   H     H_    0.304738 0.992721 0.496032 0.173276
H24   H     H_    0.612559 0.924963 0.057381 0.261929
H25   H     H_    0.816334 0.836433 0.045473 0.258418
H26   H     H_    0.781015 0.001517 0.984274 0.247916
N1    N     N_2   0.950320 0.457950 0.477300 -0.028510
N2    N     N_2   0.049680 0.542050 0.522700 -0.028659
O1    O     O_R   0.389250 0.738570 0.505570 -0.605503
O2    O     O_R   0.610750 0.261430 0.494430 -0.613059
O3    O     O_R   0.678390 0.711630 0.491020 -0.644872
O4    O     O_R   0.321610 0.288370 0.508980 -0.659755
O5    O     O_R   0.355460 0.513480 0.630490 -0.613186
O6    O     O_R   0.644540 0.486520 0.369510 -0.609158
O7    O     O_R   0.644600 0.486540 0.615950 -0.653021
O8    O     O_R   0.355400 0.513460 0.384050 -0.634971
Zn1   Zn    Zn3+2 0.306940 0.517990 0.509710 0.930667
Zn2   Zn    Zn3+2 0.693060 0.482010 0.490290 0.928284

loop_
_geom_bond_atom_site_label_1
_geom_bond_atom_site_label_2
_ccdc_geom_bond_type
C14   H8    S    
O7    Zn2   S    
C22   H22   S    
O3    Zn2   S    
C24   H1    S    
C15   H5    S    
O8    Zn1   S    
C3    C9    T    
C17   H10   S    
C1    O3    A    
C25   H12   S    
O1    Zn1   S    
C13   H26   S    
C5    H21   S    
C20   O7    A    
O5    Zn1   S    
C7    C25   S    
C19   H16   S    
O6    Zn2   S    
C12   O4    A    
C14   H7    S    
O2    Zn2   S    
C1    O1    A    
C1    C22   S    
C6    C26   S    
N1    N2    D    
C20   O5    A    
C4    C21   S    
C11   C13   S    
C12   C23   S    
C21   O8    A    
C12   O2    A    
C5    C24   S    
C7    C26   S    
C11   H2    S    
C16   H14   S    
C6    C8    S    
C17   H9    S    
C8    C24   S    
C19   H17   S    
C2    C25   S    
C18   H18   S    
C22   C23   D    
C13   H25   S    
C2    C14   S    
N1    Zn2   S    
C23   H23   S    
C2    C5    S    
N2    Zn1   S    
C18   N2    S    
C16   H13   S    
C4    C10   T    
C13   H24   S    
C6    C25   S    
C18   H19   S    
C7    C9    S    
C3    C20   S    
C21   O6    A    
C11   H3    S    
C15   H4    S    
C8    C10   S    
C18   C19   S    
O4    Zn1   S    
C5    C7    S    
C14   C15   S    
C17   H11   S    
C6    H20   S    
C11   C26   S    
C16   N1    S    
C2    C8    S    
C19   H15   S    
C24   C26   S    
C16   C17   S    
C15   H6    S    
