data_mof_unit_294.cif
_audit_creation_date              2013-03-05T16:08:13-0500
_audit_creation_method            fapswitch 2.2
_symmetry_space_group_name_H-M    P1
_symmetry_Int_Tables_number       1
_space_group_crystal_system       triclinic
_cell_length_a                    6.96145
_cell_length_b                    14.518734
_cell_length_c                    16.081643
_cell_angle_alpha                 89.959865
_cell_angle_beta                  89.991856
_cell_angle_gamma                 90.049351
_cell_volume                      1625.39381023

loop_
_atom_site_label
_atom_site_type_symbol
_atom_site_description
_atom_site_fract_x
_atom_site_fract_y
_atom_site_fract_z
_atom_type_partial_charge
O1    O     O_R   0.505720 0.583900 0.413310 -0.598914
O2    O     O_R   0.175940 0.594920 0.586080 -0.606309
O3    O     O_R   0.005640 0.416100 0.586690 -0.567356
C1    C     C_R   0.344922 0.617133 0.614678 0.939305
O4    O     O_R   0.176000 0.594930 0.413930 -0.609251
O5    O     O_R   0.005700 0.416110 0.413310 -0.568006
C2    C     C_R   0.344842 0.617013 0.385248 0.931761
O6    O     O_R   0.505660 0.583890 0.586690 -0.601001
O7    O     O_3   0.339200 0.441330 0.500000 -0.250689
V1    V     V_3+5 0.064350 0.510880 0.500000 1.177430
O8    O     O_R   0.675980 0.405080 0.413920 -0.603916
C3    C     C_R   0.844952 0.383528 0.384769 1.035416
O9    O     O_R   0.675920 0.405070 0.586070 -0.595248
C4    C     C_R   0.844604 0.382410 0.614057 1.082405
V2    V     V_3+5 0.564340 0.489120 0.500000 1.176989
O10   O     O_3   0.839360 0.558670 0.500000 -0.299811
C5    C     C_R   0.715198 0.426447 0.779382 -0.193003
C6    C     C_R   0.656197 0.451502 0.858977 -0.103780
C7    C     C_R   0.671312 0.389243 0.924256 -0.114044
C8    C     C_R   0.744938 0.301414 0.910316 -0.165594
C9    C     C_R   0.804659 0.273748 0.829930 0.127723
C10   C     C_R   0.790627 0.337671 0.763068 0.102354
C11   C     C_R   0.880334 0.184607 0.815984 -0.256182
C12   C     C_R   0.941296 0.159102 0.734959 0.086287
C13   C     C_R   0.926203 0.222314 0.667323 -0.114088
C14   C     C_R   0.853390 0.312766 0.682030 -0.278716
C15   C     C_R   0.013472 0.069856 0.719797 -0.237013
C16   C     C_R   0.069412 0.042560 0.640720 -0.331169
C17   C     C_R   0.053258 0.102474 0.573086 0.280259
C18   C     C_R   0.980066 0.191816 0.586288 0.583955
H1    H     H_    0.700669 0.477566 0.730999 0.103256
H2    H     H_    0.599100 0.519755 0.870058 0.111000
H3    H     H_    0.626275 0.409146 0.986126 0.106828
H4    H     H_    0.755566 0.255908 0.963415 0.098630
H5    H     H_    0.026616 0.019439 0.768918 0.145136
H6    H     H_    0.124483 0.973433 0.632446 0.199996
C19   C     C_R   0.728129 0.182452 0.241689 0.192664
C20   C     C_R   0.882176 0.182400 0.185551 -0.237031
C21   C     C_R   0.033649 0.244429 0.201092 -0.140246
H7    H     H_    0.156060 0.246747 0.159848 0.133974
C22   C     C_R   0.022386 0.308702 0.266545 -0.127462
H8    H     H_    0.137087 0.358289 0.273911 0.118708
C23   C     C_R   0.858962 0.313156 0.318220 -0.212629
C24   C     C_R   0.716564 0.246321 0.306206 0.261732
C25   C     C_3   0.505737 0.258160 0.294679 -0.486730
C26   C     C_3   0.518146 0.188168 0.224699 -0.478624
H9    H     H_    0.468867 0.328605 0.272873 0.170933
H10   H     H_    0.422471 0.233171 0.349180 0.255352
H11   H     H_    0.487677 0.217771 0.162318 0.187358
H12   H     H_    0.442630 0.122510 0.238888 0.219531
C27   C     C_R   0.511373 0.685270 0.739280 0.153934
C28   C     C_R   0.353724 0.682949 0.685093 -0.216794
C29   C     C_R   0.200514 0.743297 0.701945 -0.146633
H13   H     H_    0.076953 0.744655 0.661417 0.147003
C30   C     C_R   0.211065 0.807019 0.767775 -0.159176
H14   H     H_    0.094185 0.854894 0.776424 0.131417
C31   C     C_R   0.375986 0.813041 0.818299 -0.219538
C32   C     C_R   0.522310 0.748894 0.804167 0.160104
C33   C     C_3   0.730237 0.766088 0.789308 -0.472105
C34   C     C_3   0.718651 0.697066 0.718739 -0.464333
H15   H     H_    0.820582 0.742238 0.842077 0.193130
H16   H     H_    0.758262 0.837675 0.767852 0.194256
H17   H     H_    0.803908 0.633827 0.730662 0.183661
H18   H     H_    0.739929 0.728498 0.656331 0.201185
C35   C     C_R   0.507098 0.682798 0.258643 0.149411
C36   C     C_R   0.352923 0.682613 0.314680 -0.226522
C37   C     C_R   0.201591 0.744626 0.299201 -0.125178
H19   H     H_    0.079294 0.746907 0.340506 0.147712
C38   C     C_R   0.212804 0.808848 0.233661 -0.125815
H20   H     H_    0.098229 0.858422 0.226288 0.141383
C39   C     C_R   0.375975 0.813181 0.181826 -0.231191
C40   C     C_R   0.518615 0.746598 0.194010 0.158193
C41   C     C_3   0.729354 0.758903 0.205742 -0.464207
C42   C     C_3   0.716936 0.688998 0.275867 -0.454553
H21   H     H_    0.765739 0.829458 0.227422 0.198756
H22   H     H_    0.813221 0.733972 0.151426 0.188063
H23   H     H_    0.746909 0.718768 0.338199 0.203729
H24   H     H_    0.792896 0.623471 0.261951 0.175761
O11   O     O_R   0.229140 0.916090 0.913340 -0.600477
O12   O     O_R   0.558860 0.905090 0.086080 -0.594033
O13   O     O_R   0.729100 0.083920 0.086690 -0.596161
C43   C     C_R   0.389812 0.883279 0.115028 0.942469
O14   O     O_R   0.558860 0.905090 0.913930 -0.594542
O15   O     O_R   0.729100 0.083920 0.913310 -0.587049
C44   C     C_R   0.389753 0.883240 0.885027 0.941377
O16   O     O_R   0.229140 0.916080 0.086720 -0.595814
O17   O     O_3   0.395570 0.058660 0.000020 -0.272904
V3    V     V_3+5 0.670450 0.989140 0.000000 1.148495
O18   O     O_R   0.058810 0.094980 0.913910 -0.591146
C45   C     C_R   0.890082 0.116890 0.885446 0.929028
O19   O     O_R   0.058810 0.094980 0.086060 -0.595834
C46   C     C_R   0.890058 0.116961 0.114844 0.936250
V4    V     V_3+5 0.170450 0.010950 0.999970 1.151941
O20   O     O_3   0.895460 0.941370 0.999990 -0.280052
N1    N     N_R   0.109053 0.071536 0.491211 0.253933
O21   O     O_R   0.151998 0.985461 0.478357 -0.417982
O22   O     O_R   0.121789 0.128801 0.429150 -0.353173
F1    F     F_    0.954228 0.246557 0.518965 -0.698149

loop_
_geom_bond_atom_site_label_1
_geom_bond_atom_site_label_2
_geom_bond_distance
_ccdc_geom_bond_type
O17   V3    2.164215 S    
V4    O20   2.163760 S    
C22   C23   1.410316 A    
C22   H8    1.081233 S    
C7    C8    1.393017 A    
C12   C15   1.411510 A    
C1    O6    1.299508 A    
C21   C22   1.409392 A    
C29   H13   1.079455 S    
C28   C29   1.407324 A    
C26   H11   1.111627 S    
C19   C20   1.401708 A    
C1    C28   1.483436 S    
C34   H17   1.110288 S    
C16   C17   1.396861 A    
O11   V4    2.002026 S    
C3    C23   1.483396 S    
O5    C3    1.298552 A    
C20   C21   1.408606 A    
V2    O10   2.163740 S    
C20   C46   1.483323 S    
C6    C7    1.388919 A    
C41   C42   1.519061 S    
C38   C39   1.410189 A    
O13   C46   1.300061 A    
O8    V2    2.003194 S    
N1    O21   1.301864 A    
C42   H23   1.111610 S    
C11   C12   1.419807 A    
O1    V2    2.000537 S    
O7    V1    2.164233 S    
C39   C43   1.482325 S    
C8    H4    1.081884 S    
C25   H9    1.111257 S    
O14   V3    2.002371 S    
C33   C34   1.516629 S    
O9    C4    1.300141 A    
O18   V4    2.001852 S    
C41   H21   1.111356 S    
O15   C45   1.297869 A    
C29   C30   1.408319 A    
V3    O20   1.713619 S    
C33   H15   1.111634 S    
C37   H19   1.080315 S    
C12   C13   1.426614 A    
O12   C43   1.304187 A    
C7    H3    1.082690 S    
O18   C45   1.300378 A    
O19   C46   1.302640 A    
O4    C2    1.302337 A    
C15   H5    1.080517 S    
C13   C14   1.427945 A    
C43   O16   1.298406 A    
C35   C42   1.489500 S    
C27   C28   1.401852 A    
C37   C38   1.408854 A    
O2    C1    1.303475 A    
C23   C24   1.400091 A    
C30   C31   1.409299 A    
C17   C18   1.410222 A    
O16   V4    2.002209 S    
O19   V4    2.003216 S    
C30   H14   1.079626 S    
C5    C6    1.392933 A    
C11   C45   1.489179 S    
C27   C32   1.396139 A    
C4    C14   1.489840 S    
O3    C4    1.299343 A    
O14   C44   1.304715 A    
O6    V2    2.001784 S    
O9    V2    2.001979 S    
C42   H24   1.111720 S    
C5    H1    1.079732 S    
C41   H22   1.111548 S    
C6    H2    1.082878 S    
O2    V1    2.002394 S    
O11   C44   1.298464 A    
C24   C25   1.489431 S    
C17   N1    1.444734 S    
C25   H10   1.111256 S    
C13   C18   1.426849 A    
C26   H12   1.111740 S    
C33   H16   1.111972 S    
O1    C2    1.299936 A    
O15   V3    2.000015 S    
C40   C41   1.489774 S    
O5    V1    2.001340 S    
O8    C3    1.304614 A    
N1    O22   1.301487 A    
C35   C40   1.394032 A    
C18   F1    1.354719 S    
C5    C10   1.416839 A    
C34   H18   1.112043 S    
C19   C24   1.394372 A    
C9    C11   1.415753 A    
C32   C33   1.487881 S    
C39   C40   1.400123 A    
O12   V3    2.001148 S    
O3    V1    2.000099 S    
V1    O10   1.713610 S    
C2    C36   1.482073 S    
C31   C32   1.399467 A    
O17   V4    1.712876 S    
C31   C44   1.483529 S    
C36   C37   1.408484 A    
O7    V2    1.713473 S    
C38   H20   1.081287 S    
O13   V3    2.001440 S    
C21   H7    1.080273 S    
C25   C26   1.519319 S    
O4    V1    2.001199 S    
C8    C9    1.416410 A    
C16   H6    1.082957 S    
C35   C36   1.401337 A    
C10   C14   1.421553 A    
C15   C16   1.388077 A    
C27   C34   1.489950 S    
C19   C26   1.489508 S    
C9    C10   1.423324 A    
