data_mof_unit_3934.cif
_audit_creation_date              2012-12-10T18:23:06-0500
_audit_creation_method            fapswitch 2.2
_symmetry_space_group_name_H-M    P1
_symmetry_Int_Tables_number       1
_space_group_crystal_system       triclinic
_cell_length_a                    14.784268
_cell_length_b                    14.375734
_cell_length_c                    10.52127
_cell_angle_alpha                 89.072299
_cell_angle_beta                  89.662406
_cell_angle_gamma                 90.449857
_cell_volume                      2235.73246729

loop_
_atom_site_label
_atom_site_type_symbol
_atom_type_description
_atom_site_fract_x
_atom_site_fract_y
_atom_site_fract_z
_atom_type_partial_charge
C1    C     C_R   0.327718 0.499831 0.499930 0.873828
C2    C     C_R   0.672283 0.500169 0.500061 0.873847
C3    C     C_R   0.953080 0.499465 0.499806 0.039950
C4    C     C_R   0.046921 0.500532 0.500172 0.039948
C5    C     C_R   0.906639 0.516279 0.384755 0.114156
C6    C     C_R   0.093361 0.483720 0.615225 0.114166
C7    C     C_R   0.951841 0.464692 0.728034 -0.245035
C8    C     C_R   0.048160 0.535300 0.271944 -0.244983
C9    C     C_R   0.045782 0.466203 0.728515 -0.254124
C10   C     C_R   0.954219 0.533795 0.271464 -0.254133
C11   C     C_R   0.578232 0.801398 0.473989 0.018184
C12   C     C_R   0.421768 0.198602 0.526011 0.018186
C13   C     C_R   0.421959 0.799210 0.527799 0.018224
C14   C     C_R   0.578040 0.200790 0.472199 0.018223
C15   C     C_R   0.421382 0.898954 0.530372 -0.014593
C16   C     C_R   0.578616 0.101046 0.469622 -0.014590
C17   C     C_R   0.578322 0.901134 0.468739 -0.012873
C18   C     C_R   0.421677 0.098866 0.531257 -0.012879
C19   C     C_R   0.499800 0.949935 0.499168 0.079336
C20   C     C_R   0.500198 0.050065 0.500826 0.079333
C21   C     C_R   0.343789 0.949429 0.565130 -0.214551
C22   C     C_R   0.656209 0.050571 0.434865 -0.214550
C23   C     C_R   0.656465 0.953779 0.436296 -0.210417
C24   C     C_R   0.343534 0.046221 0.563701 -0.210405
C25   C     C_R   0.499821 0.500762 0.258109 0.853347
C26   C     C_R   0.500175 0.499238 0.741891 0.853367
C27   C     C_3   0.497679 0.589113 0.036095 0.126546
C28   C     C_3   0.502310 0.410890 0.963908 0.126538
C29   C     C_3   0.573519 0.545503 0.956680 0.101178
C30   C     C_3   0.426471 0.454500 0.043324 0.101185
C31   C     C_3   0.424313 0.541636 0.955410 -0.266507
C32   C     C_3   0.575677 0.458366 0.044592 -0.266502
C33   C     C_3   0.500709 0.497775 0.877100 -0.097315
C34   C     C_3   0.499281 0.502226 0.122902 -0.097299
C35   C     C_R   0.813107 0.516390 0.385891 -0.215718
C36   C     C_R   0.186892 0.483612 0.614091 -0.215703
C37   C     C_R   0.767510 0.500042 0.499931 0.005566
C38   C     C_R   0.232491 0.499957 0.500053 0.005561
C39   C     C_R   0.812107 0.480506 0.613002 -0.275604
C40   C     C_R   0.187895 0.519486 0.386977 -0.275658
C41   C     C_R   0.905491 0.481388 0.614435 0.121571
C42   C     C_R   0.094510 0.518605 0.385543 0.121558
H1    H     H_    0.363538 0.575105 0.914274 0.128545
H2    H     H_    0.636454 0.424896 0.085725 0.128548
H3    H     H_    0.775640 0.529306 0.299012 0.120186
H4    H     H_    0.224358 0.470700 0.700973 0.120204
H5    H     H_    0.774136 0.464211 0.698879 0.120835
H6    H     H_    0.225868 0.535771 0.301097 0.120865
H7    H     H_    0.915472 0.450859 0.816164 0.150609
H8    H     H_    0.084529 0.549128 0.183813 0.150640
H9    H     H_    0.081203 0.453308 0.816861 0.150343
H10   H     H_    0.918798 0.546693 0.183118 0.150355
H11   H     H_    0.281533 0.915290 0.594345 0.162056
H12   H     H_    0.718465 0.084710 0.405653 0.162060
H13   H     H_    0.719542 0.921469 0.410772 0.164240
H14   H     H_    0.280458 0.078531 0.589228 0.164241
N1    N     N_R   0.500000 0.750030 0.500000 -0.143113
N2    N     N_R   0.500000 0.249970 0.500000 -0.143113
O1    O     O_R   0.367850 0.580280 0.500030 -0.611006
O2    O     O_R   0.632150 0.419720 0.499970 -0.611011
O3    O     O_R   0.632150 0.580280 0.499970 -0.613118
O4    O     O_R   0.367850 0.419720 0.500030 -0.613125
O5    O     O_R   0.499970 0.580260 0.313950 -0.635085
O6    O     O_R   0.500030 0.419740 0.686050 -0.635084
O7    O     O_R   0.500030 0.580260 0.686050 -0.629894
O8    O     O_R   0.499970 0.419740 0.313950 -0.629888
Zn1   Zn    Zn3+2 0.500000 0.607200 0.500000 0.928442
Zn2   Zn    Zn3+2 0.500000 0.392800 0.500000 0.928442
C43   C     C_3   0.493512 0.689481 0.083665 -0.379852
C44   C     C_3   0.470372 0.760089 0.978722 -0.373084
C45   C     C_3   0.488864 0.859461 0.021121 -0.882901
H15   H     H_    0.449192 0.874722 0.108247 0.263852
H16   H     H_    0.562025 0.869391 0.040797 0.260566
H17   H     H_    0.468979 0.909190 0.944572 0.257378
H18   H     H_    0.510184 0.747058 0.891227 0.227969
H19   H     H_    0.397276 0.753405 0.956892 0.213797
H20   H     H_    0.440419 0.693967 0.158406 0.212743
H21   H     H_    0.559478 0.707089 0.126487 0.202259
C46   C     C_3   0.506450 0.310512 0.916371 -0.379909
C47   C     C_3   0.529668 0.239930 0.021315 -0.373113
C48   C     C_3   0.511144 0.140545 0.978995 -0.882920
H22   H     H_    0.437964 0.130602 0.959465 0.260567
H23   H     H_    0.550733 0.125268 0.891800 0.263858
H24   H     H_    0.531110 0.090838 0.055526 0.257383
H25   H     H_    0.602781 0.246622 0.043037 0.213804
H26   H     H_    0.489921 0.252984 0.108859 0.227965
H27   H     H_    0.440448 0.292891 0.873660 0.202268
H28   H     H_    0.559490 0.306007 0.841560 0.212789
C49   C     C_3   0.657197 0.594194 0.899644 -0.388722
C50   C     C_3   0.731113 0.609411 0.998818 -0.353311
C51   C     C_3   0.812118 0.661128 0.940391 -0.915423
H29   H     H_    0.841133 0.620833 0.860918 0.267417
H30   H     H_    0.791409 0.730752 0.904222 0.261433
H31   H     H_    0.865062 0.670519 0.013556 0.242435
H32   H     H_    0.704204 0.650278 0.078931 0.218039
H33   H     H_    0.754393 0.541220 0.036991 0.208626
H34   H     H_    0.684220 0.550339 0.823010 0.183102
H35   H     H_    0.637265 0.661655 0.856243 0.203288
C52   C     C_3   0.342799 0.405780 0.100338 -0.388734
C53   C     C_3   0.268827 0.390729 0.001203 -0.353455
C54   C     C_3   0.187878 0.338870 0.059542 -0.915543
H36   H     H_    0.208628 0.269180 0.095385 0.261466
H37   H     H_    0.158918 0.378978 0.139225 0.267459
H38   H     H_    0.134879 0.329628 0.986424 0.242453
H39   H     H_    0.245498 0.458982 0.963323 0.208661
H40   H     H_    0.295700 0.350039 0.920895 0.218059
H41   H     H_    0.362724 0.338254 0.143548 0.203336
H42   H     H_    0.315835 0.449541 0.177114 0.183106
C55   C     C_R   0.667549 0.757307 0.465593 0.215755
C56   C     C_R   0.719999 0.750125 0.576408 -0.128079
C57   C     C_R   0.812954 0.734208 0.567832 -0.155078
C58   C     C_R   0.854524 0.727690 0.448804 -0.093578
C59   C     C_R   0.802623 0.732948 0.338248 -0.171487
C60   C     C_R   0.709289 0.746832 0.346428 -0.178656
H43   H     H_    0.689542 0.761188 0.668742 0.112651
H44   H     H_    0.853221 0.729661 0.653221 0.134261
H45   H     H_    0.926869 0.717564 0.442242 0.129381
H46   H     H_    0.834985 0.727662 0.246167 0.139738
H47   H     H_    0.671046 0.756989 0.260259 0.111704
C61   C     C_R   0.332452 0.242694 0.534412 0.215749
C62   C     C_R   0.290717 0.253174 0.653580 -0.178660
C63   C     C_R   0.197383 0.267056 0.661767 -0.171513
C64   C     C_R   0.145476 0.272305 0.551215 -0.093582
C65   C     C_R   0.187041 0.265783 0.432185 -0.155077
C66   C     C_R   0.279997 0.249872 0.423601 -0.128081
H48   H     H_    0.328964 0.243026 0.739747 0.111756
H49   H     H_    0.165025 0.272347 0.753849 0.139772
H50   H     H_    0.073131 0.282428 0.557782 0.129386
H51   H     H_    0.146770 0.270323 0.346800 0.134245
H52   H     H_    0.310451 0.238809 0.331265 0.112689
C67   C     C_R   0.336600 0.751379 0.562489 0.207360
C68   C     C_R   0.262775 0.754817 0.478715 -0.167457
C69   C     C_R   0.176066 0.730247 0.521908 -0.141976
C70   C     C_R   0.162672 0.701490 0.648188 -0.096398
C71   C     C_R   0.236371 0.694176 0.730313 -0.193036
C72   C     C_R   0.323038 0.719243 0.687591 -0.121457
H53   H     H_    0.271836 0.780908 0.382292 0.120886
H54   H     H_    0.119077 0.734713 0.458048 0.131049
H55   H     H_    0.095367 0.683426 0.681813 0.133945
H56   H     H_    0.226084 0.670476 0.827517 0.120497
H57   H     H_    0.379320 0.716136 0.751966 0.122111
C73   C     C_R   0.663404 0.248619 0.437523 0.207367
C74   C     C_R   0.676981 0.280749 0.312421 -0.121479
C75   C     C_R   0.763653 0.305811 0.269716 -0.193022
C76   C     C_R   0.837343 0.298496 0.351856 -0.096389
C77   C     C_R   0.823934 0.269743 0.478135 -0.141989
C78   C     C_R   0.737220 0.245179 0.521311 -0.167453
H58   H     H_    0.620708 0.283854 0.248031 0.122101
H59   H     H_    0.773951 0.329508 0.172513 0.120516
H60   H     H_    0.904653 0.316556 0.318244 0.133940
H61   H     H_    0.880917 0.265274 0.542006 0.131054
H62   H     H_    0.728147 0.219090 0.617734 0.120889

loop_
_geom_bond_atom_site_label_1
_geom_bond_atom_site_label_2
_ccdc_geom_bond_type
O8    Zn2   S    
C14   C73   S    
C54   H36   S    
C27   C29   S    
C43   H20   S    
C57   C58   A    
C9    H9    S    
C10   H10   S    
C1    O4    A    
C6    C9    A    
C46   H27   S    
C76   C77   A    
C50   C51   S    
C64   C65   A    
C39   C41   A    
C15   C19   A    
C52   H42   S    
C53   H39   S    
C17   C23   A    
C31   H1    S    
C18   C24   A    
O6    Zn2   S    
C35   C37   A    
C8    C42   A    
C77   C78   A    
C29   C32   S    
C1    O1    A    
C58   H45   S    
C2    O2    A    
C11   C55   S    
C5    C10   A    
C74   C75   A    
C29   C33   S    
C7    C9    A    
C25   O5    A    
C63   H49   S    
C28   C46   S    
C26   O6    A    
C56   C57   A    
C58   C59   A    
C47   H26   S    
O1    Zn1   S    
C12   C61   S    
C66   H52   S    
C11   C17   A    
C19   C20   A    
C68   C69   A    
O7    Zn1   S    
C31   C33   S    
C36   H4    S    
C57   H44   S    
C71   C72   A    
C76   H60   S    
C27   C43   S    
C2    O3    A    
C25   C34   S    
C12   N2    A    
C40   C42   A    
C69   H54   S    
C54   H37   S    
C43   H21   S    
C71   H56   S    
N1    Zn1   S    
C29   C49   S    
C46   H28   S    
C48   H23   S    
C48   H22   S    
C27   C34   S    
C32   H2    S    
C74   H58   S    
C14   N2    A    
O5    Zn1   S    
C30   C34   S    
C27   C31   S    
C28   C32   S    
C13   N1    A    
C7    H7    S    
C22   H12   S    
C67   C72   A    
C70   H55   S    
C45   H16   S    
C61   C66   A    
C47   C48   S    
C68   H53   S    
C30   C52   S    
C46   C47   S    
C49   H34   S    
C77   H61   S    
C32   C34   S    
C47   H25   S    
C51   H30   S    
O3    Zn1   S    
C26   C33   S    
C52   C53   S    
C16   C20   A    
C13   C67   S    
C50   H33   S    
C62   C63   A    
C44   C45   S    
C55   C60   A    
C1    C38   S    
C4    C6    A    
C28   C33   S    
C54   H38   S    
C13   C15   A    
C44   H19   S    
C69   C70   A    
C14   C16   A    
C67   C68   A    
C35   H3    S    
C8    H8    S    
C51   H29   S    
C48   H24   S    
C61   C62   A    
C39   H5    S    
C59   C60   A    
N2    Zn2   S    
C40   H6    S    
C3    C41   A    
C16   C22   A    
C75   H59   S    
C73   C74   A    
C26   O7    A    
C73   C78   A    
C25   O8    A    
C60   H47   S    
C75   C76   A    
C3    C5    A    
C50   H32   S    
C45   H17   S    
C23   H13   S    
C70   C71   A    
C24   H14   S    
C52   H41   S    
C5    C35   A    
C53   H40   S    
O4    Zn2   S    
C49   H35   S    
C28   C30   S    
C78   H62   S    
C49   C50   S    
C62   H48   S    
C37   C39   A    
C55   C56   A    
C51   H31   S    
C38   C40   A    
C2    C37   S    
C64   H50   S    
C30   C31   S    
C4    C42   A    
C21   H11   S    
C36   C38   A    
C53   C54   S    
C17   C19   A    
C72   H57   S    
C6    C36   A    
C65   H51   S    
C18   C20   A    
C7    C41   A    
C43   C44   S    
C59   H46   S    
C15   C21   A    
C45   H15   S    
O2    Zn2   S    
C8    C10   A    
C21   C24   A    
C12   C18   A    
C44   H18   S    
C22   C23   A    
C63   C64   A    
C11   N1    A    
C56   H43   S    
C3    C4    A    
C65   C66   A    
