data_mof_unit_2130.cif
_audit_creation_date              2012-12-11T13:59:57-0500
_audit_creation_method            fapswitch 2.2
_symmetry_space_group_name_H-M    P1
_symmetry_Int_Tables_number       1
_space_group_crystal_system       triclinic
_cell_length_a                    11.204605
_cell_length_b                    11.265145
_cell_length_c                    18.69743
_cell_angle_alpha                 89.394823
_cell_angle_beta                  90.325687
_cell_angle_gamma                 120.426116
_cell_volume                      2034.88926153

loop_
_atom_site_label
_atom_site_type_symbol
_atom_type_description
_atom_site_fract_x
_atom_site_fract_y
_atom_site_fract_z
_atom_type_partial_charge
C1    C     C_R   0.540809 0.480258 0.851465 0.563264
C2    C     C_R   0.480714 0.542930 0.351510 0.540298
C3    C     C_R   0.141234 0.553070 0.357397 0.557944
C4    C     C_R   0.459987 0.939882 0.350246 0.517542
C5    C     C_2   0.012726 0.510016 0.581259 0.269812
C6    C     C_2   0.570102 0.438950 0.564257 0.281714
C7    C     C_2   0.555795 0.130434 0.564863 0.305071
C8    C     C_2   0.509883 0.007817 0.418336 0.279058
C9    C     C_2   0.499659 0.508196 0.423596 0.289964
C10   C     C_2   0.145887 0.560598 0.435657 0.286782
C11   C     C_2   0.089126 0.443988 0.474407 -0.035956
C12   C     C_R   0.548312 0.127736 0.861582 0.551117
C13   C     C_2   0.628943 0.549784 0.446803 -0.023459
C14   C     C_2   0.429752 0.044318 0.453216 -0.017813
C15   C     C_2   0.436326 0.054828 0.530032 0.005251
C16   C     C_2   0.658595 0.543982 0.522698 -0.010492
C17   C     C_2   0.067722 0.440467 0.551364 -0.013393
C18   C     C_2   0.921904 0.452060 0.934973 -0.111162
C19   C     C_2   0.485934 0.515989 0.912380 -0.101220
C20   C     C_2   0.532669 0.081031 0.935286 -0.106981
C21   C     C_2   0.515471 0.033592 0.087950 -0.107271
C22   C     C_2   0.469201 0.547903 0.064909 -0.105689
C23   C     C_R   0.873781 0.420427 0.861666 0.544733
C24   C     C_2   0.967480 0.481605 0.087768 -0.107621
C25   C     C_2   0.960249 0.575939 0.046905 -0.156119
C26   C     C_2   0.362180 0.454204 0.025977 -0.164527
C27   C     C_2   0.618103 0.041536 0.047998 -0.164667
C28   C     C_2   0.640181 0.096704 0.974717 -0.173865
C29   C     C_2   0.384606 0.420407 0.953418 -0.161395
C30   C     C_2   0.904627 0.541803 0.973956 -0.162269
C31   C     C_R   0.452524 0.579521 0.137970 0.569953
C32   C     C_R   0.059940 0.519044 0.148703 0.563781
C33   C     C_R   0.459530 0.940607 0.148790 0.557761
C34   C     C_R   0.585671 0.447513 0.641856 0.538981
C35   C     C_R   0.552640 0.138669 0.642076 0.525374
C36   C     C_R   0.940073 0.459576 0.649297 0.512474
Cr1   Cr    Cr6+3 0.464030 0.233680 0.750360 1.017856
Cr2   Cr    Cr6+3 0.766320 0.230350 0.750360 1.033721
Cr3   Cr    Cr6+3 0.769650 0.535970 0.750360 1.019213
Cr4   Cr    Cr6+3 0.233680 0.464030 0.249640 1.018537
Cr5   Cr    Cr6+3 0.230350 0.766320 0.249640 1.025454
Cr6   Cr    Cr6+3 0.535970 0.769650 0.249640 1.021488
H1    H     H_    0.048051 0.344358 0.449166 0.101501
H2    H     H_    0.742453 0.139628 0.951261 0.142042
H3    H     H_    0.324655 0.313997 0.936362 0.149889
H4    H     H_    0.859139 0.598373 0.950402 0.154254
H5    H     H_    0.915862 0.374481 0.071546 0.108454
H6    H     H_    0.573371 0.602498 0.043069 0.109846
H7    H     H_    0.460030 0.085118 0.071153 0.110614
H8    H     H_    0.428646 0.030815 0.957266 0.118997
H9    H     H_    0.541239 0.623351 0.928195 0.113954
H10   H     H_    0.973911 0.400613 0.957078 0.110513
H11   H     H_    0.238328 0.759250 0.434341 0.331589
H12   H     H_    0.716572 0.601039 0.410555 0.098635
H13   H     H_    0.303466 0.418312 0.444997 0.322266
H14   H     H_    0.672004 0.984578 0.419148 0.340647
H15   H     H_    0.751521 0.265408 0.561918 0.315698
H16   H     H_    0.394617 0.263369 0.567882 0.334302
H17   H     H_    0.969586 0.657530 0.573435 0.329209
H18   H     H_    0.339212 0.038582 0.428184 0.102742
H19   H     H_    0.337771 0.999832 0.557843 0.114628
H20   H     H_    0.749483 0.632253 0.544956 0.094144
H21   H     H_    0.070542 0.358039 0.580602 0.109686
H22   H     H_    0.005888 0.681918 0.064241 0.154114
H23   H     H_    0.259648 0.394450 0.049361 0.153417
H24   H     H_    0.678419 0.996034 0.066205 0.149816
O1    O     O_R   0.434100 0.092480 0.829780 -0.492523
O2    O     O_R   0.362730 0.477510 0.175360 -0.487765
O3    O     O_R   0.114780 0.637270 0.175360 -0.490380
O4    O     O_R   0.522490 0.885220 0.175360 -0.511548
O5    O     O_R   0.432250 0.092620 0.670380 -0.535585
O6    O     O_R   0.907380 0.339630 0.670380 -0.545060
O7    O     O_R   0.660370 0.567750 0.670380 -0.508364
O8    O     O_R   0.092620 0.432250 0.329620 -0.535722
O9    O     O_R   0.339630 0.907380 0.329620 -0.562092
O10   O     O_R   0.567750 0.660370 0.329620 -0.522911
O11   O     O_R   0.475790 0.362860 0.676880 -0.512936
O12   O     O_R   0.907520 0.341620 0.829780 -0.507995
O13   O     O_R   0.637140 0.112930 0.676880 -0.467272
O14   O     O_R   0.887070 0.524210 0.676880 -0.528247
O15   O     O_R   0.362860 0.475790 0.323120 -0.529008
O16   O     O_R   0.112930 0.637140 0.323120 -0.491955
O17   O     O_R   0.524210 0.887070 0.323120 -0.505782
O18   O     O_3   0.666667 0.333333 0.749450 -0.346401
O19   O     O_3   0.333333 0.666667 0.250550 -0.294681
O20   O     O_3   0.216487 0.685872 0.469874 -0.645826
O21   O     O_3   0.391726 0.465956 0.471605 -0.656447
O22   O     O_3   0.616684 0.002902 0.453638 -0.637405
O23   O     O_R   0.658380 0.565900 0.829780 -0.515786
O24   O     O_3   0.676284 0.214138 0.527270 -0.647237
O25   O     O_3   0.466929 0.320418 0.532447 -0.683731
O26   O     O_3   0.998138 0.606648 0.541686 -0.669247
O27   O     O_R   0.092480 0.434100 0.170220 -0.523260
O28   O     O_R   0.341620 0.907520 0.170220 -0.510905
O29   O     O_R   0.565900 0.658380 0.170220 -0.510212
O30   O     O_R   0.477510 0.362730 0.824640 -0.507421
O31   O     O_R   0.637270 0.114780 0.824640 -0.484091
O32   O     O_R   0.885220 0.522490 0.824640 -0.476404

loop_
_geom_bond_atom_site_label_1
_geom_bond_atom_site_label_2
_ccdc_geom_bond_type
C22   H6    S    
Cr4   O27   S    
C4    C8    S    
C33   O28   A    
C21   H7    S    
C18   H10   S    
Cr3   O18   S    
C34   O11   A    
H14   O22   S    
C5    C17   D    
Cr2   O13   S    
C6    O25   S    
C5    C36   S    
Cr6   O4    S    
C3    O8    A    
C9    C13   D    
C4    O9    A    
C20   H8    S    
C10   O20   S    
C8    C14   D    
Cr1   O18   S    
C11   H1    S    
H11   O20   S    
C18   C30   D    
H16   O25   S    
C20   C28   D    
C7    C15   D    
C32   O27   A    
C21   C27   D    
C35   O5    A    
H15   O24   S    
C24   H5    S    
C16   H20   S    
Cr2   O31   S    
C31   O2    A    
C12   O1    A    
Cr2   O6    S    
C1    C19   S    
C22   C31   S    
C18   C23   S    
C24   C25   D    
C36   O14   A    
Cr3   O32   S    
Cr2   O12   S    
C7    O24   S    
Cr1   O11   S    
C28   H2    S    
Cr6   O29   S    
Cr1   O30   S    
C29   H3    S    
C8    O22   S    
C25   H22   S    
Cr4   O19   S    
C24   C32   S    
C19   H9    S    
Cr5   O9    S    
Cr5   O28   S    
C12   C20   S    
C3    O16   A    
C15   H19   S    
Cr6   O19   S    
C12   O31   A    
C33   O4    A    
Cr5   O19   S    
Cr1   O5    S    
C22   C26   D    
C19   C29   D    
C2    O10   A    
Cr5   O3    S    
C13   H12   S    
C25   C30   S    
C11   C17   S    
C1    O23   A    
Cr2   O18   S    
C26   H23   S    
C7    C35   S    
Cr4   O15   S    
C30   H4    S    
Cr6   O17   S    
C32   O3    A    
C14   H18   S    
Cr6   O10   S    
Cr3   O14   S    
C3    C10   S    
C17   H21   S    
C4    O17   A    
C1    O30   A    
C31   O29   A    
Cr5   O16   S    
Cr1   O1    S    
C35   O13   A    
Cr4   O8    S    
H17   O26   S    
Cr3   O7    S    
C23   O12   A    
H13   O21   S    
C5    O26   S    
C10   C11   D    
C34   O7    A    
C6    C16   D    
C6    C34   S    
C23   O32   A    
C21   C33   S    
C26   C29   S    
Cr4   O2    S    
C13   C16   S    
C27   C28   S    
C27   H24   S    
C14   C15   S    
C2    O15   A    
C2    C9    S    
Cr3   O23   S    
C9    O21   S    
C36   O6    A    
