data_mof_unit_1671.cif
_audit_creation_date              2012-12-10T16:55:04-0500
_audit_creation_method            fapswitch 2.2
_symmetry_space_group_name_H-M    P1
_symmetry_Int_Tables_number       1
_space_group_crystal_system       triclinic
_cell_length_a                    9.748488
_cell_length_b                    10.937304
_cell_length_c                    15.437789
_cell_angle_alpha                 88.487865
_cell_angle_beta                  74.326688
_cell_angle_gamma                 88.200346
_cell_volume                      1583.75229271

loop_
_atom_site_label
_atom_site_type_symbol
_atom_type_description
_atom_site_fract_x
_atom_site_fract_y
_atom_site_fract_z
_atom_type_partial_charge
C1    C     C_R   0.999613 0.265840 0.505899 0.783190
C2    C     C_R   0.672910 0.475790 0.906346 0.089087
C3    C     C_R   0.768396 0.429505 0.954674 0.137172
C4    C     C_R   0.524643 0.487330 0.950344 0.069493
C5    C     C_R   0.476140 0.466588 0.045171 0.063887
C6    C     C_R   0.575333 0.421670 0.091130 -0.138108
C7    C     C_R   0.717965 0.401235 0.046044 -0.158976
C8    C     C_R   0.422786 0.513852 0.901913 -0.179408
C9    C     C_R   0.278973 0.524762 0.945217 -0.180799
C10   C     C_R   0.231264 0.512730 0.038337 0.101558
C11   C     C_R   0.328857 0.486664 0.089945 0.098877
C12   C     C_R   0.917580 0.498156 0.672151 0.798418
C13   C     C_R   0.085685 0.525551 0.080018 -0.237849
C14   C     C_R   0.033557 0.515167 0.172987 0.402435
C15   C     C_R   0.275597 0.484331 0.184490 -0.264456
C16   C     C_2   0.894281 0.936771 0.527188 0.300009
C17   C     C_2   0.999719 0.864168 0.477775 0.187202
C18   C     C_2   0.893864 0.068265 0.511878 -0.183697
C19   C     C_2   0.997531 0.135699 0.526074 0.248364
C20   C     C_2   0.391395 0.495675 0.572607 0.017674
C21   C     C_2   0.546072 0.468827 0.568803 0.013855
C22   C     C_R   0.999244 0.734123 0.496499 0.815510
C23   C     C_R   0.082716 0.499286 0.327232 0.852655
C24   C     C_R   0.872372 0.484631 0.770609 -0.034980
C25   C     C_R   0.128958 0.498940 0.227160 -0.115821
C26   C     C_R   0.913412 0.410305 0.910615 -0.189235
C27   C     C_R   0.965035 0.437040 0.818942 -0.169612
C28   C     C_R   0.729189 0.507901 0.815121 -0.207656
Cu1   Cu    Cu3+1 0.138640 0.500020 0.499980 1.047179
Cu2   Cu    Cu3+1 0.861360 0.499980 0.500020 1.114925
H1    H     H_    0.789592 0.363037 0.083078 0.187512
H2    H     H_    0.011323 0.543718 0.039967 0.169950
H3    H     H_    0.808654 0.109078 0.486815 0.172078
H4    H     H_    0.316599 0.511993 0.637541 0.131948
H5    H     H_    0.407861 0.446271 0.450004 0.253152
H6    H     H_    0.568478 0.425244 0.627551 0.100039
H7    H     H_    0.347535 0.474425 0.226399 0.190178
H8    H     H_    0.204419 0.543485 0.905290 0.149524
H9    H     H_    0.986354 0.372019 0.946680 0.146024
H10   H     H_    0.076072 0.417438 0.785543 0.154727
H11   H     H_    0.663801 0.551711 0.776642 0.161735
H12   H     H_    0.544775 0.395952 0.161473 0.178997
H13   H     H_    0.449672 0.521666 0.829617 0.137927
N1    N     N_2   0.346430 0.498660 0.500980 -0.224817
N2    N     N_2   0.652550 0.498630 0.501000 -0.002959
O1    O     O_R   0.117050 0.321960 0.499980 -0.544815
O2    O     O_R   0.882890 0.321920 0.500020 -0.615348
O3    O     O_R   0.052910 0.500040 0.629810 -0.596911
O4    O     O_R   0.818750 0.499990 0.629840 -0.600739
O5    O     O_R   0.117110 0.678080 0.499980 -0.544068
O6    O     O_R   0.882950 0.678040 0.500020 -0.501480
O7    O     O_R   0.181250 0.500010 0.370160 -0.599025
O8    O     O_R   0.947090 0.499960 0.370190 -0.479105
Cl1   Cl    Cl    0.757628 0.881060 0.618569 -0.535493
S1    S     S_3+6 0.128349 0.914406 0.378607 0.058822
O9    O     O_2   0.072393 0.022118 0.334819 -0.265898
O10   O     O_2   0.261842 0.949997 0.401560 -0.203226
O11   O     O_3   0.168552 0.799766 0.304602 -0.510599
H14   H     H_    0.247726 0.752531 0.319584 0.372515
Cl2   Cl    Cl    0.125040 0.074194 0.579315 -0.502788
S2    S     S_3+6 0.621949 0.615228 0.426632 0.177226
O12   O     O_2   0.569260 0.562784 0.352904 -0.273664
O13   O     O_2   0.514203 0.707848 0.476887 -0.237185
O14   O     O_3   0.769655 0.691120 0.374980 -0.427710
H15   H     H_    0.736612 0.760386 0.342475 0.382402
Cl3   Cl    Cl    0.847853 0.522969 0.215306 -0.539817

loop_
_geom_bond_atom_site_label_1
_geom_bond_atom_site_label_2
_ccdc_geom_bond_type
C8    C9    A    
S2    O14   S    
C2    C4    A    
S1    O9    D    
C8    H13   S    
C23   O8    A    
Cu1   Cu2   S    
C2    C3    A    
C19   Cl2   S    
C22   O6    A    
C9    C10   A    
C17   S1    S    
Cu2   N2    S    
C21   N2    D    
C17   C22   S    
C24   C27   A    
C12   O3    A    
C27   H10   S    
C22   O5    A    
C20   H4    S    
O14   H15   S    
S1    O10   D    
C12   O4    A    
C14   Cl3   S    
Cu1   N1    S    
C21   H6    S    
Cu1   O1    S    
C13   C14   A    
H5    N1    S    
C23   O7    A    
C6    C7    A    
C5    C6    A    
N2    S2    S    
C9    H8    S    
C18   H3    S    
Cu2   O4    S    
C5    C11   A    
C3    C7    A    
Cu1   O5    S    
C23   C25   S    
C14   C25   A    
C26   C27   A    
S2    O12   D    
C26   H9    S    
Cu2   O8    S    
C16   Cl1   S    
C1    O1    A    
C15   C25   A    
C7    H1    S    
C10   C11   A    
Cu1   O3    S    
Cu2   O6    S    
Cu2   O2    S    
C20   C21   S    
C16   C18   S    
C18   C19   D    
C6    H12   S    
S1    O11   S    
C4    C8    A    
S2    O13   D    
C12   C24   S    
C4    C5    A    
C2    C28   A    
C13   H2    S    
C20   N1    D    
O11   H14   S    
C1    C19   S    
C11   C15   A    
C10   C13   A    
C3    C26   A    
C15   H7    S    
C28   H11   S    
C24   C28   A    
C1    O2    A    
C16   C17   D    
Cu1   O7    S    
