data_mof_unit_406.cif
_audit_creation_date              2012-12-10T19:36:20-0500
_audit_creation_method            fapswitch 2.2
_symmetry_space_group_name_H-M    P1
_symmetry_Int_Tables_number       1
_space_group_crystal_system       triclinic
_cell_length_a                    15.841065
_cell_length_b                    15.801122
_cell_length_c                    17.009283
_cell_angle_alpha                 84.287877
_cell_angle_beta                  90.708663
_cell_angle_gamma                 112.288791
_cell_volume                      3918.37860237

loop_
_atom_site_label
_atom_site_type_symbol
_atom_type_description
_atom_site_fract_x
_atom_site_fract_y
_atom_site_fract_z
_atom_type_partial_charge
C1    C     C_R   0.498941 0.509514 0.348296 0.810282
C2    C     C_R   0.500964 0.490452 0.651714 0.809211
C3    C     C_R   0.099945 0.610859 0.459375 -0.264932
C4    C     C_R   0.898993 0.390013 0.477495 -0.266812
C5    C     C_R   0.060059 0.675998 0.455353 -0.025564
C6    C     C_R   0.938920 0.324819 0.482663 -0.022995
C7    C     C_R   0.492107 0.511002 0.262051 -0.044758
C8    C     C_R   0.507410 0.488810 0.737998 -0.045213
C9    C     C_R   0.473169 0.429533 0.226478 -0.272757
C10   C     C_R   0.525914 0.570138 0.773681 -0.273346
C11   C     C_R   0.463447 0.428401 0.144722 0.007246
C12   C     C_R   0.535203 0.571082 0.855489 0.007343
C13   C     C_R   0.475981 0.511769 0.097686 0.329875
C14   C     C_R   0.522643 0.487664 0.902462 0.329989
C15   C     C_R   0.492078 0.592086 0.133603 -0.201955
C16   C     C_R   0.506908 0.407480 0.866452 -0.202489
C17   C     C_R   0.500455 0.592038 0.215151 -0.229139
C18   C     C_R   0.498979 0.407718 0.784857 -0.230028
C19   C     C_R   0.543201 0.263161 0.459788 0.029620
C20   C     C_R   0.461704 0.738567 0.543665 0.035638
C21   C     C_R   0.541372 0.173129 0.462425 -0.277998
C22   C     C_R   0.463219 0.828532 0.540490 -0.287424
C23   C     C_R   0.675183 0.555450 0.496799 0.803496
C24   C     C_R   0.324822 0.444589 0.502313 0.802863
C25   C     C_R   0.482807 0.103113 0.517306 0.373612
C26   C     C_R   0.515941 0.896575 0.481186 0.388674
C27   C     C_R   0.428070 0.127249 0.567929 -0.335606
C28   C     C_R   0.565023 0.870448 0.426675 -0.337611
C29   C     C_R   0.431805 0.218001 0.563155 0.052104
C30   C     C_R   0.562314 0.780031 0.432427 0.043578
C31   C     C_R   0.775006 0.588574 0.489308 -0.053711
C32   C     C_R   0.224960 0.411809 0.499686 -0.054376
C33   C     C_R   0.922940 0.711379 0.466422 -0.201390
C34   C     C_R   0.076653 0.289301 0.498200 -0.201591
C35   C     C_R   0.828855 0.682337 0.476895 -0.199212
C36   C     C_R   0.170954 0.318182 0.502813 -0.198873
C37   C     C_R   0.816121 0.524429 0.491619 -0.243983
C38   C     C_R   0.183782 0.476001 0.492270 -0.241203
C39   C     C_R   0.910306 0.551283 0.477015 0.084242
C40   C     C_R   0.089127 0.449362 0.483238 0.084319
C41   C     C_R   0.964884 0.646978 0.465697 0.111336
C42   C     C_R   0.034425 0.353749 0.487503 0.111970
C43   C     C_R   0.951429 0.485245 0.476379 0.047268
C44   C     C_R   0.047761 0.515468 0.473300 0.045077
Cu1   Cu    Cu3+1 0.504410 0.586150 0.496120 0.935562
Cu2   Cu    Cu3+1 0.495590 0.413850 0.503880 0.934661
H1    H     H_    0.423354 0.844122 0.583944 0.145659
H2    H     H_    0.585707 0.159055 0.422191 0.158820
H3    H     H_    0.382406 0.075769 0.611109 0.133675
H4    H     H_    0.606176 0.920396 0.380131 0.142766
H5    H     H_    0.227353 0.546685 0.495847 0.150808
H6    H     H_    0.772939 0.453528 0.506977 0.151235
H7    H     H_    0.201423 0.267101 0.509588 0.153439
H8    H     H_    0.798390 0.733324 0.475440 0.152008
H9    H     H_    0.962235 0.784641 0.458880 0.149233
H10   H     H_    0.037511 0.216049 0.503480 0.151635
H11   H     H_    0.172660 0.637587 0.448345 0.153058
H12   H     H_    0.825999 0.363639 0.471433 0.146012
H13   H     H_    0.535663 0.633857 0.737631 0.161321
H14   H     H_    0.463408 0.365851 0.262591 0.161993
H15   H     H_    0.500428 0.655561 0.097827 0.160711
H16   H     H_    0.498532 0.343968 0.902181 0.160448
N1    N     N_2   0.474985 0.517840 0.014288 -0.256747
N2    N     N_2   0.523490 0.481466 0.985871 -0.256589
N3    N     N_R   0.488960 0.284450 0.509710 -0.162812
N4    N     N_R   0.511040 0.715550 0.490290 -0.160857
N5    N     N_2   0.476919 0.009395 0.524465 -0.260873
N6    N     N_2   0.522181 0.990436 0.473955 -0.239656
O1    O     O_R   0.504130 0.580750 0.382440 -0.587472
O2    O     O_R   0.495870 0.419250 0.617560 -0.586164
O3    O     O_R   0.496670 0.435250 0.388990 -0.588950
O4    O     O_R   0.503330 0.564750 0.611010 -0.590727
O5    O     O_R   0.635650 0.613550 0.494890 -0.585236
O6    O     O_R   0.364350 0.386450 0.505110 -0.586813
O7    O     O_R   0.628200 0.468050 0.501440 -0.588096
O8    O     O_R   0.371800 0.531950 0.498560 -0.585741
C45   C     C_R   0.121293 0.774344 0.443084 0.112491
C46   C     C_R   0.183317 0.813682 0.501417 -0.158562
C47   C     C_R   0.242056 0.906059 0.489934 -0.120858
C48   C     C_R   0.240072 0.959512 0.419880 -0.091992
C49   C     C_R   0.179044 0.920571 0.361222 -0.145017
C50   C     C_R   0.119825 0.828189 0.372615 -0.162886
H17   H     H_    0.185735 0.772909 0.555869 0.125069
H18   H     H_    0.288917 0.936074 0.535488 0.139530
H19   H     H_    0.285816 0.031014 0.411075 0.132461
H20   H     H_    0.177673 0.961950 0.306911 0.129949
H21   H     H_    0.073026 0.798567 0.326727 0.129342
C51   C     C_R   0.877792 0.226400 0.485836 0.107811
C52   C     C_R   0.814603 0.185893 0.549132 -0.156919
C53   C     C_R   0.759000 0.092453 0.553882 -0.113190
C54   C     C_R   0.765956 0.039038 0.495486 -0.099608
C55   C     C_R   0.826791 0.079353 0.431167 -0.152778
C56   C     C_R   0.882286 0.172892 0.426003 -0.164453
H22   H     H_    0.809534 0.226346 0.595341 0.130464
H23   H     H_    0.711176 0.061230 0.603228 0.136149
H24   H     H_    0.724511 0.966343 0.500322 0.133034
H25   H     H_    0.831445 0.037954 0.385655 0.124249
H26   H     H_    0.929671 0.203354 0.376203 0.130601
H27   H     H_    0.420518 0.686885 0.588995 0.125365
H28   H     H_    0.588562 0.316307 0.417662 0.128286
H29   H     H_    0.389042 0.235289 0.602536 0.122264
H30   H     H_    0.601141 0.761451 0.390213 0.122880
C57   C     C_R   0.561049 0.660019 0.889813 0.136081
C58   C     C_R   0.511086 0.716223 0.872581 -0.154931
C59   C     C_R   0.535028 0.799605 0.905472 -0.138791
C60   C     C_R   0.609102 0.827723 0.955467 -0.122985
C61   C     C_R   0.659609 0.772679 0.972439 -0.156255
C62   C     C_R   0.635997 0.689299 0.939630 -0.112537
H31   H     H_    0.453045 0.695015 0.834449 0.121134
H32   H     H_    0.496005 0.842346 0.892323 0.125131
H33   H     H_    0.627435 0.892218 0.980967 0.122543
H34   H     H_    0.717099 0.794624 0.011025 0.128406
H35   H     H_    0.676085 0.647613 0.953013 0.130606
C63   C     C_R   0.437174 0.339332 0.110536 0.135228
C64   C     C_R   0.362122 0.310217 0.060813 -0.113435
C65   C     C_R   0.338004 0.226634 0.028254 -0.157465
C66   C     C_R   0.388098 0.171214 0.045389 -0.124487
C67   C     C_R   0.462282 0.199173 0.095279 -0.138015
C68   C     C_R   0.486740 0.282762 0.127909 -0.154821
H36   H     H_    0.322308 0.352162 0.047342 0.130769
H37   H     H_    0.280421 0.204808 0.989757 0.128983
H38   H     H_    0.369357 0.106551 0.020099 0.122896
H39   H     H_    0.500986 0.156141 0.108556 0.126825
H40   H     H_    0.544854 0.303824 0.165972 0.123019
H41   H     H_    0.514006 0.655483 0.241357 0.158341
H42   H     H_    0.485716 0.344369 0.758580 0.158991

loop_
_geom_bond_atom_site_label_1
_geom_bond_atom_site_label_2
_ccdc_geom_bond_type
C33   H9    S    
C59   H32   S    
C34   H10   S    
C27   C29   A    
C61   H34   S    
C34   C42   A    
C66   H38   S    
C24   O6    A    
C49   C50   A    
C53   H23   S    
C39   C41   A    
C68   H40   S    
C1    O3    A    
Cu1   O8    S    
C32   C36   A    
C20   N4    A    
C19   C21   A    
C47   H18   S    
C60   C61   A    
C64   C65   A    
C6    C51   S    
C65   C66   A    
Cu1   O5    S    
C52   H22   S    
C11   C63   S    
C67   C68   A    
C58   C59   A    
C21   C25   A    
C36   H7    S    
C57   C58   A    
C54   H24   S    
C28   H4    S    
C46   H17   S    
C7    C17   A    
C25   N5    S    
C61   C62   A    
C57   C62   A    
C14   C16   A    
C32   C38   A    
C49   H20   S    
C45   C46   A    
C21   H2    S    
C40   C42   A    
C22   H1    S    
Cu1   O4    S    
C16   H16   S    
C23   O5    A    
C2    O4    A    
Cu2   O7    S    
C55   H25   S    
C63   C64   A    
C60   H33   S    
C3    C44   A    
C65   H37   S    
N1    N2    D    
Cu1   O1    S    
N5    N6    D    
Cu2   N3    S    
C4    C6    A    
C23   O7    A    
C54   C55   A    
C37   H6    S    
C46   C47   A    
C24   O8    A    
C39   C43   A    
C38   H5    S    
Cu1   Cu2   S    
C1    O1    A    
C31   C37   A    
C23   C31   S    
C62   H35   S    
C43   C44   A    
C24   C32   S    
C48   H19   S    
C13   N1    S    
C14   N2    S    
C30   H30   S    
C50   H21   S    
C15   H15   S    
C29   H29   S    
C9    C11   A    
Cu2   O3    S    
C30   N4    A    
C10   C12   A    
C12   C57   S    
C29   N3    A    
C3    H11   S    
C16   C18   A    
C12   C14   A    
C13   C15   A    
C22   C26   A    
C31   C35   A    
C5    C45   S    
Cu2   O6    S    
C7    C9    A    
C5    C41   A    
C51   C56   A    
C1    C7    S    
C2    C8    S    
C63   C68   A    
C20   C22   A    
C48   C49   A    
C3    C5    A    
C19   H28   S    
C15   C17   A    
C4    C43   A    
C25   C27   A    
C59   C60   A    
C26   C28   A    
C9    H14   S    
C26   N6    S    
C28   C30   A    
C10   H13   S    
C33   C41   A    
C37   C39   A    
C66   C67   A    
C18   H42   S    
C38   C40   A    
C11   C13   A    
C17   H41   S    
C53   C54   A    
C58   H31   S    
C20   H27   S    
C45   C50   A    
C55   C56   A    
C33   C35   A    
C19   N3    A    
C34   C36   A    
C67   H39   S    
C8    C18   A    
Cu2   O2    S    
C47   C48   A    
C40   C44   A    
C51   C52   A    
C8    C10   A    
C64   H36   S    
C6    C42   A    
C4    H12   S    
Cu1   N4    S    
C52   C53   A    
C2    O2    A    
C56   H26   S    
C27   H3    S    
C35   H8    S    
