data_mof_unit_2363.cif
_audit_creation_date              2013-03-05T16:01:16-0500
_audit_creation_method            fapswitch 2.2
_symmetry_space_group_name_H-M    P1
_symmetry_Int_Tables_number       1
_space_group_crystal_system       triclinic
_cell_length_a                    14.779741
_cell_length_b                    14.927457
_cell_length_c                    17.316131
_cell_angle_alpha                 107.662256
_cell_angle_beta                  73.549498
_cell_angle_gamma                 115.858931
_cell_volume                      3224.67475056

loop_
_atom_site_label
_atom_site_type_symbol
_atom_site_description
_atom_site_fract_x
_atom_site_fract_y
_atom_site_fract_z
_atom_type_partial_charge
O1    O     O_R   0.020090 0.662480 0.528530 -0.606279
O2    O     O_R   0.979910 0.337520 0.471470 -0.602185
O3    O     O_R   0.160710 0.620650 0.491980 -0.549656
O4    O     O_R   0.839290 0.379350 0.508020 -0.529071
C1    C     C_R   0.118890 0.687858 0.515458 0.811073
C2    C     C_R   0.881148 0.312317 0.488040 0.813048
O5    O     O_R   0.921540 0.523360 0.633990 -0.605545
O6    O     O_R   0.078460 0.476640 0.366010 -0.608365
O7    O     O_R   0.062170 0.481520 0.597440 -0.524960
O8    O     O_R   0.937830 0.518480 0.402560 -0.547553
C3    C     C_R   0.988072 0.501090 0.652111 0.803978
C4    C     C_R   0.010757 0.497144 0.347632 0.806853
Cu1   Cu    Cu3+1 0.916740 0.524770 0.521640 0.990105
Cu2   Cu    Cu3+1 0.083260 0.475230 0.478360 0.992568
C5    C     C_R   0.976547 0.493548 0.736670 -0.031034
C6    C     C_R   0.016596 0.496634 0.261927 -0.022745
C7    C     C_R   0.027021 0.443055 0.753792 -0.141722
C8    C     C_R   0.952998 0.530925 0.242369 -0.173994
C9    C     C_R   0.015693 0.434643 0.833863 -0.147836
C10   C     C_R   0.956927 0.529503 0.161115 -0.149761
C11   C     C_R   0.953986 0.477109 0.897874 0.181448
C12   C     C_R   0.023466 0.492150 0.098004 0.188861
C13   C     C_R   0.900319 0.524018 0.880562 -0.163660
C14   C     C_R   0.089024 0.460508 0.117563 -0.164716
C15   C     C_R   0.911868 0.532724 0.800306 -0.193472
C16   C     C_R   0.085496 0.462385 0.199134 -0.196299
C17   C     C_2   0.946471 0.475713 0.983502 -0.226273
C18   C     C_2   0.027492 0.487176 0.011397 -0.219570
H1    H     H_    0.074160 0.408830 0.705259 0.193721
H2    H     H_    0.900454 0.559449 0.289806 0.158766
H3    H     H_    0.135840 0.436160 0.212834 0.150071
H4    H     H_    0.871105 0.570876 0.788264 0.154517
H5    H     H_    0.099189 0.492572 0.969542 0.154183
H6    H     H_    0.874507 0.470499 0.024691 0.146585
H7    H     H_    0.851699 0.556231 0.929462 0.127880
H8    H     H_    0.141767 0.432844 0.069566 0.127788
H9    H     H_    0.908735 0.558956 0.148378 0.123654
H10   H     H_    0.054691 0.394478 0.845463 0.134253
C19   C     C_R   0.186596 0.795701 0.532969 -0.047666
C20   C     C_R   0.813994 0.204957 0.487195 -0.057052
C21   C     C_R   0.214223 0.972318 0.593882 -0.185133
C22   C     C_R   0.786947 0.026814 0.457379 -0.195673
C23   C     C_R   0.147748 0.871812 0.571886 -0.198329
C24   C     C_R   0.852764 0.127992 0.458344 -0.192703
C25   C     C_R   0.292193 0.821254 0.515733 -0.201894
C26   C     C_R   0.709611 0.179943 0.517448 -0.202467
C27   C     C_R   0.360522 0.921024 0.540619 0.082184
C28   C     C_R   0.641333 0.078532 0.516453 0.078667
C29   C     C_R   0.320040 0.997464 0.578548 0.151259
C30   C     C_R   0.681565 0.001361 0.484518 0.164942
C31   C     C_R   0.467867 0.947173 0.526714 0.068391
C32   C     C_R   0.533990 0.051536 0.542303 0.057909
C33   C     C_R   0.490457 0.125137 0.582687 -0.167071
C34   C     C_R   0.511239 0.872557 0.498549 -0.214147
C35   C     C_R   0.385443 0.098172 0.600826 -0.206999
C36   C     C_R   0.616205 0.899528 0.478827 -0.229658
H11   H     H_    0.355301 0.157004 0.631430 0.155313
H12   H     H_    0.646231 0.839941 0.456672 0.146303
H13   H     H_    0.683096 0.241112 0.539566 0.196748
H14   H     H_    0.319511 0.761865 0.481575 0.155549
H15   H     H_    0.933598 0.145750 0.435697 0.158852
H16   H     H_    0.066230 0.853615 0.586125 0.151055
H17   H     H_    0.182865 0.030367 0.623530 0.137705
H18   H     H_    0.818172 0.968168 0.433721 0.135190
H19   H     H_    0.535385 0.204377 0.603140 0.167889
H20   H     H_    0.466097 0.792220 0.492427 0.142754
N1    N     N_R   0.208390 0.438070 0.445820 -0.229329
N2    N     N_R   0.791610 0.561930 0.554180 -0.229595
C37   C     C_R   0.310320 0.358978 0.340334 -0.305700
C38   C     C_R   0.721085 0.686937 0.627894 -0.308159
C39   C     C_R   0.220126 0.375756 0.371504 -0.000836
C40   C     C_R   0.797340 0.649270 0.610694 -0.002008
C41   C     C_R   0.285048 0.486326 0.492451 0.459727
C42   C     C_R   0.710833 0.508744 0.511820 0.459923
C43   C     C_R   0.382489 0.478932 0.460016 -0.108989
C44   C     C_R   0.635868 0.549396 0.521491 -0.106488
C45   C     C_R   0.391541 0.410190 0.384047 0.119568
C46   C     C_R   0.640231 0.637357 0.583783 0.115599
C47   C     C_R   0.470455 0.535055 0.500141 0.083904
C48   C     C_R   0.555824 0.505386 0.473218 0.088227
C49   C     C_R   0.562622 0.440599 0.395135 -0.135392
C50   C     C_R   0.480967 0.625453 0.560479 -0.148489
C51   C     C_R   0.482378 0.394304 0.351451 -0.183757
C52   C     C_R   0.564526 0.676024 0.600735 -0.185906
H21   H     H_    0.491442 0.345080 0.291663 0.145621
H22   H     H_    0.569377 0.745700 0.646120 0.150882
H23   H     H_    0.861892 0.690223 0.642417 0.143259
H24   H     H_    0.159221 0.339350 0.335910 0.144253
H25   H     H_    0.317323 0.307687 0.281358 0.148050
H26   H     H_    0.726364 0.755757 0.674451 0.149029
H27   H     H_    0.632259 0.429903 0.363795 0.188972
H28   H     H_    0.429281 0.663094 0.573569 0.189606
N3    N     N_R   0.693549 0.405960 0.468236 0.105213
O9    O     O_R   0.608443 0.333160 0.490012 -0.406811
O10   O     O_R   0.751669 0.386811 0.398631 -0.379059
N4    N     N_R   0.261435 0.530083 0.577750 0.109351
O11   O     O_R   0.267101 0.491458 0.633394 -0.392572
O12   O     O_R   0.249999 0.616476 0.600016 -0.384670

loop_
_geom_bond_atom_site_label_1
_geom_bond_atom_site_label_2
_geom_bond_distance
_ccdc_geom_bond_type
C25   H14   1.075911 S    
N3    O9    1.301135 A    
C26   H13   1.071876 S    
C38   C46   1.400584 A    
C7    H1    1.082138 S    
C37   C45   1.400493 A    
C27   C29   1.417593 A    
O2    C2    1.305286 A    
C20   C26   1.397284 A    
C14   H8    1.083780 S    
C42   C44   1.429542 A    
O1    C1    1.307416 A    
C9    C11   1.402722 A    
C14   C16   1.390756 A    
C28   C32   1.424534 A    
C5    C15   1.403584 A    
C45   C51   1.394481 A    
N2    C42   1.381823 A    
C50   H28   1.072259 S    
C25   C27   1.403094 A    
O4    Cu1   1.937208 S    
C37   C39   1.390227 A    
C3    C5    1.458675 S    
C4    C6    1.459841 S    
N4    O12   1.300714 A    
Cu2   N1    2.039719 S    
N1    C41   1.381241 A    
C33   H19   1.076727 S    
C8    C10   1.385701 A    
O6    C4    1.304934 A    
C19   C25   1.398684 A    
C15   H4    1.083194 S    
C28   C30   1.418147 A    
C11   C17   1.461081 S    
C16   H3    1.083327 S    
N3    O10   1.300405 A    
C12   C18   1.464195 S    
Cu1   Cu2   2.715199 S    
C21   C23   1.393063 A    
C42   N3    1.433025 S    
C38   H26   1.083768 S    
C22   C24   1.392812 A    
C37   H25   1.083810 S    
C21   C29   1.403757 A    
C49   C51   1.390068 A    
C34   C36   1.387089 A    
C33   C35   1.387540 A    
C17   H6    1.085275 S    
C6    C16   1.403688 A    
C26   C28   1.404184 A    
C31   C32   1.421642 A    
C2    C20   1.469746 S    
O4    C2    1.308587 A    
C19   C23   1.399972 A    
C29   C35   1.390979 A    
C30   C36   1.391286 A    
C39   H24   1.081559 S    
O5    C3    1.303492 A    
O7    Cu2   1.975312 S    
C9    H10   1.082662 S    
C43   C45   1.415046 A    
C20   C24   1.400602 A    
N2    C40   1.356846 A    
N4    O11   1.301067 A    
C35   H11   1.084301 S    
O7    C3    1.305752 A    
O3    Cu2   1.937210 S    
O8    C4    1.304931 A    
C22   C30   1.403081 A    
C8    H2    1.083523 S    
C51   H21   1.084160 S    
C10   C12   1.404362 A    
C18   H5    1.086579 S    
C13   H7    1.083656 S    
C1    C19   1.468074 S    
C12   C14   1.399565 A    
O1    Cu1   1.946412 S    
C41   C43   1.429889 A    
C22   H18   1.083932 S    
C40   H23   1.081667 S    
C32   C33   1.416215 A    
C5    C7    1.401371 A    
O6    Cu2   1.973485 S    
C44   C48   1.441807 A    
C44   C46   1.413442 A    
C48   C49   1.409918 A    
O3    C1    1.305719 A    
O8    Cu1   1.975312 S    
C47   C50   1.410750 A    
C27   C31   1.424039 A    
C34   H20   1.076795 S    
C24   H15   1.082987 S    
C50   C52   1.391382 A    
C31   C34   1.416160 A    
C11   C13   1.398527 A    
C10   H9    1.081777 S    
C7    C9    1.386390 A    
C36   H12   1.084491 S    
N1    C39   1.356214 A    
C13   C15   1.390413 A    
O2    Cu2   1.946413 S    
C47   C48   1.426338 A    
C49   H27   1.074112 S    
C46   C52   1.394932 A    
O5    Cu1   1.973484 S    
C6    C8    1.401947 A    
C17   C18   1.339865 D    
C21   H17   1.083909 S    
C52   H22   1.084165 S    
C38   C40   1.391440 A    
C41   N4    1.432339 S    
C43   C47   1.443333 A    
C23   H16   1.083072 S    
Cu1   N2    2.039719 S    
