data_mof_unit_2839.cif
_audit_creation_date              2012-12-10T20:34:09-0500
_audit_creation_method            fapswitch 2.2
_symmetry_space_group_name_H-M    P1
_symmetry_Int_Tables_number       1
_space_group_crystal_system       triclinic
_cell_length_a                    9.853954
_cell_length_b                    10.731717
_cell_length_c                    13.626684
_cell_angle_alpha                 90.915751
_cell_angle_beta                  83.208813
_cell_angle_gamma                 89.920112
_cell_volume                      1430.71852781

loop_
_atom_site_label
_atom_site_type_symbol
_atom_type_description
_atom_site_fract_x
_atom_site_fract_y
_atom_site_fract_z
_atom_type_partial_charge
C1    C     C_R   0.499481 0.740073 0.501327 0.911419
C2    C     C_1   0.457351 0.492600 0.788865 -0.142835
C3    C     C_R   0.374595 0.937381 0.521551 0.028243
C4    C     C_R   0.497147 0.871663 0.514393 -0.145253
C5    C     C_R   0.617926 0.934259 0.527629 -0.218888
C6    C     C_R   0.619331 0.062601 0.535533 0.166611
C7    C     C_R   0.498881 0.129157 0.521596 -0.146349
C8    C     C_R   0.375459 0.064859 0.524018 0.004596
C9    C     C_3   0.258489 0.076346 0.463448 -0.583172
C10   C     C_3   0.257434 0.933651 0.460455 0.372924
C11   C     C_R   0.919787 0.583612 0.557829 -0.035926
C12   C     C_R   0.475761 0.499265 0.685624 0.921090
C13   C     C_R   0.937349 0.427786 0.433181 0.567884
C14   C     C_R   0.083740 0.429924 0.433202 -0.293568
C15   C     C_R   0.061208 0.580636 0.558882 0.098355
C16   C     C_3   0.052655 0.601557 0.667951 0.797955
C17   C     C_3   0.895775 0.605503 0.668117 -0.125814
C18   C     C_R   0.499885 0.260103 0.504891 0.894435
C19   C     C_R   0.524090 0.498506 0.314428 0.879215
C20   C     C_1   0.541493 0.498737 0.211077 -0.173966
C21   C     C_2   0.554639 0.504424 0.020133 0.060057
C22   C     C_2   0.439280 0.480761 0.980648 0.460907
C23   C     C_1   0.444829 0.486361 0.876290 -0.092388
C24   C     C_1   0.551778 0.500458 0.123619 0.052370
H1    H     H_    0.151035 0.375194 0.381051 0.169236
H2    H     H_    0.838659 0.529015 0.707861 0.170612
H3    H     H_    0.713319 0.884401 0.527180 0.220501
H4    H     H_    0.166496 0.116576 0.507922 0.200743
H5    H     H_    0.286623 0.123753 0.392185 0.191055
H6    H     H_    0.164395 0.895034 0.503426 0.153724
N1    N     N_R   0.857130 0.500860 0.500650 -0.130413
N2    N     N_R   0.142770 0.500820 0.500650 -0.138294
O1    O     O_R   0.385310 0.683210 0.499990 -0.575547
O2    O     O_R   0.614650 0.683240 0.500000 -0.616300
O3    O     O_R   0.368820 0.499950 0.640340 -0.587814
O4    O     O_R   0.598170 0.499990 0.640350 -0.600090
O5    O     O_R   0.385350 0.316760 0.500000 -0.634173
O6    O     O_R   0.614690 0.316790 0.500010 -0.562257
O7    O     O_R   0.401830 0.500010 0.359650 -0.610996
O8    O     O_R   0.631180 0.500050 0.359660 -0.563056
Zn1   Zn    Zn3+2 0.346870 0.499980 0.499990 0.982883
Zn2   Zn    Zn3+2 0.653130 0.500020 0.500010 1.022010
O9    O     O_3   0.326239 0.431751 0.038233 -0.649185
C25   C     C_3   0.204234 0.495027 0.023573 0.065442
H7    H     H_    0.118365 0.429368 0.041698 0.180943
H8    H     H_    0.198450 0.522645 0.945777 0.142031
C26   C     C_3   0.183636 0.608742 0.093155 -0.391114
H9    H     H_    0.202554 0.582107 0.168899 0.247038
H10   H     H_    0.258108 0.682043 0.066931 0.211148
C27   C     C_3   0.038999 0.661039 0.097413 -0.887997
H11   H     H_    0.015966 0.685241 0.022259 0.273246
H12   H     H_    0.029466 0.746431 0.144853 0.268932
H13   H     H_    0.963466 0.591505 0.129263 0.279750
O10   O     O_3   0.106092 0.504424 0.723456 -0.680599
C28   C     C_3   0.068138 0.380744 0.701921 0.048062
H14   H     H_    0.149093 0.337744 0.648277 0.191289
H15   H     H_    0.970307 0.372416 0.669895 0.133510
C29   C     C_3   0.058979 0.308371 0.798144 -0.345640
H16   H     H_    0.162914 0.299434 0.821481 0.224698
H17   H     H_    0.993704 0.360425 0.857204 0.249887
C30   C     C_3   0.998798 0.179244 0.786813 -0.879729
H18   H     H_    0.889407 0.186970 0.775565 0.300341
H19   H     H_    0.005700 0.126085 0.855283 0.264051
H20   H     H_    0.055606 0.128832 0.722891 0.266891
O11   O     O_3   0.111880 0.719360 0.684908 -0.647193
C31   C     C_3   0.138694 0.735313 0.783960 0.169748
H21   H     H_    0.224569 0.673813 0.798982 0.171019
H22   H     H_    0.046191 0.714667 0.836336 0.171438
C32   C     C_3   0.181539 0.869956 0.799335 -0.365054
H23   H     H_    0.272861 0.891460 0.746347 0.236884
H24   H     H_    0.096745 0.931782 0.784190 0.249563
C33   C     C_3   0.214698 0.894543 0.904463 -0.954776
H25   H     H_    0.122800 0.879526 0.958327 0.273069
H26   H     H_    0.248019 0.992711 0.911836 0.276907
H27   H     H_    0.298474 0.832085 0.921575 0.269675
I1    I     I_    0.801627 0.782627 0.707483 -0.324032
I2    I     I_    0.742778 0.557441 0.939600 -0.478390
I3    I     I_    0.810998 0.137885 0.564363 -0.452815
O12   O     O_3   0.285416 0.870760 0.367063 -0.615241
C34   C     C_3   0.386791 0.926136 0.299035 0.100366
H28   H     H_    0.465627 0.978192 0.334789 0.138102
H29   H     H_    0.336160 0.990781 0.251848 0.150160
C35   C     C_3   0.459513 0.823689 0.233643 -0.333563
H30   H     H_    0.516728 0.763124 0.279844 0.209741
H31   H     H_    0.382864 0.765786 0.200548 0.230013
C36   C     C_3   0.559251 0.877540 0.151043 -0.929181
H32   H     H_    0.503819 0.936189 0.102288 0.270564
H33   H     H_    0.611043 0.800332 0.105930 0.287890
H34   H     H_    0.638020 0.934655 0.182552 0.263715
O13   O     O_3   0.870446 0.360171 0.365050 -0.601644
C37   C     C_3   0.943372 0.255789 0.321279 0.078612
H35   H     H_    0.867326 0.181833 0.310886 0.183170
H36   H     H_    0.014286 0.213380 0.369237 0.136598
C38   C     C_3   0.014868 0.288683 0.219006 -0.387513
H37   H     H_    0.936561 0.312400 0.169846 0.234768
H38   H     H_    0.081147 0.371417 0.224427 0.232354
C39   C     C_3   0.101824 0.180235 0.173120 -0.905534
H39   H     H_    0.184768 0.159685 0.218962 0.255194
H40   H     H_    0.148714 0.205027 0.097877 0.280955
H41   H     H_    0.037982 0.095798 0.167330 0.261714

loop_
_geom_bond_atom_site_label_1
_geom_bond_atom_site_label_2
_ccdc_geom_bond_type
C8    C9    S    
C31   H22   S    
C28   H14   S    
N1    Zn2   S    
C13   O13   S    
C30   H20   S    
O4    Zn2   S    
C19   C20   S    
O2    Zn2   S    
C2    C12   S    
C39   H39   S    
C1    O1    A    
C7    C8    A    
C26   H10   S    
C17   H2    S    
C18   O5    A    
O6    Zn2   S    
C33   H27   S    
C5    C6    A    
C36   H33   S    
C6    I3    S    
C31   C32   S    
C29   H17   S    
C15   C16   S    
C30   H19   S    
C32   H24   S    
C5    H3    S    
C11   C15   A    
C20   C24   T    
C16   C17   S    
C17   I1    S    
C27   H12   S    
N2    Zn1   S    
C12   O4    A    
C9    C10   S    
C25   C26   S    
C9    H5    S    
C29   C30   S    
O8    Zn2   S    
C31   H21   S    
C11   N1    A    
C21   C22   D    
C32   H23   S    
C34   C35   S    
C39   H40   S    
C25   H8    S    
C1    O2    A    
C26   C27   S    
C27   H13   S    
C26   H9    S    
C15   N2    A    
C33   H26   S    
C3    C8    A    
C37   H35   S    
C36   H32   S    
C33   H25   S    
C38   C39   S    
C29   H16   S    
C32   C33   S    
O9    C25   S    
C37   H36   S    
C10   H6    S    
C35   H30   S    
C7    C18   S    
C27   H11   S    
C38   H37   S    
C12   O3    A    
C38   H38   S    
C19   O7    A    
C34   H29   S    
C35   H31   S    
C28   H15   S    
C28   C29   S    
C3    C4    A    
C39   H41   S    
C25   H7    S    
O10   C28   S    
C11   C17   S    
C13   N1    A    
C14   N2    A    
C34   H28   S    
C36   H34   S    
C10   O12   S    
C6    C7    A    
C1    C4    S    
O1    Zn1   S    
C18   O6    A    
C3    C10   S    
C37   C38   S    
O13   C37   S    
C14   H1    S    
O5    Zn1   S    
C30   H18   S    
O3    Zn1   S    
C16   O10   S    
C19   O8    A    
O12   C34   S    
C4    C5    A    
C35   C36   S    
O7    Zn1   S    
O11   C31   S    
C21   C24   S    
C21   I2    S    
C2    C23   T    
C22   C23   S    
C16   O11   S    
C13   C14   A    
C22   O9    S    
C9    H4    S    
