data_mof_unit_1672.cif
_audit_creation_date              2012-12-10T19:00:11-0500
_audit_creation_method            fapswitch 2.2
_symmetry_space_group_name_H-M    P1
_symmetry_Int_Tables_number       1
_space_group_crystal_system       triclinic
_cell_length_a                    9.54288
_cell_length_b                    10.856078
_cell_length_c                    13.428597
_cell_angle_alpha                 91.052119
_cell_angle_beta                  72.605465
_cell_angle_gamma                 90.970594
_cell_volume                      1327.23951708

loop_
_atom_site_label
_atom_site_type_symbol
_atom_type_description
_atom_site_fract_x
_atom_site_fract_y
_atom_site_fract_z
_atom_type_partial_charge
C1    C     C_R   0.499859 0.737519 0.503072 0.801336
C2    C     C_R   0.425056 0.486515 0.982720 -0.002882
C3    C     C_R   0.460984 0.456047 0.874492 0.048508
C4    C     C_R   0.533415 0.464558 0.034317 0.076518
C5    C     C_R   0.659067 0.393353 0.983603 0.170413
C6    C     C_R   0.678766 0.348048 0.882899 -0.247876
C7    C     C_R   0.581976 0.379356 0.828863 -0.192811
C8    C     C_R   0.525132 0.515379 0.132751 -0.267455
C9    C     C_R   0.743940 0.408663 0.136394 -0.189675
C10   C     C_R   0.372742 0.500301 0.815026 -0.099404
C11   C     C_R   0.366528 0.933071 0.529287 0.127298
C12   C     C_R   0.421308 0.497159 0.700177 0.793482
C13   C     C_R   0.496900 0.870211 0.515830 -0.099501
C14   C     C_R   0.622523 0.937691 0.518662 -0.218489
C15   C     C_R   0.620912 0.066294 0.518358 -0.218961
C16   C     C_R   0.494104 0.128610 0.514523 -0.099406
C17   C     C_R   0.364398 0.059889 0.529166 0.127789
C18   C     C_3   0.251762 0.058532 0.472198 -0.494216
C19   C     C_3   0.255163 0.919203 0.472321 -0.453598
C20   C     C_R   0.960599 0.454716 0.415921 0.267246
C21   C     C_R   0.894101 0.556788 0.577696 -0.083458
C22   C     C_R   0.042973 0.556831 0.577668 -0.088116
C23   C     C_R   0.498210 0.261993 0.502571 0.794389
C24   C     C_R   0.107994 0.453977 0.416370 0.273811
C25   C     C_3   0.125823 0.324526 0.377520 -0.517151
C26   C     C_3   0.969298 0.326658 0.373261 -0.498488
C27   C     C_R   0.578458 0.498900 0.299935 0.799253
C28   C     C_R   0.764073 0.367696 0.034359 -0.198577
C29   C     C_R   0.621827 0.479811 0.186807 -0.059166
C30   C     C_R   0.239933 0.557937 0.865381 -0.264679
C31   C     C_R   0.193580 0.571671 0.972778 -0.158370
C32   C     C_R   0.282459 0.536049 0.033028 0.268605
Cu1   Cu    Cu3+1 0.359330 0.500020 0.500010 0.934893
Cu2   Cu    Cu3+1 0.640670 0.499980 0.499990 0.932313
H1    H     H_    0.820315 0.380829 0.176984 0.148740
H2    H     H_    0.721092 0.115814 0.515862 0.156181
H3    H     H_    0.144769 0.093882 0.522178 0.192758
H4    H     H_    0.294214 0.097246 0.392531 0.203083
H5    H     H_    0.151177 0.876586 0.521260 0.195177
H6    H     H_    0.300612 0.877597 0.393076 0.199471
H7    H     H_    0.812685 0.601130 0.641496 0.149243
H8    H     H_    0.072802 0.601082 0.641371 0.136434
H9    H     H_    0.209409 0.312632 0.300491 0.190728
H10   H     H_    0.138533 0.264332 0.438979 0.214500
H11   H     H_    0.961652 0.323320 0.292353 0.193553
H12   H     H_    0.771520 0.290298 0.844645 0.143640
H13   H     H_    0.896197 0.260949 0.427766 0.210667
H14   H     H_    0.859329 0.312609 0.996234 0.137555
H15   H     H_    0.444055 0.582884 0.169690 0.176891
H16   H     H_    0.169938 0.591268 0.821574 0.161912
H17   H     H_    0.085087 0.607978 0.009903 0.163529
H18   H     H_    0.601603 0.339590 0.751637 0.169336
H19   H     H_    0.723832 0.891889 0.515292 0.164467
N1    N     N_R   0.852320 0.499070 0.499340 -0.189657
N2    N     N_R   0.148230 0.499110 0.499340 -0.188235
O1    O     O_R   0.381190 0.680360 0.500000 -0.582184
O2    O     O_R   0.618780 0.680320 0.499990 -0.583566
O3    O     O_R   0.323230 0.500000 0.650990 -0.583323
O4    O     O_R   0.560820 0.499960 0.650980 -0.589316
O5    O     O_R   0.381220 0.319680 0.500010 -0.574251
O6    O     O_R   0.618810 0.319640 0.500000 -0.591463
O7    O     O_R   0.439180 0.500040 0.349020 -0.581446
O8    O     O_R   0.676770 0.500000 0.349010 -0.580442
N3    N     N_2   0.214849 0.530067 0.142755 -0.452510
H20   H     H_    0.244160 0.461230 0.183750 0.253308
C33   C     C_3   0.149888 0.640290 0.199214 -0.719867
H21   H     H_    0.200215 0.661643 0.262248 0.222072
H22   H     H_    0.030286 0.624418 0.234895 0.239760
H23   H     H_    0.166809 0.721377 0.147402 0.229682

loop_
_geom_bond_atom_site_label_1
_geom_bond_atom_site_label_2
_ccdc_geom_bond_type
C17   C18   S    
Cu1   N2    S    
Cu2   O2    S    
C2    C4    A    
Cu2   N1    S    
C6    C7    A    
C27   O7    A    
C1    O2    A    
Cu1   O5    S    
C5    C28   A    
C27   C29   S    
C10   C30   A    
C33   H22   S    
C31   C32   A    
C9    C29   A    
C30   C31   A    
C4    C8    A    
C12   O3    A    
N3    H20   S    
C25   H9    S    
Cu1   O1    S    
C2    C3    A    
C30   H16   S    
C22   N2    A    
C3    C10   A    
C22   H8    S    
C13   C14   A    
C24   N2    A    
C23   O5    A    
C11   C13   A    
C11   C19   S    
Cu1   O3    S    
C27   O8    A    
C26   H13   S    
C21   H7    S    
C5    C6    A    
C19   H5    S    
C25   H10   S    
C2    C32   A    
Cu2   O8    S    
C18   H3    S    
C7    H18   S    
Cu1   Cu2   S    
C16   C23   S    
C3    C7    A    
C18   H4    S    
C21   N1    A    
C10   C12   S    
Cu2   O4    S    
C33   H23   S    
C1    C13   S    
C19   H6    S    
C8    C29   A    
C15   C16   A    
C16   C17   A    
C15   H2    S    
C23   O6    A    
C14   H19   S    
C33   H21   S    
C24   C25   S    
C32   N3    S    
C20   N1    A    
C18   C19   S    
C9    H1    S    
C14   C15   A    
C11   C17   A    
C6    H12   S    
C26   H11   S    
C25   C26   S    
C21   C22   A    
C12   O4    A    
Cu1   O7    S    
C8    H15   S    
C1    O1    A    
Cu2   O6    S    
C28   H14   S    
C20   C24   A    
C9    C28   A    
C31   H17   S    
C4    C5    A    
C20   C26   S    
N3    C33   S    
