data_mof_unit_2542.cif
_audit_creation_date              2012-12-10T19:44:25-0500
_audit_creation_method            fapswitch 2.2
_symmetry_space_group_name_H-M    P1
_symmetry_Int_Tables_number       1
_space_group_crystal_system       triclinic
_cell_length_a                    10.886936
_cell_length_b                    12.358748
_cell_length_c                    13.170044
_cell_angle_alpha                 116.13365
_cell_angle_beta                  75.635637
_cell_angle_gamma                 101.121738
_cell_volume                      1533.98617114

loop_
_atom_site_label
_atom_site_type_symbol
_atom_type_description
_atom_site_fract_x
_atom_site_fract_y
_atom_site_fract_z
_atom_type_partial_charge
C1    C     C_R   0.521485 0.855095 0.285001 0.819608
C2    C     C_R   0.619807 0.901226 0.842841 -0.087866
C3    C     C_R   0.032398 0.002277 0.600242 0.417070
C4    C     C_R   0.127321 0.008070 0.506718 -0.219096
C5    C     C_R   0.092228 0.024110 0.418126 -0.003132
C6    C     C_R   0.964461 0.026367 0.420563 -0.153124
C7    C     C_R   0.870184 0.002220 0.503378 -0.154207
C8    C     C_R   0.903558 0.986757 0.592195 -0.135115
C9    C     C_R   0.216646 0.149677 0.312422 0.490977
C10   C     C_R   0.317859 0.161696 0.226516 -0.248030
C11   C     C_R   0.379699 0.061259 0.144485 -0.122934
C12   C     C_R   0.737356 0.999366 0.499168 0.815818
C13   C     C_R   0.344988 0.948659 0.149154 -0.105302
C14   C     C_R   0.250264 0.936854 0.237923 -0.220771
C15   C     C_R   0.187145 0.037305 0.321093 0.054669
C16   C     C_R   0.322969 0.291917 0.022120 -0.209950
C17   C     C_R   0.462705 0.230372 0.836277 -0.066310
C18   C     C_R   0.647592 0.805419 0.080930 0.444840
C19   C     C_R   0.683982 0.719476 0.969726 -0.197836
C20   C     C_R   0.629295 0.601596 0.934334 -0.282909
C21   C     C_R   0.531261 0.564845 0.008295 0.096887
C22   C     C_R   0.484261 0.653848 0.118955 0.020927
C23   C     C_R   0.484554 0.145195 0.713917 0.839335
C24   C     C_R   0.477995 0.442248 0.975458 0.113493
C25   C     C_R   0.375288 0.411931 0.051718 0.168958
C26   C     C_R   0.322260 0.502011 0.154444 -0.225452
C27   C     C_R   0.373640 0.621325 0.186150 -0.161397
C28   C     C_R   0.521574 0.348605 0.868273 -0.241561
C29   C     C_R   0.367442 0.202683 0.915770 -0.154967
C30   C     C_R   0.548066 0.773167 0.159498 -0.255196
C31   C     C_R   0.717841 0.353429 0.336594 -0.308729
C32   C     C_R   0.321043 0.750214 0.643706 0.517950
C33   C     C_R   0.264509 0.637410 0.646490 0.276932
C34   C     C_R   0.262020 0.002225 0.502413 0.878501
C35   C     C_R   0.331166 0.536781 0.584955 -0.326702
C36   C     C_R   0.450605 0.543036 0.517517 -0.087218
C37   C     C_R   0.493463 0.651634 0.499329 0.177989
C38   C     C_R   0.526130 0.442496 0.464563 0.021979
C39   C     C_R   0.639981 0.448485 0.387021 0.157664
C40   C     C_R   0.676147 0.549976 0.361829 -0.273038
C41   C     C_R   0.604727 0.649354 0.416839 -0.128610
C42   C     C_R   0.495370 0.337043 0.488095 0.022354
C43   C     C_R   0.684844 0.254985 0.366111 0.150675
C44   C     C_R   0.644850 0.020600 0.853093 -0.100899
C45   C     C_R   0.735532 0.048588 0.770409 -0.058728
C46   C     C_R   0.804229 0.957577 0.678565 0.179503
C47   C     C_R   0.777622 0.837558 0.667601 -0.032498
C48   C     C_R   0.684753 0.809474 0.749155 -0.123330
Cu1   Cu    Cu3+1 0.529370 0.098270 0.475420 1.020073
Cu2   Cu    Cu3+1 0.470630 0.901730 0.524580 0.997512
H1    H     H_    0.549434 0.879545 0.906891 0.113064
H2    H     H_    0.454257 0.070803 0.076962 0.160936
H3    H     H_    0.391938 0.870655 0.084197 0.137968
H4    H     H_    0.226364 0.849639 0.242356 0.131803
H5    H     H_    0.319884 0.114423 0.891777 0.191545
H6    H     H_    0.239477 0.480473 0.210238 0.136751
H7    H     H_    0.243468 0.267608 0.078641 0.115023
H8    H     H_    0.597893 0.364759 0.805381 0.141148
H9    H     H_    0.666547 0.542077 0.847535 0.158999
H10   H     H_    0.759916 0.741997 0.909533 0.236551
H11   H     H_    0.593912 0.091758 0.924497 0.125695
H12   H     H_    0.323736 0.687692 0.263489 0.158628
H13   H     H_    0.748941 0.185715 0.331773 0.188901
H14   H     H_    0.762351 0.553785 0.300508 0.156814
H15   H     H_    0.805219 0.356255 0.276315 0.143000
H16   H     H_    0.412263 0.326606 0.548591 0.148046
H17   H     H_    0.287009 0.453559 0.591013 0.240631
H18   H     H_    0.640237 0.722386 0.391799 0.200991
H19   H     H_    0.753590 0.141141 0.778641 0.130194
H20   H     H_    0.828629 0.766132 0.595938 0.129880
H21   H     H_    0.663762 0.716759 0.740079 0.127002
H22   H     H_    0.938640 0.041997 0.354489 0.194063
H23   H     H_    0.348924 0.248864 0.223176 0.150082
N1    N     N_R   0.573890 0.246290 0.438210 -0.196560
N2    N     N_R   0.426890 0.754320 0.561170 -0.268725
O1    O     O_R   0.536940 0.972510 0.318130 -0.492731
O2    O     O_R   0.487330 0.806530 0.359650 -0.619418
O3    O     O_R   0.705160 0.082990 0.479250 -0.577021
O4    O     O_R   0.655550 0.917010 0.520760 -0.618995
O5    O     O_R   0.512670 0.193470 0.640350 -0.592949
O6    O     O_R   0.463060 0.027490 0.681870 -0.536687
O7    O     O_R   0.344450 0.082990 0.479240 -0.576536
O8    O     O_R   0.294840 0.917010 0.520750 -0.530982
S1    S     S_3+6 0.737929 0.947814 0.116635 -0.044816
O9    O     O_2   0.652791 0.043681 0.146395 -0.330363
O10   O     O_2   0.796621 0.973415 0.217467 -0.373162
O11   O     O_3   0.854720 0.949304 0.006193 -0.517537
H24   H     H_    0.897771 0.032635 0.034046 0.362525
O12   O     O_3   0.270615 0.856002 0.725282 -0.477554
C49   C     C_3   0.291010 0.877605 0.835791 0.106180
H25   H     H_    0.375295 0.943568 0.855677 0.105082
H26   H     H_    0.314075 0.797533 0.842980 0.119788
C50   C     C_3   0.174261 0.926713 0.928723 -0.582474
H27   H     H_    0.149425 0.010897 0.932037 0.230208
H28   H     H_    0.089433 0.860647 0.913221 0.329126
H29   H     H_    0.191957 0.945564 0.014280 0.171321
S2    S     S_3+6 0.112583 0.616724 0.728579 -0.014890
O13   O     O_2   0.125000 0.647918 0.849718 -0.310929
O14   O     O_2   0.021834 0.694210 0.728878 -0.262021
O15   O     O_3   0.052956 0.470927 0.672627 -0.529291
H30   H     H_    0.966911 0.468302 0.719772 0.372137
S3    S     S_3+6 0.068295 0.037601 0.736098 0.007402
O16   O     O_2   0.028113 0.928603 0.762860 -0.232182
O17   O     O_2   0.206786 0.075434 0.738200 -0.311016
O18   O     O_3   0.986379 0.152585 0.837630 -0.542842
H31   H     H_    0.004925 0.162535 0.911361 0.357147
O19   O     O_3   0.153379 0.248781 0.393425 -0.560270
C51   C     C_3   0.087074 0.287970 0.337758 0.015741
H32   H     H_    0.014564 0.215300 0.295767 0.141811
H33   H     H_    0.152798 0.315688 0.272429 0.119264
C52   C     C_3   0.019869 0.398334 0.425181 -0.665795
H34   H     H_    0.090198 0.470875 0.469901 0.282863
H35   H     H_    0.974472 0.433748 0.380852 0.166521
H36   H     H_    0.945456 0.373848 0.488346 0.262111

loop_
_geom_bond_atom_site_label_1
_geom_bond_atom_site_label_2
_ccdc_geom_bond_type
O11   H24   S    
C50   H27   S    
C17   C29   A    
C35   C36   A    
S1    O11   S    
Cu2   O4    S    
C32   N2    A    
S2    O13   D    
C43   H13   S    
C7    C8    A    
C45   C46   A    
C51   H32   S    
C6    H22   S    
C26   C27   A    
C17   C23   S    
C31   C43   A    
C36   C37   A    
S1    O10   D    
C38   C42   A    
C5    C6    A    
C10   H23   S    
C12   O4    A    
C1    O2    A    
Cu1   O3    S    
S3    O18   S    
C18   C19   A    
O15   H30   S    
C11   H2    S    
C32   O12   S    
C2    C44   A    
C12   O3    A    
C18   S1    S    
O19   C51   S    
C18   C30   A    
C23   O5    A    
C23   O6    A    
C9    C10   A    
C43   N1    A    
C37   N2    A    
C50   H28   S    
C21   C22   A    
C37   C41   A    
C1    O1    A    
S2    O14   D    
Cu2   O8    S    
C41   H18   S    
C13   H3    S    
C7    C12   S    
C4    C34   S    
C42   N1    A    
C45   H19   S    
C24   C25   A    
C3    C8    A    
C2    H1    S    
C39   C40   A    
C29   H5    S    
C2    C48   A    
C25   C26   A    
Cu1   O7    S    
C47   H20   S    
C27   H12   S    
C49   H26   S    
C47   C48   A    
C35   H17   S    
Cu1   O1    S    
C52   H35   S    
S1    O9    D    
C20   H9    S    
S3    O17   D    
C3    S3    S    
C40   C41   A    
C14   H4    S    
C50   H29   S    
C22   C27   A    
C44   H11   S    
C34   O8    A    
C48   H21   S    
C3    C4    A    
Cu2   O2    S    
S2    O15   S    
C44   C45   A    
C49   C50   S    
C16   C25   A    
C31   H15   S    
C46   C47   A    
C22   C30   A    
C52   H34   S    
Cu1   N1    S    
C17   C28   A    
C24   C28   A    
C4    C5    A    
C26   H6    S    
C51   C52   S    
C6    C7    A    
C28   H8    S    
C19   H10   S    
C9    O19   S    
O18   H31   S    
C40   H14   S    
Cu1   O5    S    
C32   C33   A    
C19   C20   A    
C36   C38   A    
C16   C29   A    
Cu2   N2    S    
C11   C13   A    
C49   H25   S    
C38   C39   A    
C51   H33   S    
C1    C30   S    
C33   C35   A    
C31   C39   A    
C52   H36   S    
C33   S2    S    
C16   H7    S    
C9    C15   A    
S3    O16   D    
C8    C46   S    
C5    C15   S    
C10   C11   A    
C20   C21   A    
Cu1   Cu2   S    
C21   C24   A    
C42   H16   S    
C14   C15   A    
C34   O7    A    
O12   C49   S    
C13   C14   A    
Cu2   O6    S    
