data_mof_unit_4363.cif
_audit_creation_date              2012-10-26T20:32:55-0400
_audit_creation_method            fapswitch 2.2
_symmetry_space_group_name_H-M    P1
_symmetry_Int_Tables_number       1
_space_group_crystal_system       triclinic
_cell_length_a                    27.722846
_cell_length_b                    10.89786
_cell_length_c                    9.612968
_cell_angle_alpha                 90.48506
_cell_angle_beta                  91.188118
_cell_angle_gamma                 91.487883
_cell_volume                      2902.54575657

loop_
_atom_site_label
_atom_site_type_symbol
_atom_type_description
_atom_site_fract_x
_atom_site_fract_y
_atom_site_fract_z
_atom_type_partial_charge
Br1   Br    Br    0.358892 0.273031 0.661257 -0.570921
Br2   Br    Br    0.629709 0.655532 0.163979 -0.492910
C1    C     C_R   0.498929 0.262989 0.499537 0.555718
C2    C     C_R   0.976396 0.516974 0.633426 0.019357
C3    C     C_R   0.974130 0.547982 0.379035 0.028835
C4    C     C_R   0.407736 0.498425 0.498810 0.581012
C5    C     C_R   0.949900 0.530251 0.506497 0.019459
C6    C     C_R   0.950897 0.491294 0.755972 -0.145075
C7    C     C_R   0.900807 0.481354 0.754140 -0.113378
C8    C     C_R   0.874354 0.499506 0.630858 0.030464
C9    C     C_R   0.898828 0.526544 0.507458 -0.033047
C10   C     C_R   0.872157 0.549877 0.385220 0.008658
C11   C     C_R   0.821475 0.544709 0.388013 0.401311
C12   C     C_R   0.278053 0.409032 0.565537 -0.017641
C13   C     C_R   0.823739 0.490820 0.627988 0.396895
C14   C     C_R   0.720452 0.430788 0.413630 -0.040260
C15   C     C_R   0.670109 0.428307 0.410988 -0.112106
C16   C     C_R   0.500544 0.737280 0.500010 0.554823
C17   C     C_R   0.670719 0.576264 0.600892 -0.127700
C18   C     C_R   0.721007 0.581025 0.601262 -0.043737
C19   C     C_R   0.746279 0.508061 0.507940 0.228735
C20   C     C_R   0.027447 0.527746 0.633089 0.018763
C21   C     C_R   0.051196 0.524868 0.504229 0.029295
C22   C     C_R   0.024330 0.525242 0.377293 0.013766
C23   C     C_R   0.254016 0.502504 0.495304 0.201792
C24   C     C_R   0.055726 0.538453 0.756843 -0.142949
C25   C     C_R   0.098043 0.484416 0.252617 -0.118510
C26   C     C_R   0.946941 0.591040 0.261592 -0.001752
C27   C     C_R   0.896350 0.584798 0.265002 -0.106406
C28   C     C_R   0.592302 0.499665 0.501374 0.556900
C29   C     C_R   0.048071 0.493638 0.254472 -0.146591
C30   C     C_R   0.507910 0.064249 0.617129 0.047872
C31   C     C_R   0.497913 0.130439 0.498205 0.012878
C32   C     C_R   0.488179 0.063071 0.374801 -0.154500
C33   C     C_R   0.489349 0.934016 0.374053 -0.146770
C34   C     C_R   0.102147 0.518162 0.502126 -0.028695
C35   C     C_R   0.500659 0.870257 0.497533 0.012376
C36   C     C_R   0.510783 0.940670 0.615582 -0.011070
C37   C     C_3   0.523620 0.933777 0.765897 -0.236762
C38   C     C_3   0.518669 0.074830 0.770055 0.039492
C39   C     C_R   0.540246 0.536882 0.076383 0.189381
C40   C     C_R   0.179991 0.523146 0.622025 0.401188
C41   C     C_R   0.462734 0.446289 0.068412 0.093001
C42   C     C_R   0.462584 0.451071 0.920818 -0.005572
C43   C     C_R   0.540430 0.534753 0.929481 0.120792
C44   C     C_3   0.565854 0.655792 0.924493 -0.243200
C45   C     C_R   0.129499 0.527090 0.626913 0.026690
C46   C     C_3   0.565176 0.659924 0.082253 0.021386
C47   C     C_R   0.176163 0.494604 0.375474 0.402065
C48   C     C_R   0.280671 0.592270 0.424338 -0.064433
C49   C     C_R   0.330888 0.589283 0.424573 -0.185825
C50   C     C_R   0.328377 0.405933 0.566992 0.126656
C51   C     C_3   0.968766 0.664708 0.142680 -0.272287
C52   C     C_3   0.997762 0.777371 0.195897 -0.413268
C53   C     C_3   0.473753 0.113221 0.850483 -0.248938
C54   C     C_3   0.480003 0.094849 0.006717 -0.468500
C55   C     C_3   0.565612 0.148875 0.811338 -0.244742
C56   C     C_R   0.105903 0.539590 0.753410 -0.110110
C57   C     C_3   0.606693 0.140717 0.707553 -0.415934
C58   C     C_3   0.420993 0.373962 0.128193 -0.249688
C59   C     C_3   0.374599 0.446928 0.123331 -0.392943
C60   C     C_R   0.125643 0.500620 0.375341 0.025785
C61   C     C_R   0.355018 0.496991 0.496441 0.016749
C62   C     C_R   0.645061 0.500867 0.504856 0.025841
Cu1   Cu    Cu3+1 0.500000 0.499980 0.640670 0.946302
Cu2   Cu    Cu3+1 0.500000 0.500020 0.359330 0.953989
H1    H     H_    0.262441 0.665127 0.370316 0.151632
H2    H     H_    0.257481 0.338700 0.618980 0.168518
H3    H     H_    0.561159 0.903186 0.782677 0.124795
H4    H     H_    0.432289 0.412462 0.861230 0.167372
H5    H     H_    0.602322 0.649375 0.879803 0.162108
H6    H     H_    0.542439 0.723405 0.875900 0.116714
H7    H     H_    0.542289 0.733166 0.124565 0.132704
H8    H     H_    0.126104 0.548271 0.850850 0.168718
H9    H     H_    0.650705 0.369138 0.336673 0.135807
H10   H     H_    0.739415 0.373161 0.341806 0.148029
H11   H     H_    0.882880 0.459974 0.850386 0.166833
H12   H     H_    0.114832 0.462534 0.155023 0.163902
H13   H     H_    0.968922 0.473503 0.853982 0.102483
H14   H     H_    0.039938 0.549243 0.857704 0.099021
H15   H     H_    0.351017 0.660315 0.370827 0.121649
H16   H     H_    0.975189 0.834284 0.263926 0.163836
H17   H     H_    0.030529 0.750451 0.254975 0.168402
H18   H     H_    0.009376 0.833742 0.106290 0.144581
H19   H     H_    0.990596 0.609566 0.072456 0.124675
H20   H     H_    0.939775 0.699537 0.072963 0.144067
H21   H     H_    0.495790 0.004670 0.030569 0.150363
H22   H     H_    0.503774 0.169103 0.052118 0.151423
H23   H     H_    0.651845 0.633920 0.672841 0.118465
H24   H     H_    0.444194 0.097173 0.055781 0.139827
H25   H     H_    0.466156 0.210701 0.830498 0.185137
H26   H     H_    0.441445 0.058528 0.813446 0.178206
H27   H     H_    0.616332 0.043974 0.688418 0.154386
H28   H     H_    0.596454 0.183909 0.607420 0.153611
H29   H     H_    0.639097 0.191009 0.750482 0.155876
H30   H     H_    0.557128 0.247320 0.824709 0.176908
H31   H     H_    0.578981 0.116065 0.913901 0.149096
H32   H     H_    0.381049 0.541628 0.163980 0.172506
H33   H     H_    0.360722 0.453051 0.014432 0.168572
H34   H     H_    0.875612 0.612481 0.174296 0.164696
H35   H     H_    0.346628 0.400001 0.186269 0.169950
H36   H     H_    0.414101 0.290047 0.064024 0.113699
H37   H     H_    0.429062 0.337432 0.232096 0.206560
H38   H     H_    0.740356 0.642234 0.673452 0.151880
H39   H     H_    0.028168 0.467427 0.161114 0.112649
H40   H     H_    0.478976 0.110168 0.280487 0.128294
H41   H     H_    0.480907 0.884964 0.277795 0.129688
H42   H     H_    0.495392 0.881863 0.823184 0.131827
N1    N     N_R   0.202290 0.507070 0.497541 -0.398289
N2    N     N_R   0.798239 0.513828 0.507769 -0.398070
N3    N     N_R   0.500300 0.500930 0.147930 -0.244333
N4    N     N_R   0.500310 0.500890 0.852020 -0.261493
O1    O     O_R   0.500000 0.319640 0.618810 -0.502390
O2    O     O_R   0.569730 0.499960 0.618810 -0.512671
O3    O     O_R   0.569740 0.500000 0.381220 -0.457233
O4    O     O_2   0.206623 0.536037 0.740630 -0.482648
O5    O     O_2   0.800235 0.458514 0.744217 -0.492425
O6    O     O_2   0.198973 0.475498 0.254828 -0.487889
O7    O     O_2   0.795632 0.571959 0.272314 -0.470898
O8    O     O_R   0.500010 0.319680 0.381230 -0.528891
O9    O     O_R   0.430260 0.500000 0.618780 -0.472492
O10   O     O_R   0.430270 0.500040 0.381190 -0.522937
O11   O     O_R   0.499990 0.680320 0.618770 -0.503799
O12   O     O_R   0.500000 0.680360 0.381190 -0.505014

loop_
_geom_bond_atom_site_label_1
_geom_bond_atom_site_label_2
_ccdc_geom_bond_type
C53   C54   S    
C14   C19   A    
C28   C62   S    
C10   C27   A    
Cu1   O2    S    
C59   H32   S    
C2    C6    A    
C25   H12   S    
C52   H18   S    
C19   N2    S    
C43   N4    A    
C43   C44   S    
C5    C9    A    
C11   N2    A    
C41   N3    A    
C26   C27   A    
C33   C35   A    
C40   N1    A    
C8    C13   A    
C15   C62   A    
C28   O2    A    
C36   C37   S    
C58   H36   S    
C54   H22   S    
C1    C31   S    
C34   C45   A    
C32   C33   A    
C23   C48   A    
C53   H25   S    
C12   C50   A    
C17   C18   A    
C14   C15   A    
C55   H30   S    
C6    H13   S    
C21   C22   A    
Cu2   O10   S    
C42   H4    S    
C51   H20   S    
C47   C60   A    
C57   H28   S    
C30   C36   A    
Cu2   N3    S    
C58   H37   S    
C7    C8    A    
C49   H15   S    
C44   H6    S    
C23   N1    S    
C16   O11   A    
C54   H24   S    
Cu2   O8    S    
C29   H39   S    
C13   N2    A    
C59   H33   S    
C57   H29   S    
C2    C5    A    
C34   C60   A    
C52   H17   S    
C11   O7    S    
C48   C49   A    
C28   O3    A    
C37   H42   S    
C44   C46   S    
Cu2   O3    S    
C25   C29   A    
C32   H40   S    
C33   H41   S    
C49   C61   A    
C1    O1    A    
C37   C38   S    
C3    C5    A    
C6    C7    A    
C54   H21   S    
Br2   C46   S    
C51   C52   S    
C24   H14   S    
C13   O5    S    
C58   C59   S    
C4    C61   S    
C59   H35   S    
C41   C42   A    
Cu1   N4    S    
C35   C36   A    
C17   H23   S    
C25   C60   A    
C3    C26   A    
C2    C20   A    
C47   O6    S    
C17   C62   A    
C9    C10   A    
C38   C53   S    
C55   H31   S    
C31   C32   A    
C37   H3    S    
C7    H11   S    
C18   C19   A    
C24   C56   A    
C44   H5    S    
C41   C58   S    
C42   N4    A    
C40   O4    S    
C53   H26   S    
Cu1   Cu2   S    
Cu1   O9    S    
C8    C9    A    
C39   N3    A    
Cu2   O12   S    
C4    O10   A    
C52   H16   S    
C30   C38   S    
C56   H8    S    
C47   N1    A    
C48   H1    S    
C39   C43   A    
C38   C55   S    
C27   H34   S    
C14   H10   S    
Cu1   O1    S    
C46   H7    S    
C16   C35   S    
C50   C61   A    
C26   C51   S    
C18   H38   S    
C30   C31   A    
C22   C29   A    
C45   C56   A    
C3    C22   A    
C39   C46   S    
C40   C45   A    
Cu1   O11   S    
C12   C23   A    
Br1   C50   S    
C55   C57   S    
C1    O8    A    
C10   C11   A    
C21   C34   A    
C20   C24   A    
C15   H9    S    
C12   H2    S    
C20   C21   A    
C51   H19   S    
C57   H27   S    
C4    O9    A    
C16   O12   A    
