data_mof_unit_1558.cif
_audit_creation_date              2012-12-11T16:57:09-0500
_audit_creation_method            fapswitch 2.2
_symmetry_space_group_name_H-M    P1
_symmetry_Int_Tables_number       1
_space_group_crystal_system       triclinic
_cell_length_a                    14.493524
_cell_length_b                    16.168867
_cell_length_c                    6.970403
_cell_angle_alpha                 89.908308
_cell_angle_beta                  98.698397
_cell_angle_gamma                 89.953216
_cell_volume                      1614.68017271

loop_
_atom_site_label
_atom_site_type_symbol
_atom_type_description
_atom_site_fract_x
_atom_site_fract_y
_atom_site_fract_z
_atom_type_partial_charge
O1    O     O_R   0.584990 0.413650 0.534420 -0.531781
O2    O     O_R   0.584990 0.586350 0.534420 -0.550226
O3    O     O_R   0.596190 0.585230 0.208380 -0.535370
O4    O     O_R   0.596190 0.414770 0.208380 -0.553271
O5    O     O_R   0.415010 0.586420 0.976930 -0.536753
O6    O     O_R   0.415010 0.413580 0.976930 -0.540059
C1    C     C_R   0.618672 0.614261 0.383922 0.697459
C2    C     C_R   0.618554 0.385583 0.384182 0.701283
O7    O     O_3   0.440560 0.500000 0.319140 -0.367224
V1    V     V_3+5 0.511030 0.500000 0.068070 1.381014
O8    O     O_R   0.403810 0.414840 0.643540 -0.539992
O9    O     O_R   0.403810 0.585160 0.643540 -0.543202
C3    C     C_R   0.381466 0.386221 0.806006 0.763901
C4    C     C_R   0.381473 0.613840 0.805848 0.751840
V2    V     V_3+5 0.488970 0.500000 0.560620 1.391058
O10   O     O_3   0.559440 0.500000 0.859420 -0.391875
H1    H     H_    0.187121 0.805317 0.806646 0.155139
H2    H     H_    0.186613 0.195382 0.806439 0.155676
H3    H     H_    0.318182 0.692735 0.100888 0.156588
H4    H     H_    0.317434 0.307520 0.101007 0.156000
C5    C     C_2   0.311998 0.681582 0.796451 -0.330280
C6    C     C_2   0.311841 0.318717 0.796697 -0.332027
C7    C     C_2   0.287221 0.715226 0.958586 -0.118797
C8    C     C_2   0.286686 0.285136 0.958685 -0.127730
H5    H     H_    0.225323 0.795181 0.253058 0.127391
H6    H     H_    0.224919 0.204702 0.252765 0.126384
C9    C     C_2   0.194166 0.817720 0.110948 -0.338904
C10   C     C_2   0.193805 0.182376 0.110654 -0.334238
C11   C     C_2   0.218365 0.783250 0.949146 -0.123932
C12   C     C_2   0.217849 0.217190 0.948957 -0.123705
H7    H     H_    0.281075 0.704662 0.654672 0.124374
H8    H     H_    0.281117 0.295726 0.654922 0.124983
C13   C     C_R   0.691791 0.734591 0.579808 0.080523
C14   C     C_R   0.755548 0.313585 0.584935 0.023546
C15   C     C_R   0.684895 0.685241 0.413553 -0.154040
C16   C     C_R   0.689803 0.318401 0.415488 -0.077486
C17   C     C_R   0.744927 0.704794 0.279012 -0.106040
C18   C     C_R   0.694230 0.256601 0.274849 -0.168166
H9    H     H_    0.746283 0.665320 0.155229 0.141610
H10   H     H_    0.642746 0.255582 0.146251 0.165863
C19   C     C_R   0.808622 0.771486 0.311311 -0.187784
C20   C     C_R   0.759568 0.191213 0.306602 -0.176183
H11   H     H_    0.856434 0.783731 0.211419 0.117084
H12   H     H_    0.758496 0.143648 0.197192 0.134716
C21   C     C_R   0.818127 0.817953 0.482611 -0.101113
C22   C     C_R   0.821188 0.184313 0.482961 -0.123804
C23   C     C_R   0.760844 0.795479 0.617583 0.072049
C24   C     C_R   0.819758 0.248535 0.617322 0.051379
C25   C     C_3   0.786995 0.766682 0.822286 -0.056721
C26   C     C_3   0.811926 0.244608 0.828757 -0.034001
C27   C     C_3   0.705811 0.706071 0.785011 0.141409
C28   C     C_3   0.741116 0.315093 0.792612 0.170704
H13   H     H_    0.775348 0.817207 0.923578 0.151493
H14   H     H_    0.780374 0.185382 0.867947 0.144636
H15   H     H_    0.724352 0.639443 0.806285 0.091692
H16   H     H_    0.762540 0.374352 0.868034 0.073930
O11   O     O_R   0.921430 0.915960 0.371040 -0.537678
O12   O     O_R   0.921430 0.084040 0.371040 -0.538485
O13   O     O_R   0.910450 0.087500 0.697310 -0.545616
O14   O     O_R   0.910450 0.912500 0.697310 -0.545896
O15   O     O_R   0.091710 0.087460 0.928430 -0.540009
O16   O     O_R   0.091710 0.912540 0.928430 -0.540802
C29   C     C_R   0.888072 0.114202 0.519639 0.703077
C30   C     C_R   0.888637 0.885304 0.520120 0.698942
O17   O     O_3   0.065970 1.000000 0.586140 -0.368117
V3    V     V_3+5 0.995640 0.000000 0.837400 1.395886
O18   O     O_R   0.103020 0.915700 0.261710 -0.541009
O19   O     O_R   0.103020 0.084300 0.261710 -0.541151
C31   C     C_R   0.125062 0.885832 0.100169 0.750513
C32   C     C_R   0.125013 0.114152 0.100010 0.753241
V4    V     V_3+5 0.017940 0.000000 0.344880 1.388956
O20   O     O_3   0.947330 0.000000 0.046180 -0.377155
C33   C     C_3   0.884430 0.724002 0.872447 -0.384653
C34   C     C_3   0.914322 0.665421 0.719884 -0.740345
H17   H     H_    0.857157 0.623163 0.659130 0.213773
H18   H     H_    0.939327 0.700506 0.601293 0.222006
H19   H     H_    0.973785 0.626961 0.788866 0.210641
H20   H     H_    0.938789 0.772366 0.906390 0.191856
H21   H     H_    0.884726 0.686472 0.005770 0.169299
C35   C     C_3   0.902593 0.265520 0.967348 -0.375227
C36   C     C_3   0.964463 0.331496 0.893221 -0.761827
H22   H     H_    0.990949 0.309573 0.760780 0.225500
H23   H     H_    0.925558 0.390248 0.860946 0.214961
H24   H     H_    0.025517 0.343754 0.006272 0.221938
H25   H     H_    0.883959 0.286246 0.108428 0.189869
H26   H     H_    0.944299 0.207951 0.995692 0.195730
O21   O     O_3   0.630683 0.730749 0.876977 -0.639091
H27   H     H_    0.582667 0.686951 0.849391 0.304825
O22   O     O_3   0.650931 0.288196 0.811365 -0.648511
H28   H     H_    0.618046 0.336409 0.857092 0.305542

loop_
_geom_bond_atom_site_label_1
_geom_bond_atom_site_label_2
_ccdc_geom_bond_type
O15   C32   A    
O21   H27   S    
C9    C11   D    
O1    C2    A    
H1    C11   S    
C33   C34   S    
O2    C1    A    
O4    C2    A    
C36   H22   S    
C23   C25   S    
C5    H7    S    
C26   H14   S    
C34   H18   S    
C7    C11   S    
C4    C5    S    
C15   C17   A    
C18   C20   A    
O3    C1    A    
O13   V3    S    
C20   C22   A    
O12   V4    S    
V2    O10   S    
C2    C16   S    
C35   H26   S    
O8    V2    S    
O15   V3    S    
V3    O20   S    
H4    C8    S    
C25   C27   S    
C34   H19   S    
C26   C28   S    
C33   H20   S    
H2    C12   S    
O7    V1    S    
O18   V4    S    
C9    C31   S    
C24   C26   S    
O14   V3    S    
C19   H11   S    
C28   O22   S    
C20   H12   S    
H6    C10   S    
C36   H23   S    
C21   C23   A    
C22   C24   A    
C34   H17   S    
O16   V3    S    
C27   O21   S    
C27   H15   S    
O17   V4    S    
O16   C31   A    
O18   C31   A    
H3    C7    S    
C35   H25   S    
O9    V2    S    
C33   H21   S    
O11   V4    S    
O2    V2    S    
O5    C4    A    
C6    H8    S    
O1    V2    S    
O9    C4    A    
C5    C7    D    
C13   C23   A    
C25   C33   S    
O13   C29   A    
C13   C27   S    
O4    V1    S    
C36   H24   S    
O11   C30   A    
O12   C29   A    
C1    C15   S    
C10   C32   S    
C35   C36   S    
C26   C35   S    
O6    V1    S    
H5    C9    S    
C21   C30   S    
C14   C28   S    
C22   C29   S    
O14   C30   A    
C10   C12   D    
O7    V2    S    
O5    V1    S    
C17   H9    S    
O3    V1    S    
V1    O10   S    
O6    C3    A    
C18   H10   S    
O8    C3    A    
O19   V4    S    
C25   H13   S    
C16   C18   A    
C13   C15   A    
C14   C16   A    
C3    C6    S    
C6    C8    D    
C17   C19   A    
C8    C12   S    
V4    O20   S    
C14   C24   A    
O19   C32   A    
O17   V3    S    
C19   C21   A    
O22   H28   S    
C28   H16   S    
