data_mof_unit_3146.cif
_audit_creation_date              2012-12-10T17:42:44-0500
_audit_creation_method            fapswitch 2.2
_symmetry_space_group_name_H-M    P1
_symmetry_Int_Tables_number       1
_space_group_crystal_system       triclinic
_cell_length_a                    10.014665
_cell_length_b                    10.622709
_cell_length_c                    13.118708
_cell_angle_alpha                 91.690155
_cell_angle_beta                  68.798343
_cell_angle_gamma                 89.448888
_cell_volume                      1300.26771076

loop_
_atom_site_label
_atom_site_type_symbol
_atom_type_description
_atom_site_fract_x
_atom_site_fract_y
_atom_site_fract_z
_atom_type_partial_charge
C1    C     C_R   0.507156 0.736803 0.481847 0.965549
C2    C     C_R   0.369031 0.466086 0.823992 -0.312425
C3    C     C_R   0.276527 0.885147 0.436962 0.447073
C4    C     C_R   0.419527 0.489792 0.704587 0.843589
C5    C     C_R   0.136650 0.936031 0.487036 -0.141361
C6    C     C_R   0.115287 0.046674 0.553617 0.432238
C7    C     C_R   0.231417 0.102450 0.572453 0.138855
C8    C     C_R   0.373797 0.055231 0.514245 -0.176298
C9    C     C_R   0.388698 0.935294 0.465593 -0.096667
C10   C     C_R   0.515788 0.867341 0.450706 -0.155275
C11   C     C_R   0.644361 0.929771 0.427790 0.328131
C12   C     C_R   0.448607 0.473408 0.978842 0.072836
C13   C     C_R   0.638613 0.060937 0.443591 0.311330
C14   C     C_R   0.502921 0.122451 0.495432 -0.174101
C15   C     C_R   0.779342 0.627506 0.673891 0.483415
C16   C     C_R   0.499560 0.258919 0.501764 0.887261
C17   C     C_R   0.796131 0.643662 0.774077 -0.466654
C18   C     C_R   0.932633 0.649012 0.776055 0.447157
C19   C     C_R   0.049872 0.624996 0.678204 0.128183
C20   C     C_R   0.030519 0.560641 0.586580 -0.046167
C21   C     C_R   0.887079 0.561848 0.585309 -0.031062
C22   C     C_R   0.966600 0.436877 0.421501 0.507528
C23   C     C_R   0.469684 0.429255 0.871578 -0.009175
C24   C     C_R   0.109843 0.438997 0.420950 -0.203609
C25   C     C_R   0.581241 0.497525 0.295273 0.878241
C26   C     C_R   0.771376 0.338154 0.020364 0.104606
C27   C     C_R   0.635524 0.474239 0.176323 -0.224077
C28   C     C_R   0.227293 0.496302 0.894417 0.448612
C29   C     C_R   0.199060 0.525638 0.004942 0.096561
C30   C     C_R   0.310258 0.518686 0.045603 -0.240399
C31   C     C_R   0.560444 0.458028 0.020372 -0.017277
C32   C     C_R   0.678341 0.374448 0.965273 -0.002655
C33   C     C_R   0.692945 0.323755 0.861193 0.055926
C34   C     C_R   0.586364 0.344713 0.817663 0.087145
C35   C     C_R   0.557079 0.522956 0.116427 0.339177
C36   C     C_R   0.742729 0.382045 0.127830 0.060992
H1    H     H_    0.706919 0.679037 0.844884 0.169769
H2    H     H_    0.286679 0.209598 0.684651 0.152736
H3    H     H_    0.158451 0.275245 0.643784 0.229536
H4    H     H_    0.824414 0.096456 0.335974 0.325252
H5    H     H_    0.023628 0.323081 0.294381 0.299923
H6    H     H_    0.612648 0.742699 0.725971 0.317236
H7    H     H_    0.862477 0.710167 0.928556 0.343365
H8    H     H_    0.200900 0.692129 0.734792 0.246575
H9    H     H_    0.145802 0.791893 0.661478 0.164113
H10   H     H_    0.783913 0.159680 0.783599 0.250503
H11   H     H_    0.866350 0.293318 0.723347 0.229158
H12   H     H_    0.195049 0.388664 0.356566 0.144855
H13   H     H_    0.843023 0.160115 0.960892 0.209737
H14   H     H_    0.964008 0.277942 0.907005 0.245036
H15   H     H_    0.516777 0.682871 0.198893 0.359895
H16   H     H_    0.134891 0.425798 0.800628 0.325735
H17   H     H_    0.030871 0.647882 0.052147 0.236236
H18   H     H_    0.049527 0.572196 0.156743 0.184586
H19   H     H_    0.670372 0.287177 0.658404 0.244009
H20   H     H_    0.490186 0.259037 0.718602 0.158039
H21   H     H_    0.852293 0.914198 0.384833 0.357749
H22   H     H_    0.282858 0.537194 0.132252 0.209796
H23   H     H_    0.926831 0.334591 0.148251 0.231421
H24   H     H_    0.794199 0.229669 0.195450 0.190831
H25   H     H_    0.243436 0.799467 0.315869 0.343156
H26   H     H_    0.043339 0.778391 0.447458 0.216717
H27   H     H_    0.948611 0.851856 0.563851 0.216279
H28   H     H_    0.915249 0.069944 0.568783 0.369624
N1    N     N_R   0.856860 0.501200 0.500990 -0.100693
N2    N     N_3   0.588183 0.260851 0.729264 -0.452991
N3    N     N_R   0.142450 0.501280 0.501020 -0.086487
N4    N     N_3   0.816850 0.325639 0.190413 -0.348882
N5    N     N_3   0.014547 0.868405 0.483228 -0.456278
N6    N     N_3   0.197773 0.191549 0.663455 -0.416782
N7    N     N_3   0.173187 0.697458 0.665471 -0.339638
N8    N     N_3   0.816598 0.249604 0.797618 -0.453413
N9    N     N_3   0.884601 0.245200 0.976740 -0.465103
N10   N     N_3   0.055657 0.560237 0.075749 -0.403272
O1    O     O_R   0.385310 0.683220 0.500000 -0.571187
O2    O     O_3   0.981297 0.101760 0.603936 -0.798009
O3    O     O_3   0.762490 0.129632 0.409474 -0.727083
O4    O     O_3   0.935249 0.367656 0.343433 -0.713886
O5    O     O_3   0.675870 0.699816 0.656827 -0.701905
O6    O     O_3   0.955305 0.700369 0.866432 -0.740776
O7    O     O_3   0.480389 0.635363 0.148520 -0.759825
O8    O     O_3   0.113129 0.491130 0.860015 -0.734831
O9    O     O_3   0.771269 0.860161 0.388967 -0.753419
O10   O     O_R   0.614640 0.683250 0.500010 -0.495372
O11   O     O_R   0.328400 0.499950 0.653610 -0.621262
O12   O     O_R   0.557730 0.499970 0.653620 -0.577042
O13   O     O_R   0.385360 0.316750 0.499990 -0.643018
O14   O     O_R   0.614690 0.316780 0.500000 -0.537756
O15   O     O_R   0.442270 0.500030 0.346380 -0.585363
O16   O     O_R   0.671600 0.500050 0.346390 -0.543726
O17   O     O_3   0.308591 0.790350 0.356940 -0.744005
Zn1   Zn    Zn3+2 0.346880 0.499980 0.499990 0.968512
Zn2   Zn    Zn3+2 0.653120 0.500020 0.500010 1.064419

loop_
_geom_bond_atom_site_label_1
_geom_bond_atom_site_label_2
_ccdc_geom_bond_type
H2    N6    S    
C26   C32   A    
H9    N7    S    
C20   N3    A    
C19   N7    S    
C19   C20   A    
C34   N2    S    
C7    N6    S    
C35   O7    S    
C7    C8    A    
C1    O10   A    
C12   C23   A    
C25   O16   A    
C22   C24   A    
C28   C29   A    
C5    C6    A    
C4    O12   A    
C26   N9    S    
H8    N7    S    
C3    O17   S    
C18   C19   A    
C5    N5    S    
C33   N8    S    
H18   N10   S    
C15   O5    S    
H17   N10   S    
C8    C9    A    
C16   O13   A    
H21   O9    S    
C9    C10   A    
H15   O7    S    
H10   N8    S    
C24   N3    A    
C12   C30   A    
N1    Zn2   S    
H6    O5    S    
C13   C14   A    
O11   Zn1   S    
C33   C34   A    
C13   O3    S    
C28   O8    S    
C1    O1    A    
H27   N5    S    
C22   O4    S    
H14   N9    S    
H5    O4    S    
C4    O11   A    
C27   C35   A    
H7    O6    S    
H26   N5    S    
C24   H12   S    
C2    C4    S    
C22   N1    A    
C29   C30   A    
C3    C9    A    
O12   Zn2   S    
H23   N4    S    
C31   C32   A    
C23   C34   A    
C17   C18   A    
H28   O2    S    
C17   H1    S    
O15   Zn1   S    
H16   O8    S    
O1    Zn1   S    
C26   C36   A    
C12   C31   A    
C14   C16   S    
H19   N2    S    
O16   Zn2   S    
C15   C17   A    
O14   Zn2   S    
C8    C14   A    
C21   N1    A    
C1    C10   S    
C3    C5    A    
C36   N4    S    
C6    O2    S    
C6    C7    A    
C29   N10   S    
C27   C36   A    
C25   C27   S    
C25   O15   A    
C11   O9    S    
C32   C33   A    
C11   C13   A    
H20   N2    S    
C30   H22   S    
C31   C35   A    
N3    Zn1   S    
H3    N6    S    
H13   N9    S    
O10   Zn2   S    
H11   N8    S    
C10   C11   A    
C15   C21   A    
C20   C21   A    
H24   N4    S    
C18   O6    S    
C2    C23   A    
C16   O14   A    
H4    O3    S    
C2    C28   A    
O13   Zn1   S    
H25   O17   S    
