data_mof_unit_161.cif
_audit_creation_date              2013-03-05T16:44:35-0500
_audit_creation_method            fapswitch 2.2
_symmetry_space_group_name_H-M    P1
_symmetry_Int_Tables_number       1
_space_group_crystal_system       triclinic
_cell_length_a                    13.387292
_cell_length_b                    15.916654
_cell_length_c                    17.023588
_cell_angle_alpha                 86.606201
_cell_angle_beta                  88.375352
_cell_angle_gamma                 110.429546
_cell_volume                      3388.62280533

loop_
_atom_site_label
_atom_site_type_symbol
_atom_site_description
_atom_site_fract_x
_atom_site_fract_y
_atom_site_fract_z
_atom_type_partial_charge
O1    O     O_R   0.504790 0.580580 0.382450 -0.578904
O2    O     O_R   0.496140 0.435390 0.388990 -0.542884
C1    C     C_R   0.494439 0.506997 0.349268 0.903702
O3    O     O_R   0.657420 0.608020 0.495150 -0.543219
O4    O     O_R   0.648770 0.462830 0.501690 -0.545659
C2    C     C_R   0.703463 0.548563 0.497359 0.844749
Cu1   Cu    Cu3+1 0.505120 0.585970 0.496130 0.976232
Cu2   Cu    Cu3+1 0.494880 0.414030 0.503870 1.017413
O5    O     O_R   0.503860 0.564610 0.611010 -0.589424
O6    O     O_R   0.495210 0.419420 0.617550 -0.531535
O7    O     O_R   0.351230 0.537170 0.498310 -0.578494
O8    O     O_R   0.342580 0.391980 0.504850 -0.556559
C3    C     C_R   0.495708 0.490914 0.651443 0.803127
C4    C     C_R   0.297053 0.451729 0.500454 0.876313
C5    C     C_R   0.036897 0.353723 0.405902 -0.285999
H1    H     H_    0.865495 0.367421 0.344797 0.136247
H2    H     H_    0.002697 0.307898 0.361230 0.142363
C6    C     C_R   0.182806 0.424435 0.487536 -0.215901
C7    C     C_R   0.870444 0.652403 0.545528 -0.192092
C8    C     C_R   0.977181 0.674395 0.561813 -0.194051
C9    C     C_R   0.032657 0.619112 0.540392 -0.137093
C10   C     C_R   0.982514 0.540973 0.500299 0.051545
C11   C     C_R   0.880523 0.529258 0.471123 0.036375
C12   C     C_R   0.032324 0.477445 0.483615 -0.038950
C13   C     C_R   0.986792 0.413150 0.428320 0.010085
C14   C     C_R   0.895120 0.412173 0.391248 -0.238100
C15   C     C_R   0.844289 0.471911 0.409496 0.269414
C16   C     C_R   0.126061 0.475108 0.518981 0.313489
C17   C     C_R   0.136005 0.359378 0.434323 0.361826
C18   C     C_R   0.820374 0.578898 0.501582 -0.106145
H3    H     H_    0.826588 0.692362 0.568106 0.182139
H4    H     H_    0.115912 0.641579 0.552805 0.189930
H5    H     H_    0.016420 0.733199 0.593336 0.143612
C19   C     C_R   0.474272 0.500718 0.265359 -0.207366
C20   C     C_R   0.392130 0.425034 0.242641 -0.397600
C21   C     C_R   0.382052 0.405977 0.163674 0.213583
C22   C     C_R   0.456058 0.463232 0.106683 0.197191
C23   C     C_R   0.537193 0.541385 0.129268 0.282436
C24   C     C_R   0.539087 0.564555 0.207799 0.337802
C25   C     C_R   0.458699 0.570780 0.849883 0.231102
C26   C     C_R   0.469660 0.566245 0.768987 -0.298643
C27   C     C_R   0.459095 0.498592 0.900968 0.359746
N1    N     N_2   0.448502 0.442480 0.026888 -0.230045
N2    N     N_2   0.455027 0.509531 0.982769 -0.165720
C28   C     C_R   0.483070 0.490959 0.737448 -0.065346
H6    H     H_    0.468570 0.622877 0.730888 0.176039
C29   C     C_R   0.481704 0.418029 0.788245 -0.222289
C30   C     C_R   0.470066 0.421709 0.869696 -0.247942
H7    H     H_    0.490700 0.358944 0.765192 0.188092
H8    H     H_    0.471375 0.365277 0.907865 0.163097
H9    H     H_    0.336888 0.379355 0.286811 0.222831
N3    N     N_R   0.487180 0.284900 0.509690 -0.265732
C31   C     C_R   0.531611 0.251904 0.450233 0.427912
C32   C     C_R   0.531112 0.161749 0.456208 0.034816
C33   C     C_R   0.471482 0.100952 0.518988 0.179720
C34   C     C_R   0.420679 0.134214 0.576556 -0.018898
C35   C     C_R   0.427630 0.225755 0.570321 0.483976
C36   C     C_R   0.427170 0.823493 0.516232 -0.373001
C37   C     C_R   0.423344 0.734382 0.509868 -0.065050
C38   C     C_R   0.525013 0.895590 0.504854 0.285944
N4    N     N_2   0.454720 0.006134 0.522796 -0.224127
N5    N     N_2   0.537416 0.988846 0.508878 -0.137262
N6    N     N_R   0.512820 0.715120 0.490310 -0.223529
H10   H     H_    0.347618 0.681016 0.522868 0.201444
H11   H     H_    0.354297 0.835227 0.531377 0.177744
C39   C     C_R   0.608633 0.785731 0.475907 0.527473
C40   C     C_R   0.616132 0.875659 0.485554 0.060834
O9    O     O_3   0.195666 0.313067 0.401465 -0.587657
C41   C     C_3   0.138499 0.219470 0.407936 0.080939
H12   H     H_    0.076026 0.201169 0.364014 0.142810
H13   H     H_    0.100962 0.195797 0.468316 0.124622
C42   C     C_3   0.215211 0.170567 0.390479 -0.848138
H14   H     H_    0.281291 0.188792 0.431403 0.227906
H15   H     H_    0.172135 0.096775 0.397655 0.205563
H16   H     H_    0.249309 0.189195 0.328993 0.235351
N7    N     N_2   0.445724 0.648267 0.879872 -0.431401
H17   H     H_    0.410053 0.681951 0.843017 0.243208
C43   C     C_3   0.536105 0.707464 0.918339 -0.616139
H18   H     H_    0.571072 0.772715 0.882765 0.193718
H19   H     H_    0.599850 0.678376 0.926161 0.253156
H20   H     H_    0.508765 0.719977 0.977202 0.238126
O10   O     O_3   0.614060 0.595895 0.074346 -0.570741
C44   C     C_3   0.698332 0.562132 0.069387 0.092299
H21   H     H_    0.669234 0.490556 0.054551 0.140375
H22   H     H_    0.739079 0.567788 0.125943 0.145758
C45   C     C_3   0.779540 0.616988 0.004746 -0.801652
H23   H     H_    0.809632 0.689044 0.017199 0.248146
H24   H     H_    0.847767 0.592668 0.001836 0.200286
H25   H     H_    0.742105 0.609833 0.946951 0.242328
O11   O     O_3   0.611776 0.644488 0.229764 -0.609396
C46   C     C_3   0.584366 0.718193 0.199719 0.093518
H26   H     H_    0.564126 0.714566 0.136773 0.176068
H27   H     H_    0.655423 0.780166 0.202324 0.149103
C47   C     C_3   0.492852 0.728832 0.249062 -0.856756
H28   H     H_    0.513447 0.736224 0.311501 0.254506
H29   H     H_    0.477647 0.789830 0.226253 0.203088
H30   H     H_    0.418747 0.669642 0.245649 0.251553
N8    N     N_2   0.295285 0.331042 0.141459 -0.390933
H31   H     H_    0.227292 0.315608 0.177774 0.257274
C48   C     C_3   0.321596 0.252230 0.127803 -0.693656
H32   H     H_    0.340718 0.223544 0.184038 0.204450
H33   H     H_    0.390300 0.268868 0.084258 0.238510
H34   H     H_    0.252030 0.200669 0.103988 0.225931
N9    N     N_2   0.365879 0.076994 0.643532 -0.418986
H35   H     H_    0.328858 0.010368 0.632972 0.263730
C49   C     C_3   0.426896 0.088285 0.713379 -0.633520
H36   H     H_    0.376580 0.044671 0.763437 0.209252
H37   H     H_    0.452725 0.159100 0.729408 0.248265
H38   H     H_    0.498155 0.068955 0.703352 0.221351
O12   O     O_3   0.378744 0.256883 0.628777 -0.538345
C50   C     C_3   0.266951 0.224497 0.622121 0.096938
H39   H     H_    0.231193 0.151901 0.641314 0.159113
H40   H     H_    0.244914 0.234744 0.560827 0.153823
C51   C     C_3   0.218293 0.274944 0.675459 -0.801348
H41   H     H_    0.253421 0.348283 0.659139 0.247720
H42   H     H_    0.130643 0.251994 0.669443 0.182634
H43   H     H_    0.234489 0.262112 0.737809 0.250453
O13   O     O_3   0.702410 0.770287 0.461688 -0.573010
C52   C     C_3   0.725339 0.775482 0.379643 0.079835
H44   H     H_    0.696971 0.824042 0.345361 0.098106
H45   H     H_    0.688149 0.707936 0.357867 0.234562
C53   C     C_3   0.845599 0.804961 0.363820 -0.840962
H46   H     H_    0.878324 0.761050 0.399615 0.262979
H47   H     H_    0.863899 0.800936 0.300417 0.214221
H48   H     H_    0.885078 0.875274 0.379302 0.234776
N10   N     N_2   0.594742 0.135171 0.400661 -0.374413
H49   H     H_    0.661158 0.185754 0.375165 0.269218
C54   C     C_3   0.540694 0.067089 0.347855 -0.646431
H50   H     H_    0.554734 0.096431 0.285930 0.192212
H51   H     H_    0.453187 0.038294 0.361946 0.225655
H52   H     H_    0.573982 0.012278 0.352063 0.240143
N11   N     N_2   0.716697 0.947234 0.476782 -0.405626
H53   H     H_    0.767178 0.942579 0.431922 0.260999
C55   C     C_3   0.769616 0.969232 0.549623 -0.637663
H54   H     H_    0.843903 0.028720 0.538195 0.207336
H55   H     H_    0.790781 0.911791 0.574374 0.227518
H56   H     H_    0.717314 0.985857 0.593240 0.234658
O14   O     O_3   0.577755 0.306884 0.383453 -0.558510
C56   C     C_3   0.513508 0.277076 0.318474 0.095370
H57   H     H_    0.442991 0.297640 0.321696 0.180510
H58   H     H_    0.480768 0.203262 0.316142 0.134026
C57   C     C_3   0.578687 0.316348 0.241665 -0.864050
H59   H     H_    0.652417 0.299387 0.240153 0.237071
H60   H     H_    0.531836 0.288012 0.190755 0.213256
H61   H     H_    0.600500 0.390433 0.235829 0.241244
O15   O     O_3   0.165558 0.522079 0.583827 -0.601357
C58   C     C_3   0.107867 0.472461 0.652334 0.042063
H62   H     H_    0.099011 0.400135 0.653216 0.134244
H63   H     H_    0.027140 0.477573 0.656681 0.162343
C59   C     C_3   0.167427 0.510916 0.724224 -0.786158
H64   H     H_    0.176702 0.582898 0.725913 0.244660
H65   H     H_    0.122356 0.473299 0.778697 0.205477
H66   H     H_    0.247600 0.504888 0.721802 0.249219
N12   N     N_2   0.767238 0.482866 0.357913 -0.401342
H67   H     H_    0.732877 0.427840 0.326519 0.297996
C60   C     C_3   0.806379 0.563560 0.305479 -0.748819
H68   H     H_    0.741234 0.567722 0.268791 0.252997
H69   H     H_    0.833787 0.624074 0.339255 0.245600
H70   H     H_    0.873279 0.562062 0.266056 0.224065

loop_
_geom_bond_atom_site_label_1
_geom_bond_atom_site_label_2
_geom_bond_distance
_ccdc_geom_bond_type
C33   C34   1.406511 A    
N10   H49   1.031569 S    
C4    C6    1.463853 S    
C7    C8    1.387792 A    
C7    H3    1.083410 S    
C54   H50   1.110819 S    
C55   H56   1.111187 S    
N9    C49   1.446115 S    
C51   H41   1.109916 S    
Cu1   Cu2   2.687026 S    
C29   H7    1.083062 S    
C31   C32   1.430211 A    
Cu1   O7    1.929798 S    
C32   N10   1.432490 S    
C37   H10   1.077987 S    
C44   H21   1.115008 S    
C21   C22   1.401364 A    
C58   H63   1.112471 S    
N7    C43   1.450067 S    
O3    Cu1   1.943794 S    
C23   C24   1.406298 A    
C56   C57   1.523014 S    
C43   H19   1.111441 S    
C5    C13   1.400506 A    
C49   H36   1.110306 S    
C36   C38   1.407135 A    
C34   C35   1.424535 A    
C38   N5    1.440868 S    
C19   C20   1.401590 A    
C41   H13   1.115234 S    
O5    C3    1.293204 A    
O12   C50   1.412921 S    
O13   C52   1.412832 S    
C58   H62   1.114487 S    
C38   C40   1.398694 A    
O9    C41   1.413167 S    
C59   H66   1.110283 S    
C26   H6    1.083455 S    
C11   C15   1.415003 A    
Cu2   N3    2.017962 S    
C24   O11   1.384943 S    
N12   C60   1.445285 S    
N4    N5    1.250207 D    
C15   N12   1.422789 S    
C28   C29   1.400358 A    
C39   C40   1.419254 A    
N6    C39   1.382633 A    
O1    Cu1   1.942271 S    
C9    C10   1.416645 A    
C23   O10   1.382742 S    
C57   H61   1.108922 S    
C47   H28   1.108373 S    
C27   N2    1.415453 S    
C42   H16   1.110670 S    
C10   C11   1.420346 A    
N9    H35   1.031141 S    
C5    C17   1.400270 A    
Cu1   O5    1.963651 S    
C52   H45   1.106863 S    
H1    C14   1.084994 S    
C9    H4    1.076493 S    
C45   H24   1.110434 S    
C31   O14   1.380148 S    
C11   C18   1.417934 A    
C58   C59   1.520347 S    
C6    C16   1.403542 A    
C12   C13   1.419864 A    
C34   N9    1.425080 S    
C42   H15   1.110465 S    
N3    C35   1.378946 A    
C46   H26   1.112591 S    
C43   H18   1.111113 S    
N11   H53   1.028483 S    
C55   H55   1.111619 S    
C47   H30   1.110142 S    
C13   C14   1.391540 A    
O6    C3    1.304048 A    
C48   H34   1.110158 S    
C19   C24   1.401397 A    
O1    C1    1.295933 A    
C20   C21   1.395458 A    
C22   N1    1.414987 S    
C41   C42   1.522158 S    
N1    N2    1.243779 D    
C22   C23   1.418461 A    
C46   H27   1.110127 S    
C17   O9    1.388751 S    
C36   H11   1.082470 S    
C25   C27   1.400971 A    
C29   C30   1.397890 A    
Cu2   O8    1.943793 S    
C48   H33   1.110700 S    
C14   C15   1.392232 A    
C50   H40   1.110552 S    
C6    C17   1.405607 A    
C27   C30   1.414427 A    
N7    H17   1.031998 S    
C52   H44   1.116386 S    
C47   H29   1.110233 S    
Cu1   N6    2.018283 S    
N12   H67   1.025861 S    
N11   C55   1.445742 S    
C8    H5    1.082659 S    
O3    C2    1.296639 A    
C25   C26   1.389593 A    
C2    C18   1.473369 S    
O8    C4    1.296248 A    
O10   C44   1.411349 S    
N8    C48   1.445678 S    
C20   H9    1.081359 S    
C59   H65   1.110335 S    
C53   H47   1.110536 S    
C54   H52   1.109344 S    
C57   H60   1.107952 S    
N3    C31   1.378765 A    
O15   C58   1.412227 S    
C52   C53   1.522419 S    
C5    H2    1.082692 S    
C32   C33   1.416254 A    
C60   H68   1.105152 S    
N10   C54   1.452840 S    
C50   H39   1.109663 S    
C44   H22   1.112825 S    
C45   H23   1.110712 S    
C16   O15   1.382733 S    
C60   H70   1.111675 S    
O2    Cu2   1.963648 S    
C12   C16   1.418228 A    
C42   H14   1.109866 S    
C45   H25   1.110640 S    
C54   H51   1.111845 S    
O4    Cu2   1.929801 S    
C51   H42   1.110313 S    
C56   H57   1.102828 S    
C35   O12   1.382715 S    
C55   H54   1.110520 S    
C37   N6    1.373149 A    
C1    C19   1.463979 S    
C53   H48   1.109579 S    
C60   H69   1.106242 S    
O2    C1    1.297900 A    
C36   C37   1.412040 A    
C46   C47   1.529222 S    
C3    C28   1.469158 S    
C56   H58   1.105005 S    
C43   H20   1.109700 S    
O11   C46   1.418670 S    
O4    C2    1.300439 A    
C49   H37   1.110912 S    
C33   N4    1.443373 S    
C30   H8    1.082504 S    
C48   H32   1.110950 S    
O7    C4    1.296475 A    
C40   N11   1.424922 S    
C50   C51   1.520329 S    
C10   C12   1.428904 A    
C41   H12   1.111099 S    
C51   H43   1.110691 S    
O14   C56   1.421163 S    
C25   N7    1.425126 S    
C44   C45   1.520169 S    
C8    C9    1.391997 A    
Cu2   O6    1.942271 S    
N8    H31   1.032032 S    
C39   O13   1.378534 S    
C57   H59   1.110510 S    
C26   C28   1.406167 A    
C59   H64   1.110718 S    
C21   N8    1.423376 S    
C53   H46   1.109146 S    
C7    C18   1.400858 A    
C49   H38   1.111641 S    
