data_mof_unit_3903.cif
_audit_creation_date              2013-03-05T16:45:42-0500
_audit_creation_method            fapswitch 2.2
_symmetry_space_group_name_H-M    P1
_symmetry_Int_Tables_number       1
_space_group_crystal_system       triclinic
_cell_length_a                    17.514182
_cell_length_b                    10.632161
_cell_length_c                    9.891816
_cell_angle_alpha                 90.067479
_cell_angle_beta                  89.406207
_cell_angle_gamma                 90.097442
_cell_volume                      1841.8878737

loop_
_atom_site_label
_atom_site_type_symbol
_atom_site_description
_atom_site_fract_x
_atom_site_fract_y
_atom_site_fract_z
_atom_type_partial_charge
O1    O     O_R   0.500010 0.316790 0.614690 -0.617756
O2    O     O_R   0.500000 0.316760 0.385350 -0.598002
C1    C     C_R   0.498042 0.260409 0.499817 0.908763
O3    O     O_R   0.389120 0.500020 0.614710 -0.634179
O4    O     O_R   0.389110 0.499990 0.385370 -0.557899
C2    C     C_R   0.353288 0.504269 0.500705 0.965469
Zn1   Zn    Zn3+2 0.500010 0.500020 0.653130 0.963637
Zn2   Zn    Zn3+2 0.499990 0.499980 0.346870 1.053503
O5    O     O_R   0.500000 0.683240 0.614650 -0.629524
O6    O     O_R   0.499990 0.683210 0.385310 -0.596888
O7    O     O_R   0.610890 0.500010 0.614630 -0.626001
O8    O     O_R   0.610880 0.499980 0.385290 -0.574801
C3    C     C_R   0.500772 0.739477 0.500337 0.876237
C4    C     C_R   0.646528 0.500819 0.499275 0.847069
C5    C     C_R   0.840596 0.605376 0.603378 -0.163098
H1    H     H_    0.866409 0.654906 0.687183 0.145251
C6    C     C_R   0.762802 0.581861 0.604976 -0.228298
H2    H     H_    0.728824 0.616889 0.689053 0.166168
C7    C     C_R   0.729066 0.515782 0.497992 -0.049889
C8    C     C_R   0.774170 0.471890 0.388648 0.081638
C9    C     C_R   0.852394 0.497011 0.388021 -0.195111
H3    H     H_    0.888411 0.462310 0.306341 0.135572
C10   C     C_R   0.884732 0.563261 0.494809 0.133283
C11   C     C_1   0.964759 0.575100 0.499160 -0.056818
C12   C     C_1   0.032483 0.575258 0.502463 -0.040186
C13   C     C_R   0.146617 0.499783 0.613066 0.133905
C14   C     C_R   0.225004 0.478936 0.612023 0.098708
C15   C     C_R   0.270332 0.523181 0.502059 -0.284864
C16   C     C_R   0.235349 0.587853 0.393441 0.291785
C17   C     C_R   0.156651 0.607830 0.395711 0.033788
C18   C     C_R   0.112991 0.564255 0.505488 -0.050453
C19   C     C_R   0.447576 0.062966 0.581406 0.019781
C20   C     C_R   0.499014 0.128374 0.499442 -0.092838
C21   C     C_R   0.557082 0.065987 0.428273 -0.157844
H4    H     H_    0.599897 0.117610 0.371120 0.193487
C22   C     C_R   0.558455 0.935963 0.428605 -0.182927
H5    H     H_    0.601230 0.886246 0.369446 0.155263
C23   C     C_R   0.503051 0.871248 0.503544 -0.034437
C24   C     C_R   0.451445 0.934316 0.586855 0.059613
C25   C     C_3   0.366956 0.917539 0.593746 -0.517639
C26   C     C_3   0.361465 0.059854 0.580067 0.137620
H6    H     H_    0.344560 0.860772 0.508940 0.264121
H7    H     H_    0.348298 0.883233 0.694962 0.189518
H8    H     H_    0.333181 0.104519 0.668426 0.117405
C27   C     C_R   0.460384 0.410499 0.071374 0.098556
N1    N     N_R   0.499490 0.499140 0.142800 -0.079942
C28   C     C_R   0.534105 0.593995 0.071392 -0.015121
H9    H     H_    0.563223 0.668394 0.124983 0.141200
C29   C     C_R   0.534470 0.593646 0.927603 -0.097320
H10   H     H_    0.564038 0.667602 0.873184 0.147063
N2    N     N_R   0.499490 0.499180 0.857150 -0.108644
C30   C     C_R   0.458535 0.412696 0.929109 0.118599
C31   C     C_3   0.465681 0.273302 0.917502 -0.163730
C32   C     C_3   0.470731 0.269147 0.071877 0.251051
H11   H     H_    0.518458 0.243134 0.863010 0.209256
N3    N     N_R   0.330046 0.103746 0.451544 0.217788
O9    O     O_R   0.305300 0.025581 0.360418 -0.336732
O10   O     O_R   0.319772 0.223629 0.433657 -0.461629
N4    N     N_3   0.396810 0.216123 0.861843 -0.461131
H12   H     H_    0.398291 0.119837 0.883159 0.224713
H13   H     H_    0.347666 0.253366 0.907588 0.205282
N5    N     N_3   0.407795 0.200344 0.138139 -0.399793
H14   H     H_    0.424540 0.173048 0.234615 0.264935
H15   H     H_    0.360190 0.258714 0.150751 0.212545
N6    N     N_R   0.545967 0.223511 0.113955 0.209022
O11   O     O_R   0.600577 0.301059 0.145110 -0.403111
O12   O     O_R   0.561556 0.104343 0.102179 -0.406349
N7    N     N_3   0.740950 0.399387 0.281532 -0.379018
H16   H     H_    0.781463 0.380612 0.205801 0.190455
H17   H     H_    0.724853 0.312513 0.322376 0.201834
N8    N     N_3   0.101551 0.453021 0.724328 -0.410242
H18   H     H_    0.061151 0.389790 0.686848 0.196358
H19   H     H_    0.072649 0.528639 0.768956 0.192478
N9    N     N_3   0.256251 0.408177 0.721818 -0.407974
H20   H     H_    0.288658 0.333769 0.683042 0.220431
H21   H     H_    0.290255 0.467097 0.780691 0.226093
N10   N     N_R   0.278974 0.634939 0.280541 0.238935
O13   O     O_R   0.263223 0.598075 0.158477 -0.369441
O14   O     O_R   0.328940 0.723970 0.297873 -0.373830
N11   N     N_3   0.121902 0.674006 0.285878 -0.374707
H22   H     H_    0.093859 0.753055 0.324908 0.201283
H23   H     H_    0.081334 0.615084 0.241612 0.198701

loop_
_geom_bond_atom_site_label_1
_geom_bond_atom_site_label_2
_geom_bond_distance
_ccdc_geom_bond_type
C12   C18   1.415702 S    
C31   H11   1.112708 S    
C7    C8    1.412110 A    
C31   N4    1.462240 S    
C28   C29   1.422283 A    
C32   N6    1.469350 S    
C31   C32   1.531212 S    
Zn1   O7    1.975084 S    
C13   C14   1.390977 A    
C16   C17   1.394911 A    
N9    H21   1.044664 S    
O4    C2    1.297085 A    
C15   C16   1.421063 A    
C17   C18   1.400459 A    
O7    C4    1.294973 A    
C1    C20   1.403946 S    
C5    H1    1.083903 S    
N3    O9    1.302360 A    
Zn1   O5    1.985305 S    
C21   H4    1.083386 S    
C19   C24   1.370774 A    
O5    C3    1.279669 A    
N5    H15   1.046560 S    
C25   H7    1.111715 S    
C2    C15   1.467004 S    
N7    H16   1.045744 S    
N6    O12   1.301390 A    
C10   C11   1.408136 S    
C14   N9    1.435504 S    
C17   N11   1.436225 S    
C25   H6    1.107553 S    
C13   C18   1.401849 A    
C9    H3    1.084607 S    
C13   N8    1.436453 S    
O3    Zn1   1.982845 S    
C6    H2    1.083658 S    
N10   O14   1.300449 A    
N4    H13   1.046453 S    
N9    H20   1.044729 S    
N2    C30   1.362125 A    
C11   C12   1.186914 T    
O3    C2    1.297120 A    
C24   C25   1.491023 S    
N8    H19   1.045668 S    
C32   N5    1.470780 S    
C27   C30   1.408186 A    
C29   N2    1.369270 A    
N10   O13   1.301172 A    
O1    C1    1.284852 A    
C26   N3    1.467521 S    
N5    H14   1.042940 S    
C28   H9    1.081695 S    
Zn2   O8    1.982846 S    
C20   C21   1.398665 A    
C3    C23   1.401843 S    
N11   H23   1.045626 S    
C25   C26   1.522615 S    
O8    C4    1.294498 A    
C27   C32   1.514090 S    
C29   H10   1.081698 S    
C9    C10   1.393579 A    
C26   H8    1.107113 S    
C19   C26   1.508664 S    
C30   C31   1.491733 S    
C5    C6    1.384750 A    
N1    C28   1.369055 A    
C22   H5    1.083822 S    
O1    Zn1   1.984453 S    
C4    C7    1.453972 S    
C8    N7    1.436932 S    
Zn2   O6    1.984453 S    
O2    Zn2   1.985305 S    
N11   H22   1.045644 S    
O6    C3    1.285077 A    
O4    Zn2   1.975084 S    
C19   C20   1.391635 A    
C22   C23   1.395901 A    
O2    C1    1.281769 A    
Zn1   N2    2.018085 S    
N8    H18   1.045616 S    
C23   C24   1.389615 A    
C5    C10   1.390777 A    
C6    C7    1.404431 A    
N3    O10   1.300113 A    
C21   C22   1.382693 A    
Zn2   N1    2.018742 S    
C27   N1    1.364830 A    
N4    H12   1.045880 S    
C16   N10   1.436639 S    
C8    C9    1.395318 A    
N7    H17   1.045706 S    
N6    O11   1.300924 A    
C14   C15   1.420130 A    
