data_mof_unit_4877.cif
_audit_creation_date              2013-03-05T15:43:05-0500
_audit_creation_method            fapswitch 2.2
_symmetry_space_group_name_H-M    P1
_symmetry_Int_Tables_number       1
_space_group_crystal_system       triclinic
_cell_length_a                    11.003399
_cell_length_b                    19.214083
_cell_length_c                    18.455898
_cell_angle_alpha                 90.131787
_cell_angle_beta                  90.248374
_cell_angle_gamma                 90.202778
_cell_volume                      3901.87848731

loop_
_atom_site_label
_atom_site_type_symbol
_atom_site_description
_atom_site_fract_x
_atom_site_fract_y
_atom_site_fract_z
_atom_type_partial_charge
O1    O     O_R   0.575450 0.828820 0.667950 -0.479675
O2    O     O_R   0.575450 0.828820 0.832050 -0.492626
O3    O     O_R   0.575450 0.171180 0.332050 -0.511287
O4    O     O_R   0.575450 0.171180 0.167950 -0.507593
O5    O     O_R   0.075450 0.328820 0.667950 -0.477909
O6    O     O_R   0.075450 0.328820 0.832050 -0.505630
O7    O     O_R   0.075450 0.671180 0.332050 -0.514153
O8    O     O_R   0.075450 0.671180 0.167950 -0.491258
O9    O     O_R   0.416860 0.942890 0.674680 -0.496419
O10   O     O_R   0.416860 0.942890 0.825320 -0.521405
O11   O     O_R   0.416860 0.057110 0.325320 -0.519720
O12   O     O_R   0.416860 0.057110 0.174680 -0.530219
O13   O     O_R   0.916860 0.442890 0.674680 -0.495837
O14   O     O_R   0.916860 0.442890 0.825320 -0.531535
O15   O     O_R   0.916860 0.557110 0.325320 -0.520630
O16   O     O_R   0.916860 0.557110 0.174680 -0.514180
C1    C     C_R   0.318958 0.968883 0.645734 0.514918
C2    C     C_R   0.319661 0.967776 0.855174 0.508634
C3    C     C_R   0.321758 0.029064 0.352224 0.517186
C4    C     C_R   0.321821 0.028502 0.148695 0.512497
C5    C     C_R   0.818960 0.468913 0.645763 0.513066
C6    C     C_R   0.822169 0.470743 0.852331 0.517123
C7    C     C_R   0.821754 0.529084 0.352249 0.518717
C8    C     C_R   0.818659 0.531229 0.145793 0.509918
O17   O     O_R   0.213790 0.953680 0.668330 -0.514534
O18   O     O_R   0.213790 0.953680 0.831670 -0.508692
O19   O     O_R   0.213790 0.046320 0.331670 -0.486883
O20   O     O_R   0.213790 0.046320 0.168330 -0.492914
O21   O     O_R   0.713790 0.453680 0.668330 -0.513825
O22   O     O_R   0.713790 0.453680 0.831670 -0.486769
O23   O     O_R   0.713790 0.546320 0.331670 -0.488205
O24   O     O_R   0.713790 0.546320 0.168330 -0.510631
O25   O     O_R   0.121360 0.817890 0.672660 -0.490471
O26   O     O_R   0.121360 0.817890 0.827340 -0.485989
O27   O     O_R   0.121360 0.182110 0.327340 -0.486654
O28   O     O_R   0.121360 0.182110 0.172660 -0.483052
O29   O     O_R   0.621360 0.317890 0.672660 -0.488596
O30   O     O_R   0.621360 0.317890 0.827340 -0.487461
O31   O     O_R   0.621360 0.682110 0.327340 -0.492858
O32   O     O_R   0.621360 0.682110 0.172660 -0.489438
C9    C     C_R   0.133938 0.757625 0.643962 0.536180
C10   C     C_R   0.131049 0.756466 0.854918 0.529541
C11   C     C_R   0.133484 0.242107 0.356119 0.541219
C12   C     C_R   0.175805 0.230135 0.135408 0.523146
C13   C     C_R   0.633946 0.257629 0.643959 0.538868
C14   C     C_R   0.632795 0.258395 0.855576 0.528664
C15   C     C_R   0.633493 0.742105 0.356121 0.529784
C16   C     C_R   0.630977 0.743314 0.144964 0.526178
O33   O     O_R   0.206850 0.711370 0.665820 -0.527896
O34   O     O_R   0.206850 0.711370 0.834180 -0.492873
O35   O     O_R   0.206850 0.288630 0.334180 -0.477496
O36   O     O_R   0.206850 0.288630 0.165820 -0.524497
O37   O     O_R   0.706850 0.211370 0.665820 -0.530982
O38   O     O_R   0.706850 0.211370 0.834180 -0.535583
O39   O     O_R   0.706850 0.788630 0.334180 -0.479398
O40   O     O_R   0.706850 0.788630 0.165820 -0.490499
O41   O     O_R   0.457710 0.733190 0.672630 -0.504534
O42   O     O_R   0.457710 0.733190 0.827370 -0.482180
O43   O     O_R   0.457710 0.266810 0.327370 -0.481817
O44   O     O_R   0.457710 0.266810 0.172630 -0.514518
O45   O     O_R   0.957710 0.233190 0.672630 -0.505479
O46   O     O_R   0.957710 0.233190 0.827370 -0.503908
O47   O     O_R   0.957710 0.766810 0.327370 -0.481555
O48   O     O_R   0.957710 0.766810 0.172630 -0.481110
C17   C     C_R   0.542651 0.769111 0.645185 0.545033
C18   C     C_R   0.492742 0.789321 0.862343 0.551313
C19   C     C_R   0.541100 0.230424 0.355420 0.548938
C20   C     C_R   0.504841 0.215531 0.136766 0.539362
C21   C     C_R   0.042668 0.269104 0.645192 0.548184
C22   C     C_R   0.003233 0.284438 0.863314 0.544177
C23   C     C_R   0.041106 0.730428 0.355417 0.543039
C24   C     C_R   0.992739 0.710605 0.137540 0.548868
Cr1   Cr    Cr6+3 0.488160 0.884660 0.750000 1.071248
Cr2   Cr    Cr6+3 0.488160 0.115340 0.250000 1.025111
Cr3   Cr    Cr6+3 0.988160 0.384660 0.750000 1.058422
Cr4   Cr    Cr6+3 0.988160 0.615340 0.250000 1.048286
Cr5   Cr    Cr6+3 0.173480 0.883120 0.750000 1.087056
Cr6   Cr    Cr6+3 0.173480 0.116880 0.250000 1.105436
Cr7   Cr    Cr6+3 0.673480 0.383120 0.750000 1.098055
Cr8   Cr    Cr6+3 0.673480 0.616880 0.250000 1.094620
Cr9   Cr    Cr6+3 0.333410 0.727260 0.750000 1.086314
Cr10  Cr    Cr6+3 0.333410 0.272740 0.250000 1.083510
Cr11  Cr    Cr6+3 0.833410 0.227260 0.750000 1.039446
Cr12  Cr    Cr6+3 0.833410 0.772740 0.250000 1.130499
O49   O     O_3   0.331690 0.831680 0.750000 -0.306531
O50   O     O_3   0.331690 0.168320 0.250000 -0.308936
O51   O     O_3   0.831690 0.331680 0.750000 -0.293003
O52   O     O_3   0.831690 0.668320 0.250000 -0.309753
C25   C     C_3   0.988831 0.789023 0.482781 -0.101264
C26   C     C_3   0.989232 0.787675 0.016879 -0.090585
C27   C     C_3   0.059085 0.187066 0.526995 -0.120314
C28   C     C_3   0.993093 0.204243 0.983437 -0.110514
C29   C     C_3   0.683547 0.269410 0.464197 -0.153295
C30   C     C_3   0.569232 0.304861 0.032080 -0.102900
C31   C     C_3   0.558966 0.687089 0.526985 -0.119946
C32   C     C_3   0.489451 0.711012 0.982363 -0.089737
C33   C     C_3   0.109159 0.813795 0.517717 -0.109142
C34   C     C_3   0.121481 0.784969 0.990278 -0.129914
C35   C     C_3   0.176814 0.208939 0.487924 -0.129409
C36   C     C_3   0.126311 0.184655 0.001284 -0.137011
C37   C     C_3   0.677315 0.207122 0.516379 -0.105259
C38   C     C_3   0.676295 0.271013 0.991252 -0.116398
C39   C     C_3   0.676747 0.708903 0.487933 -0.128402
C40   C     C_3   0.621719 0.714156 0.009627 -0.130821
H1    H     H_    0.134735 0.865227 0.538885 0.149467
H2    H     H_    0.185439 0.829531 0.987063 0.116545
H3    H     H_    0.253491 0.173768 0.474634 0.118763
H4    H     H_    0.163495 0.131281 0.005718 0.119774
H5    H     H_    0.755770 0.174230 0.531664 0.126732
H6    H     H_    0.767337 0.294812 0.983921 0.100571
H7    H     H_    0.753382 0.673697 0.474657 0.118472
H8    H     H_    0.685592 0.669777 0.013119 0.115256
H9    H     H_    0.909700 0.820178 0.467232 0.212016
H10   H     H_    0.936854 0.830520 0.039103 0.215095
H11   H     H_    0.037677 0.136120 0.551503 0.124062
H12   H     H_    0.918915 0.167386 0.968895 0.127775
H13   H     H_    0.760298 0.289376 0.431482 0.103423
H14   H     H_    0.573515 0.353766 0.063945 0.122172
H15   H     H_    0.537434 0.636164 0.551497 0.124526
H16   H     H_    0.437118 0.667612 0.960378 0.214291
C41   C     C_3   0.102074 0.751483 0.568781 0.067666
C42   C     C_3   0.077812 0.741916 0.925469 0.043147
C43   C     C_3   0.099120 0.247289 0.431253 0.046462
C44   C     C_3   0.125566 0.238081 0.063177 0.062184
C45   C     C_3   0.602089 0.251495 0.568778 0.067850
C46   C     C_3   0.589215 0.253700 0.928731 0.059906
C47   C     C_3   0.599129 0.747290 0.431251 0.048732
C48   C     C_3   0.578166 0.757114 0.074170 0.043358
C49   C     C_3   0.983029 0.727166 0.535646 -0.159714
C50   C     C_3   0.946423 0.744161 0.950735 -0.125826
C51   C     C_3   0.982306 0.224532 0.468576 -0.138908
C52   C     C_3   0.992776 0.256529 0.047229 -0.116385
C53   C     C_3   0.609199 0.313802 0.517706 -0.109311
C54   C     C_3   0.482990 0.288551 0.967601 -0.122250
C55   C     C_3   0.482267 0.724593 0.468556 -0.138928
C56   C     C_3   0.446835 0.754272 0.048375 -0.126579
C57   C     C_3   0.056488 0.682956 0.482326 -0.120253
C58   C     C_3   0.967140 0.676432 0.994521 -0.156930
C59   C     C_3   0.988378 0.292726 0.513247 -0.123679
C60   C     C_3   0.038649 0.314516 0.996825 -0.136452
C61   C     C_3   0.488860 0.289038 0.482777 -0.101420
C62   C     C_3   0.453046 0.216918 0.001158 -0.155872
C63   C     C_3   0.488420 0.792785 0.513228 -0.124500
C64   C     C_3   0.467490 0.822123 0.004868 -0.158351
C65   C     C_3   0.177321 0.707129 0.516375 -0.105409
C66   C     C_3   0.098644 0.673538 0.966495 -0.065716
C67   C     C_3   0.105922 0.314924 0.474824 -0.065240
C68   C     C_3   0.171936 0.295595 0.013220 -0.110938
C69   C     C_3   0.483035 0.227187 0.535650 -0.159914
C70   C     C_3   0.558881 0.183446 0.960543 -0.122261
C71   C     C_3   0.606014 0.814923 0.474821 -0.065257
C72   C     C_3   0.599033 0.825522 0.033313 -0.065779
C73   C     C_3   0.183529 0.769424 0.464202 -0.153141
C74   C     C_3   0.142645 0.716699 0.031560 -0.085712
C75   C     C_3   0.183335 0.277058 0.532199 -0.096189
C76   C     C_3   0.172517 0.242876 0.950483 -0.119606
C77   C     C_3   0.556473 0.182958 0.482335 -0.120298
C78   C     C_3   0.646678 0.199365 0.023761 -0.102569
C79   C     C_3   0.683349 0.777019 0.532208 -0.096244
C80   C     C_3   0.642956 0.782538 0.968509 -0.085687
C81   C     C_3   0.064686 0.744834 0.430707 0.049138
C82   C     C_3   0.011999 0.720370 0.059041 0.024944
C83   C     C_3   0.066972 0.255106 0.569937 0.047884
C84   C     C_3   0.041228 0.262802 0.934632 0.057124
C85   C     C_3   0.564692 0.244830 0.430707 0.048888
C86   C     C_3   0.540211 0.232985 0.063715 0.061978
C87   C     C_3   0.566936 0.755124 0.569928 0.047673
C88   C     C_3   0.512315 0.778634 0.940527 0.026900
H17   H     H_    0.905982 0.707493 0.568321 0.098735
H18   H     H_    0.877949 0.751205 0.907746 0.124384
H19   H     H_    0.904928 0.201128 0.438506 0.126479
H20   H     H_    0.920719 0.262047 0.088756 0.127316
H21   H     H_    0.634771 0.365251 0.538848 0.149286
H22   H     H_    0.418700 0.325166 0.941392 0.135141
H23   H     H_    0.404885 0.701218 0.438466 0.126298
H24   H     H_    0.379022 0.746925 0.091335 0.123667
H25   H     H_    0.021895 0.632756 0.462736 0.149742
H26   H     H_    0.900503 0.633621 0.999161 0.119790
H27   H     H_    0.911360 0.327738 0.526341 0.120913
H28   H     H_    0.990789 0.364066 0.989906 0.124476
H29   H     H_    0.409742 0.320203 0.467231 0.212511
H30   H     H_    0.366411 0.189434 0.010047 0.096491
H31   H     H_    0.411442 0.827831 0.526309 0.120386
H32   H     H_    0.399735 0.863996 0.000054 0.119316
H33   H     H_    0.255792 0.674246 0.531654 0.126410
H34   H     H_    0.142748 0.627091 0.943179 0.212416
H35   H     H_    0.122602 0.367039 0.451641 0.197337
H36   H     H_    0.249013 0.330602 0.026417 0.115648
H37   H     H_    0.405980 0.207537 0.568332 0.098551
H38   H     H_    0.546140 0.142678 0.919911 0.116549
H39   H     H_    0.622825 0.867019 0.451619 0.197116
H40   H     H_    0.643438 0.872040 0.056543 0.214965
H41   H     H_    0.260264 0.789418 0.431492 0.102670
H42   H     H_    0.216918 0.699094 0.066610 0.186628
H43   H     H_    0.262462 0.297030 0.563079 0.174867
H44   H     H_    0.243020 0.237410 0.908015 0.128706
H45   H     H_    0.521889 0.132747 0.462761 0.150197
H46   H     H_    0.715282 0.164399 0.048301 0.126939
H47   H     H_    0.762474 0.796973 0.563104 0.174977
H48   H     H_    0.717415 0.799772 0.933641 0.188098
C89   C     C_R   0.335014 0.990147 0.420825 -0.032535
C90   C     C_R   0.337071 0.987618 0.081881 -0.032044
C91   C     C_R   0.321480 0.999738 0.572355 -0.030269
C92   C     C_R   0.324808 0.994178 0.930377 -0.034259
C93   C     C_R   0.834982 0.490234 0.420899 -0.032020
C94   C     C_R   0.820921 0.501220 0.072284 -0.030711
C95   C     C_R   0.821484 0.499842 0.572428 -0.030055
C96   C     C_R   0.836769 0.509224 0.921057 -0.032563
C97   C     C_R   0.559213 0.002068 0.430471 -0.091651
C98   C     C_R   0.560423 0.001677 0.075649 -0.077062
C99   C     C_R   0.536096 0.031082 0.577978 -0.073908
C100  C     C_R   0.545261 0.017368 0.926477 -0.072960
C101  C     C_R   0.059205 0.502131 0.430550 -0.091858
C102  C     C_R   0.035484 0.469654 0.079911 -0.072568
C103  C     C_R   0.036091 0.531151 0.578057 -0.073165
C104  C     C_R   0.060342 0.492667 0.931715 -0.085147
C105  C     C_R   0.658744 0.025838 0.470521 -0.058271
C106  C     C_R   0.660737 0.024210 0.037025 -0.067122
C107  C     C_R   0.646342 0.041301 0.543791 -0.063897
C108  C     C_R   0.652670 0.032801 0.962789 -0.062888
C109  C     C_R   0.158744 0.525887 0.470610 -0.058700
C110  C     C_R   0.146124 0.458367 0.046662 -0.060307
C111  C     C_R   0.146341 0.541354 0.543877 -0.063465
C112  C     C_R   0.158811 0.469881 0.972773 -0.063358
C113  C     C_R   0.433932 0.008444 0.538245 -0.002676
C114  C     C_R   0.438712 0.001278 0.965318 -0.011084
C115  C     C_R   0.442979 0.998636 0.462478 -0.022304
C116  C     C_R   0.445541 0.995990 0.041592 -0.010287
C117  C     C_R   0.933925 0.508533 0.538316 -0.002947
C118  C     C_R   0.943879 0.498717 0.963140 -0.024229
C119  C     C_R   0.942961 0.498720 0.462549 -0.022733
C120  C     C_R   0.933746 0.491046 0.039038 -0.012612
H49   H     H_    0.743898 0.036233 0.444140 0.186392
H50   H     H_    0.744136 0.036865 0.064747 0.182280
H51   H     H_    0.721009 0.063705 0.573911 0.171736
H52   H     H_    0.727804 0.055319 0.933475 0.168991
H53   H     H_    0.243889 0.536304 0.444229 0.187298
H54   H     H_    0.220871 0.438096 0.078121 0.173487
H55   H     H_    0.221000 0.563764 0.573998 0.172998
H56   H     H_    0.244687 0.459540 0.947238 0.185433
H57   H     H_    0.573358 0.988687 0.374187 0.167130
H58   H     H_    0.573639 0.989878 0.132398 0.163471
H59   H     H_    0.529261 0.045631 0.634523 0.130992
H60   H     H_    0.543544 0.028754 0.869179 0.137023
H61   H     H_    0.073355 0.488753 0.374267 0.166617
H62   H     H_    0.028179 0.456593 0.136741 0.140095
H63   H     H_    0.029250 0.545697 0.634603 0.133663
H64   H     H_    0.076627 0.505237 0.875518 0.166882
C121  C     C_R   0.214666 0.994164 0.528967 -0.050950
C122  C     C_R   0.217884 0.987469 0.973358 -0.052023
C123  C     C_R   0.225538 0.975488 0.456232 -0.048648
C124  C     C_R   0.229444 0.969758 0.046228 -0.061563
C125  C     C_R   0.714660 0.494313 0.529057 -0.051319
C126  C     C_R   0.727779 0.526474 0.955751 -0.053124
C127  C     C_R   0.725491 0.475627 0.456329 -0.048139
C128  C     C_R   0.714916 0.508722 0.028505 -0.043225
C129  C     C_R   0.096810 0.002271 0.557203 -0.122193
C130  C     C_R   0.099208 0.995812 0.945579 -0.100489
C131  C     C_R   0.122059 0.952920 0.417334 -0.102238
C132  C     C_R   0.127141 0.947611 0.085555 -0.102960
C133  C     C_R   0.596833 0.502431 0.557329 -0.122306
C134  C     C_R   0.625544 0.549179 0.915975 -0.103641
C135  C     C_R   0.621981 0.453047 0.417475 -0.102392
C136  C     C_R   0.596083 0.501677 0.055974 -0.102381
C137  C     C_R   0.993713 0.978747 0.519608 0.171376
C138  C     C_R   0.997341 0.972770 0.983712 0.180935
C139  C     C_R   0.005974 0.958792 0.446210 0.203314
C140  C     C_R   0.010939 0.954997 0.057330 0.198779
C141  C     C_R   0.493708 0.478873 0.519792 0.171052
C142  C     C_R   0.508899 0.542118 0.943661 0.200725
C143  C     C_R   0.505910 0.458893 0.446391 0.205765
C144  C     C_R   0.494767 0.524667 0.017154 0.179889
H65   H     H_    0.130528 0.935119 0.361777 0.160970
H66   H     H_    0.136521 0.931672 0.141646 0.163298
H67   H     H_    0.084333 0.025619 0.609975 0.184203
H68   H     H_    0.084205 0.020429 0.893752 0.187472
H69   H     H_    0.630414 0.435205 0.361933 0.159780
H70   H     H_    0.580766 0.478286 0.108355 0.183248
H71   H     H_    0.584426 0.525790 0.610105 0.186133
H72   H     H_    0.635026 0.565722 0.860143 0.160421
N1    N     N_R   0.884321 0.966670 0.559978 0.049551
O53   O     O_R   0.806955 0.920073 0.537979 -0.357183
O54   O     O_R   0.876888 0.987729 0.626952 -0.363014
N2    N     N_R   0.887132 0.959056 0.944249 0.048585
O55   O     O_R   0.878267 0.976668 0.876315 -0.357141
O56   O     O_R   0.809656 0.914163 0.969130 -0.376714
N3    N     N_R   0.905564 0.958667 0.396346 0.054999
O57   O     O_R   0.907878 0.001181 0.341561 -0.319928
O58   O     O_R   0.825579 0.908887 0.396198 -0.341338
N4    N     N_R   0.912358 0.959766 0.107586 0.053737
O59   O     O_R   0.838492 0.907827 0.117093 -0.340056
O60   O     O_R   0.915358 0.008837 0.156288 -0.323312
N5    N     N_R   0.384371 0.466815 0.560225 0.048716
O61   O     O_R   0.307048 0.420141 0.538349 -0.356909
O62   O     O_R   0.376988 0.487982 0.627167 -0.350640
N6    N     N_R   0.409685 0.537160 0.893296 0.055198
O63   O     O_R   0.341860 0.590711 0.879465 -0.341221
O64   O     O_R   0.406420 0.484605 0.848725 -0.342200
N7    N     N_R   0.405465 0.458702 0.396548 0.053358
O65   O     O_R   0.407880 0.501004 0.341588 -0.338861
O66   O     O_R   0.325194 0.409080 0.396671 -0.344830
N8    N     N_R   0.384068 0.538178 0.055584 0.047019
O67   O     O_R   0.375270 0.521845 0.123823 -0.347903
O68   O     O_R   0.306395 0.582200 0.029392 -0.377035

loop_
_geom_bond_atom_site_label_1
_geom_bond_atom_site_label_2
_geom_bond_distance
_ccdc_geom_bond_type
O46   Cr11  1.975818 S    
C64   H32   1.102281 S    
C103  H63   1.082779 S    
O26   C10   1.290932 A    
Cr7   O51   2.004896 S    
C137  N1    1.436805 S    
O6    Cr3   2.090206 S    
C51   H19   1.107777 S    
O9    Cr1   1.950281 S    
O31   C15   1.274474 A    
N2    O55   1.302727 A    
C27   C51   1.547372 S    
C122  C124  1.393426 A    
C25   C49   1.540764 S    
O46   C22   1.284993 A    
C89   C115  1.420919 A    
O3    Cr2   2.083129 S    
O48   Cr12  1.984926 S    
C126  C128  1.393829 A    
C102  C110  1.383256 A    
Cr5   O49   2.004896 S    
N3    O58   1.297481 A    
C23   C81   1.438520 S    
C121  C129  1.408719 A    
C141  N5    1.436863 S    
C33   H1    1.097140 S    
O15   C7    1.278236 A    
C63   C71   1.537238 S    
C9    O33   1.264970 A    
O38   Cr11  2.112861 S    
C25   H9    1.095964 S    
C129  H67   1.080878 S    
C130  H68   1.080359 S    
C129  C137  1.400247 A    
C98   H58   1.081438 S    
C105  H49   1.076094 S    
C95   C117  1.400274 A    
C42   C66   1.535314 S    
C4    O20   1.291358 A    
C31   H15   1.104339 S    
C5    O21   1.265174 A    
C109  H53   1.076073 S    
C36   C44   1.534081 S    
C7    O23   1.290211 A    
C8    O24   1.262772 A    
C70   H38   1.091420 S    
C40   C48   1.527466 S    
O12   C4    1.271261 A    
O13   C5    1.302038 A    
C58   C82   1.536757 S    
C118  C120  1.413680 A    
C28   H12   1.110358 S    
C45   C69   1.515084 S    
N6    O63   1.298406 A    
C62   H30   1.101239 S    
C127  C135  1.409856 A    
C128  C136  1.410631 A    
C117  C119  1.414534 A    
C142  C144  1.407111 A    
O28   C12   1.298316 A    
C104  H64   1.081023 S    
C97   H57   1.081586 S    
C50   C58   1.550444 S    
C91   C113  1.400394 A    
C124  C132  1.407187 A    
O4    C20   1.290009 A    
C125  C133  1.408683 A    
O32   C16   1.287542 A    
C54   H22   1.109719 S    
C98   C116  1.413066 A    
Cr12  O52   2.006359 S    
C26   C34   1.538810 S    
O11   Cr2   1.951941 S    
O2    C18   1.310831 A    
C68   H36   1.106565 S    
O27   Cr6   1.985221 S    
C69   H37   1.108366 S    
C34   H2    1.108251 S    
O47   Cr12  1.976755 S    
C97   C105  1.393657 A    
O31   Cr8   1.985221 S    
O25   C9    1.280410 A    
Cr8   O52   1.998812 S    
C111  H55   1.077843 S    
C57   C81   1.527907 S    
O10   C2    1.297539 A    
C78   H46   1.108306 S    
C79   C87   1.519101 S    
C61   H29   1.095946 S    
C26   H10   1.087184 S    
C59   H27   1.110952 S    
C142  N6    1.433497 S    
C49   C57   1.533372 S    
C46   C54   1.529644 S    
C72   H40   1.102154 S    
C133  H71   1.080931 S    
C52   H20   1.110307 S    
C53   H21   1.097257 S    
O34   Cr9   2.112861 S    
O41   C17   1.267927 A    
C20   C86   1.444753 S    
C56   H24   1.100118 S    
O43   Cr10  1.976755 S    
C100  H60   1.080469 S    
C38   C78   1.537432 S    
C26   C82   1.531618 S    
C28   C52   1.545970 S    
C29   C53   1.542763 S    
C138  N2    1.435161 S    
O8    Cr4   2.092749 S    
C44   C52   1.532194 S    
C1    C91   1.479917 S    
C33   C41   1.527367 S    
C47   C71   1.528083 S    
C48   C72   1.533917 S    
O13   Cr3   1.950281 S    
O1    C17   1.271410 A    
C132  C140  1.386439 A    
O27   C11   1.274476 A    
C133  C141  1.400192 A    
C101  C119  1.412527 A    
C132  H66   1.084830 S    
C19   C85   1.438502 S    
C80   C88   1.526881 S    
C139  N3    1.434843 S    
C7    C93   1.478920 S    
C29   H13   1.108218 S    
C97   C115  1.412517 A    
C31   C39   1.542838 S    
N8    O68   1.297308 A    
C36   H4    1.108551 S    
C107  H51   1.077860 S    
C75   H43   1.105637 S    
C39   C47   1.538836 S    
C77   C85   1.527929 S    
C40   H8    1.108742 S    
C28   C36   1.548928 S    
C29   C37   1.539430 S    
C90   C116  1.417815 A    
C75   C83   1.519104 S    
C65   H33   1.107614 S    
C71   C79   1.541552 S    
C110  C112  1.389575 A    
N5    O61   1.296569 A    
C62   C86   1.528025 S    
C137  C139  1.414135 A    
C106  C108  1.382872 A    
C63   C87   1.537903 S    
C32   C88   1.533506 S    
C101  H61   1.081562 S    
C112  H56   1.076675 S    
Cr1   O49   1.997022 S    
O2    Cr1   2.090206 S    
C138  C140  1.409170 A    
C10   O34   1.264638 A    
O22   Cr7   2.070571 S    
Cr3   O51   1.997022 S    
N6    O64   1.301274 A    
C93   C119  1.421012 A    
C130  C138  1.397291 A    
C11   C43   1.442188 S    
C67   C75   1.541537 S    
C34   C42   1.527578 S    
C6    O22   1.291414 A    
C21   C83   1.440438 S    
O16   Cr4   1.943415 S    
C74   C82   1.528282 S    
C38   C46   1.531866 S    
C31   C87   1.529216 S    
C15   C47   1.442125 S    
O7    Cr4   2.083129 S    
C60   C84   1.516857 S    
C99   C107  1.383372 A    
C61   C85   1.532797 S    
O14   C6    1.275825 A    
N2    O56   1.296795 A    
C4    C90   1.471068 S    
C64   C72   1.538666 S    
C46   C70   1.510112 S    
O25   Cr5   1.979075 S    
C16   C48   1.452992 S    
C58   C66   1.539920 S    
C8    C94   1.473242 S    
C113  C115  1.414532 A    
C41   C65   1.534745 S    
O30   C14   1.263865 A    
C51   C59   1.547565 S    
C73   H41   1.108216 S    
C126  C134  1.411553 A    
C24   C82   1.477384 S    
C2    C92   1.477438 S    
C27   C35   1.542835 S    
Cr9   O49   2.006493 S    
Cr11  O51   2.006493 S    
O12   Cr2   1.943415 S    
C2    O18   1.269429 A    
O19   Cr6   2.077156 S    
C102  C120  1.410159 A    
C30   C86   1.533729 S    
C34   C74   1.536442 S    
O23   Cr8   2.077156 S    
C32   C56   1.548586 S    
C44   C68   1.528507 S    
O11   C3    1.278180 A    
C57   C65   1.537999 S    
C76   H44   1.110235 S    
C47   C55   1.524072 S    
C48   C56   1.520279 S    
O26   Cr5   1.986803 S    
O10   Cr1   1.951459 S    
O30   Cr7   1.986803 S    
C37   H5    1.107612 S    
O24   Cr8   2.075422 S    
C39   H7    1.110743 S    
N4    O59   1.297543 A    
O33   Cr9   2.102928 S    
O5    C21   1.271436 A    
C123  C131  1.409919 A    
C91   C121  1.422902 A    
C101  C109  1.393726 A    
C89   C123  1.400962 A    
C35   C75   1.542669 S    
C33   C73   1.542729 S    
C93   C127  1.401101 A    
C100  C114  1.410563 A    
C36   C76   1.547229 S    
C79   H47   1.105665 S    
O15   Cr4   1.951941 S    
C15   O39   1.270445 A    
C37   C77   1.537988 S    
C136  C144  1.396158 A    
C27   C83   1.529240 S    
C40   C80   1.536468 S    
C25   C81   1.532794 S    
C32   H16   1.088404 S    
O40   Cr12  2.105395 S    
O8    C24   1.311302 A    
C94   C120  1.401317 A    
C99   H59   1.082764 S    
O45   Cr11  1.984748 S    
O42   Cr9   1.975818 S    
C141  C143  1.414243 A    
C67   H35   1.104894 S    
Cr10  O50   2.006359 S    
C12   C44   1.449549 S    
C103  C111  1.383307 A    
C63   H31   1.110953 S    
O5    Cr3   2.092663 S    
N7    O65   1.301573 A    
C54   C62   1.545622 S    
C100  C108  1.386946 A    
N3    O57   1.301583 A    
O21   Cr7   2.077899 S    
C134  H72   1.084398 S    
C14   O38   1.281671 A    
C38   H6    1.108682 S    
N1    O54   1.302721 A    
C144  N8    1.436317 S    
C78   C86   1.531038 S    
O6    C22   1.301167 A    
C70   C78   1.540984 S    
C43   C51   1.524102 S    
C66   H34   1.104630 S    
C41   C49   1.515094 S    
C52   C60   1.538303 S    
C35   H3    1.110741 S    
C17   C87   1.440411 S    
C53   C61   1.543381 S    
C18   C88   1.472961 S    
O37   Cr11  2.102928 S    
O1    Cr1   2.092663 S    
O14   Cr3   1.951459 S    
C62   C70   1.530461 S    
C143  N7    1.434897 S    
C56   C64   1.549287 S    
C92   C114  1.413045 A    
C11   O35   1.270471 A    
C50   H18   1.100693 S    
C59   C83   1.537893 S    
C27   H11   1.104367 S    
C131  H65   1.084638 S    
C77   H45   1.095759 S    
C131  C139  1.391043 A    
C26   C50   1.548758 S    
O44   C20   1.296700 A    
C109  C111  1.391212 A    
C73   C81   1.517452 S    
C68   C76   1.536711 S    
O39   Cr12  2.113252 S    
C69   C77   1.533391 S    
C90   C124  1.393743 A    
C72   C80   1.532796 S    
C30   H14   1.108130 S    
C3    C89   1.478822 S    
C94   C128  1.423956 A    
C60   C68   1.541133 S    
C104  C112  1.391969 A    
C61   C69   1.540776 S    
C80   H48   1.094828 S    
O29   Cr7   1.979075 S    
C59   C67   1.537225 S    
C64   C88   1.534597 S    
O17   Cr5   2.077899 S    
C49   H17   1.108367 S    
O7    C23   1.275517 A    
C134  C142  1.389822 A    
C9    C41   1.434177 S    
O44   Cr10  1.984926 S    
O42   C18   1.311514 A    
C108  H52   1.079720 S    
C13   C45   1.434136 S    
C66   C74   1.533529 S    
C104  C118  1.413960 A    
O32   Cr8   1.985793 S    
O20   Cr6   2.075422 S    
Cr4   O52   2.003225 S    
O4    Cr2   2.092749 S    
O43   C19   1.265226 A    
C28   C84   1.537012 S    
C71   H39   1.104929 S    
C29   C85   1.517462 S    
O16   C8    1.299643 A    
C96   C126  1.402340 A    
C39   C79   1.542666 S    
C121  C123  1.394473 A    
O18   Cr5   2.070571 S    
C6    C96   1.474590 S    
C106  H50   1.075542 S    
C125  C127  1.394375 A    
N1    O53   1.296569 A    
C135  H69   1.084586 S    
C110  H54   1.079083 S    
C25   C33   1.543377 S    
C55   H23   1.107768 S    
C136  H70   1.080669 S    
C45   C53   1.527402 S    
C31   C55   1.547367 S    
C102  H62   1.082282 S    
Cr2   O50   2.003225 S    
O36   Cr10  2.105395 S    
N7    O66   1.297405 A    
O35   Cr10  2.113252 S    
O9    C1    1.302063 A    
C43   C67   1.528091 S    
C114  C116  1.413292 A    
O41   Cr9   1.984748 S    
C140  N4    1.433298 S    
C58   H26   1.103727 S    
C3    O19   1.290219 A    
C10   C42   1.457340 S    
C35   C43   1.538842 S    
O45   C21   1.267943 A    
C65   C73   1.539417 S    
C16   O40   1.262460 A    
N8    O67   1.302543 A    
C103  C117  1.406602 A    
C14   C46   1.437643 S    
O3    C19   1.275490 A    
C60   H28   1.097082 S    
O47   C23   1.265211 A    
C1    O17   1.265196 A    
C22   C84   1.441894 S    
C12   O36   1.299101 A    
C105  C107  1.391236 A    
C98   C106  1.385214 A    
C5    C95   1.479760 S    
C32   C40   1.538797 S    
C95   C125  1.422742 A    
C92   C122  1.427428 A    
N5    O62   1.302750 A    
O28   Cr6   1.985793 S    
Cr6   O50   1.998812 S    
C135  C143  1.391134 A    
C55   C63   1.547565 S    
C30   C54   1.549608 S    
C42   C50   1.521714 S    
N4    O60   1.301394 A    
O48   C24   1.317617 A    
C13   O37   1.264981 A    
C74   H42   1.095061 S    
C57   H25   1.095691 S    
C76   C84   1.523103 S    
C99   C113  1.406629 A    
O29   C13   1.280377 A    
C37   C45   1.534747 S    
C122  C130  1.410612 A    
C30   C38   1.545778 S    
C96   C118  1.423904 A    
