data_mof_unit_621.cif
_audit_creation_date              2012-10-26T19:52:58-0400
_audit_creation_method            fapswitch 2.2
_symmetry_space_group_name_H-M    P1
_symmetry_Int_Tables_number       1
_space_group_crystal_system       triclinic
_cell_length_a                    10.953841
_cell_length_b                    9.093147
_cell_length_c                    7.786153
_cell_angle_alpha                 89.994335
_cell_angle_beta                  90.213165
_cell_angle_gamma                 89.99345
_cell_volume                      775.533509036

loop_
_atom_site_label
_atom_site_type_symbol
_atom_type_description
_atom_site_fract_x
_atom_site_fract_y
_atom_site_fract_z
_atom_type_partial_charge
C1    C     C_R   0.499904 0.220025 0.499974 0.549386
C2    C     C_1   0.499956 0.934628 0.499941 -0.056967
C3    C     C_3   0.885191 0.672245 0.246665 -0.245315
C4    C     C_3   0.972558 0.802440 0.228884 -0.449988
C5    C     C_3   0.100771 0.440153 0.186783 -0.237101
C6    C     C_3   0.129231 0.276254 0.205171 -0.415446
C7    C     C_R   0.500010 0.779979 0.499964 0.547003
C8    C     C_R   0.264401 0.500650 0.498991 0.541490
C9    C     C_R   0.735135 0.504486 0.500026 0.539522
C10   C     C_2   0.934071 0.557008 0.371803 -0.005582
C11   C     C_2   0.061259 0.507718 0.356760 0.003991
C12   C     C_2   0.866789 0.497016 0.498209 -0.115064
C13   C     C_2   0.133115 0.521929 0.497416 -0.113119
C14   C     C_1   0.499910 0.065373 0.499956 -0.057585
Cu1   Cu    Cu3+1 0.500000 0.500000 0.669080 1.006409
Cu2   Cu    Cu3+1 0.500000 0.500000 0.330920 0.994061
H1    H     H_    0.908809 0.425518 0.593540 0.082329
H2    H     H_    0.154021 0.230321 0.077847 0.138655
H3    H     H_    0.025907 0.449355 0.090856 0.132087
H4    H     H_    0.178715 0.500513 0.129987 0.176062
H5    H     H_    0.094219 0.563581 0.616231 0.083156
H6    H     H_    0.991653 0.851654 0.356799 0.152974
H7    H     H_    0.059746 0.767217 0.169318 0.156501
H8    H     H_    0.930530 0.887739 0.145419 0.138954
H9    H     H_    0.870073 0.621666 0.118583 0.150882
H10   H     H_    0.796861 0.718498 0.290416 0.169290
H11   H     H_    0.206531 0.257089 0.294756 0.170330
H12   H     H_    0.047696 0.216716 0.253445 0.141311
N1    N     N_1   0.500000 0.500000 0.076820 -0.089350
N2    N     N_1   0.500000 0.500000 0.923180 -0.086093
O1    O     O_R   0.500000 0.288390 0.642760 -0.493400
O2    O     O_R   0.500000 0.711610 0.642760 -0.494929
O3    O     O_R   0.500000 0.288370 0.357190 -0.496665
O4    O     O_R   0.500000 0.711630 0.357190 -0.501787
O5    O     O_R   0.321940 0.500000 0.642750 -0.506078
O6    O     O_R   0.678060 0.500000 0.642750 -0.501270
O7    O     O_R   0.321930 0.500000 0.357180 -0.506134
O8    O     O_R   0.678070 0.500000 0.357180 -0.502520

loop_
_geom_bond_atom_site_label_1
_geom_bond_atom_site_label_2
_ccdc_geom_bond_type
C12   H1    S    
C9    O6    A    
Cu1   O1    S    
C8    C13   S    
C5    H3    S    
Cu2   O3    S    
C1    C14   S    
C4    H6    S    
C2    C7    S    
C6    H11   S    
C3    H9    S    
Cu2   O7    S    
C1    O3    A    
Cu1   O2    S    
C3    C10   S    
C11   C13   D    
N1    N2    T    
C10   C12   D    
C2    C14   T    
Cu1   O5    S    
C9    O8    A    
C9    C12   S    
C5    C11   S    
C5    C6    S    
C4    H8    S    
C7    O4    A    
C6    H2    S    
C8    O7    A    
C13   H5    S    
Cu1   Cu2   S    
Cu1   O6    S    
C1    O1    A    
Cu1   N2    S    
C10   C11   S    
C5    H4    S    
C4    H7    S    
C7    O2    A    
Cu2   O4    S    
Cu2   N1    S    
C3    H10   S    
C6    H12   S    
C3    C4    S    
Cu2   O8    S    
C8    O5    A    
