data_mof_unit_1885.cif
_audit_creation_date              2012-12-11T16:53:23-0500
_audit_creation_method            fapswitch 2.2
_symmetry_space_group_name_H-M    P1
_symmetry_Int_Tables_number       1
_space_group_crystal_system       triclinic
_cell_length_a                    14.960622
_cell_length_b                    14.735356
_cell_length_c                    16.995128
_cell_angle_alpha                 108.736824
_cell_angle_beta                  106.159737
_cell_angle_gamma                 108.474588
_cell_volume                      3048.99045603

loop_
_atom_site_label
_atom_site_type_symbol
_atom_type_description
_atom_site_fract_x
_atom_site_fract_y
_atom_site_fract_z
_atom_type_partial_charge
C1    C     C_R   0.087244 0.281506 0.069168 -0.097560
C2    C     C_R   0.065370 0.480375 0.252484 -0.139774
C3    C     C_R   0.227765 0.799388 0.188133 0.520249
C4    C     C_R   0.936858 0.452860 0.734984 -0.084501
C5    C     C_R   0.744931 0.471237 0.054191 -0.110763
C6    C     C_R   0.251002 0.807515 0.275915 -0.089412
C7    C     C_R   0.720483 0.549837 0.040295 0.073365
C8    C     C_R   0.975496 0.420035 0.255573 0.066583
C9    C     C_R   0.998598 0.806253 0.945997 0.043931
C10   C     C_R   0.506507 0.626328 0.015073 -0.069679
C11   C     C_R   0.465602 0.588079 0.069060 0.095463
C12   C     C_R   0.029504 0.464637 0.726193 0.114926
C13   C     C_R   0.528706 0.571195 0.135905 -0.155570
C14   C     C_R   0.622158 0.571814 0.135238 -0.178564
C15   C     C_R   0.651265 0.588790 0.067477 0.121856
C16   C     C_R   0.719835 0.215721 0.826197 -0.080238
C17   C     C_R   0.597674 0.626059 0.014102 -0.042536
C18   C     C_3   0.561213 0.598179 0.913681 0.191959
C19   C     C_3   0.460520 0.599361 0.914641 0.682577
C20   C     C_R   0.972030 0.380290 0.324250 0.113796
C21   C     C_R   0.042681 0.423315 0.640870 -0.001571
C22   C     C_R   0.148463 0.465809 0.561023 -0.193731
C23   C     C_R   0.661042 0.220518 0.750079 0.105776
C24   C     C_R   0.139824 0.475873 0.641812 -0.149069
C25   C     C_R   0.957822 0.344656 0.556156 0.372217
C26   C     C_R   0.963485 0.343392 0.474559 0.039775
C27   C     C_R   0.059209 0.407916 0.478758 0.126742
C28   C     C_R   0.299507 0.594186 0.001995 -0.072396
C29   C     C_R   0.063309 0.422784 0.403224 -0.238062
C30   C     C_R   0.878363 0.308283 0.316440 -0.202241
C31   C     C_R   0.874496 0.288079 0.390561 -0.127443
C32   C     C_R   0.550712 0.149652 0.685274 0.045905
C33   C     C_R   0.301573 0.905877 0.362492 0.132371
C34   C     C_R   0.356987 0.556784 0.048386 0.089812
C35   C     C_R   0.415387 0.096133 0.449386 -0.112449
C36   C     C_R   0.356977 0.005500 0.366480 -0.161197
C37   C     C_R   0.305105 0.899382 0.443861 -0.202615
C38   C     C_R   0.374508 0.987823 0.528079 0.138675
C39   C     C_R   0.430118 0.086147 0.530112 0.173337
C40   C     C_R   0.724782 0.312720 0.750135 -0.076501
C41   C     C_R   0.511839 0.168547 0.610331 -0.305340
C42   C     C_R   0.488529 0.056574 0.688241 0.547948
C43   C     C_R   0.398244 0.976734 0.609044 -0.373832
C44   C     C_R   0.075300 0.117409 0.143988 0.081009
C45   C     C_R   0.224379 0.703695 0.265910 -0.208093
C46   C     C_R   0.995402 0.099319 0.065246 0.071798
C47   C     C_R   0.905783 0.999627 0.019403 -0.193698
C48   C     C_R   0.892138 0.928155 0.058678 -0.146671
C49   C     C_R   0.967711 0.954630 0.143672 0.019311
C50   C     C_R   0.061861 0.045697 0.181673 0.003755
C51   C     C_3   0.119855 0.134013 0.277492 0.425384
C52   C     C_R   0.294334 0.494344 0.075831 -0.096908
C53   C     C_3   0.134828 0.212662 0.236417 -0.657904
C54   C     C_R   0.110095 0.534459 0.813074 -0.110793
C55   C     C_R   0.914663 0.196859 0.991534 -0.122791
C56   C     C_R   0.757631 0.571239 0.979652 -0.024382
C57   C     C_R   0.000177 0.185017 0.036557 0.060013
C58   C     C_R   0.893035 0.395914 0.177113 -0.143573
C59   C     C_R   0.082901 0.795813 0.994017 -0.026246
C60   C     C_R   0.913424 0.714101 0.922741 -0.165023
Cl1   Cl    Cl    0.444193 0.706378 0.894986 -0.725148
Cl2   Cl    Cl    0.347547 0.472334 0.841798 -0.607717
Cl3   Cl    Cl    0.847540 0.247384 0.551385 -0.693477
H1    H     H_    0.165015 0.305983 0.117352 0.101384
H2    H     H_    0.609048 0.662254 0.900829 0.067533
H3    H     H_    0.858600 0.409019 0.681962 0.156422
H4    H     H_    0.136981 0.476947 0.410723 0.115605
H5    H     H_    0.807115 0.271271 0.255050 0.128146
H6    H     H_    0.222877 0.512911 0.564247 0.150324
H7    H     H_    0.799869 0.236540 0.383703 0.184953
H8    H     H_    0.208459 0.532201 0.704718 0.192753
H9    H     H_    0.553225 0.241591 0.607983 0.142967
H10   H     H_    0.693847 0.163292 0.855491 0.167656
H11   H     H_    0.459595 0.171031 0.450286 0.130164
H12   H     H_    0.754578 0.629983 0.955814 0.083606
H13   H     H_    0.353010 0.902335 0.608258 0.143492
H14   H     H_    0.363597 0.014551 0.307713 0.162947
H15   H     H_    0.262646 0.823637 0.442298 0.121892
H16   H     H_    0.843455 0.979679 0.956372 0.138851
H17   H     H_    0.820278 0.855193 0.025796 0.127327
H18   H     H_    0.070950 0.138498 0.315986 0.109589
H19   H     H_    0.092713 0.261869 0.249593 0.193383
H20   H     H_    0.328058 0.659619 0.985876 0.152976
H21   H     H_    0.216906 0.258692 0.249920 0.208955
H22   H     H_    0.702915 0.352184 0.709973 0.089089
H23   H     H_    0.813170 0.337960 0.150805 0.097496
H24   H     H_    0.318047 0.463747 0.123754 0.084954
H25   H     H_    0.192317 0.561709 0.832649 0.165801
H26   H     H_    0.833957 0.144447 0.969953 0.103913
H27   H     H_    0.232617 0.678110 0.319205 0.129445
H28   H     H_    0.206701 0.922704 0.198302 0.308562
H29   H     H_    0.533706 0.489142 0.797920 0.340163
H30   H     H_    0.465637 0.973836 0.756112 0.331999
H31   H     H_    0.251272 0.126590 0.287505 0.319273
H32   H     H_    0.161819 0.844472 0.007559 0.159971
H33   H     H_    0.835648 0.688274 0.873732 0.108322
H34   H     H_    0.144008 0.498198 0.293060 0.088525
H35   H     H_    0.727192 0.434779 0.097295 0.101624
H36   H     H_    0.501773 0.547534 0.182326 0.117146
H37   H     H_    0.664793 0.547686 0.180531 0.121535
N1    N     N_R   0.055640 0.348550 0.045600 -0.040145
N2    N     N_R   0.811290 0.303400 0.871650 -0.054779
N3    N     N_R   0.205180 0.552990 0.997660 -0.048841
N4    N     N_R   0.814810 0.361830 0.823710 -0.045076
N5    N     N_R   0.201660 0.494570 0.045600 -0.042256
N6    N     N_R   0.068420 0.560530 0.871650 -0.054428
N7    N     N_R   0.948050 0.295860 0.997660 -0.040714
N8    N     N_R   0.185190 0.638170 0.176290 -0.069584
N9    N     N_R   0.798340 0.505430 0.954400 -0.049577
N10   N     N_R   0.931580 0.439470 0.128350 -0.042589
N11   N     N_R   0.051950 0.704140 0.002340 -0.047235
N12   N     N_R   0.944360 0.651450 0.954400 -0.055010
N13   N     N_R   0.039170 0.492150 0.176290 -0.036964
N14   N     N_R   0.188710 0.696600 0.128350 -0.078500
N15   N     N_R   0.794820 0.447010 0.002340 -0.048086
N16   N     N_R   0.960830 0.507850 0.823710 -0.056744
Ni1   Ni    Ni4+2 0.119330 0.493420 0.109950 0.205902
Ni2   Ni    Ni4+2 0.880670 0.506580 0.890050 0.218218
Ni3   Ni    Ni4+2 0.872590 0.372590 0.000000 0.224681
Ni4   Ni    Ni4+2 0.127410 0.627410 0.000000 0.247812
O1    O     O_3   0.234187 0.879826 0.163195 -0.807380
O2    O     O_3   0.547833 0.495560 0.860555 -0.688119
O3    O     O_3   0.517882 0.042977 0.766456 -0.779697
O4    O     O_3   0.213262 0.135008 0.326794 -0.730694

loop_
_geom_bond_atom_site_label_1
_geom_bond_atom_site_label_2
_ccdc_geom_bond_type
N1    N7    A    
N12   Ni2   S    
C35   H11   S    
C6    C45   A    
C27   C29   A    
N11   N12   A    
C47   H16   S    
C3    C6    A    
C39   C41   A    
C20   C30   A    
C18   H2    S    
C26   C27   A    
C8    C20   S    
C53   H21   S    
C1    C57   A    
C36   H14   S    
C30   C31   A    
C2    N13   A    
C19   Cl2   S    
C23   C40   A    
C33   C36   A    
C18   C19   S    
C25   Cl3   S    
N8    N14   A    
C8    C58   A    
C29   H4    S    
C44   C53   S    
C31   H7    S    
C35   C36   A    
C2    H34   S    
N9    Ni2   S    
C59   N11   A    
C32   C41   A    
C4    C12   A    
C51   H18   S    
C22   H6    S    
C45   N8    A    
C7    C15   S    
C28   C34   A    
C26   C31   A    
C56   H12   S    
C12   C54   A    
C13   C14   A    
C5    N15   A    
C28   H20   S    
C51   O4    S    
N5    Ni1   S    
C59   H32   S    
C7    C56   A    
C58   H23   S    
N7    Ni3   S    
C44   C46   A    
C42   O3    S    
C50   C51   S    
N4    Ni2   S    
C20   C29   A    
C52   H24   S    
C54   N6    A    
C16   H10   S    
C5    C7    A    
C25   C26   A    
C12   C21   S    
C33   C37   A    
C55   N7    A    
C53   H19   S    
C9    C59   A    
C40   H22   S    
C13   H36   S    
C35   C39   A    
C37   C38   A    
C60   N12   A    
H29   O2    S    
C40   N4    A    
C47   C48   A    
C10   C19   S    
C17   C18   S    
N3    N5    A    
N2    N4    A    
C45   H27   S    
N10   N13   A    
C18   O2    S    
C41   H9    S    
N13   Ni1   S    
C60   H33   S    
C16   N2    A    
C48   C49   A    
C52   N5    A    
C16   C23   A    
N15   Ni3   S    
C22   C27   A    
C55   C57   A    
C46   C57   S    
C22   C24   A    
C42   C43   A    
C1    H1    S    
C1    N1    A    
C56   N9    A    
C44   C50   A    
C43   H13   S    
C15   C17   A    
C21   C25   A    
C46   C47   A    
N6    Ni4   S    
C58   N10   A    
N8    Ni1   S    
C4    N16   A    
C11   C34   S    
C2    C8    A    
H30   O3    S    
C3    N14   A    
N10   Ni3   S    
C14   H37   S    
C37   H15   S    
C34   C52   A    
C6    C33   S    
C9    C60   A    
N1    Ni1   S    
C23   C32   S    
C48   H17   S    
C38   C43   A    
C55   H26   S    
C54   H25   S    
C11   C13   A    
C28   N3    A    
C38   C39   A    
C19   Cl1   S    
N3    Ni4   S    
N16   Ni2   S    
C30   H5    S    
C10   C11   A    
N9    N15   A    
C5    H35   S    
C4    H3    S    
C49   C50   A    
H28   O1    S    
C21   C24   A    
N6    N16   A    
C32   C42   A    
C14   C15   A    
N11   Ni4   S    
C10   C17   A    
C51   C53   S    
N14   Ni4   S    
N2    Ni3   S    
C3    O1    S    
C24   H8    S    
H31   O4    S    
