data_mof_unit_3801.cif
_audit_creation_date              2012-12-10T19:42:52-0500
_audit_creation_method            fapswitch 2.2
_symmetry_space_group_name_H-M    P1
_symmetry_Int_Tables_number       1
_space_group_crystal_system       triclinic
_cell_length_a                    10.829867
_cell_length_b                    12.997373
_cell_length_c                    11.651827
_cell_angle_alpha                 99.848104
_cell_angle_beta                  93.879046
_cell_angle_gamma                 90.516618
_cell_volume                      1611.88589961

loop_
_atom_site_label
_atom_site_type_symbol
_atom_type_description
_atom_site_fract_x
_atom_site_fract_y
_atom_site_fract_z
_atom_type_partial_charge
C1    C     C_R   0.498310 0.299014 0.478609 0.801492
C2    C     C_R   0.501660 0.700986 0.521391 0.801588
C3    C     C_R   0.871676 0.494354 0.499840 -0.081498
C4    C     C_R   0.128325 0.505614 0.500158 -0.081472
C5    C     C_R   0.945299 0.462708 0.592119 0.001203
C6    C     C_R   0.054701 0.537243 0.407874 0.001097
C7    C     C_R   0.501721 0.814368 0.533801 -0.051240
C8    C     C_R   0.498179 0.185630 0.466194 -0.051231
C9    C     C_R   0.502405 0.015180 0.344464 -0.224735
C10   C     C_R   0.497438 0.984817 0.655527 -0.224719
C11   C     C_R   0.500788 0.123290 0.355412 -0.198669
C12   C     C_R   0.499102 0.876709 0.644582 -0.198681
C13   C     C_R   0.496252 0.139233 0.565970 -0.284786
C14   C     C_R   0.503581 0.860765 0.434019 -0.284728
C15   C     C_R   0.498332 0.031250 0.555808 0.179691
C16   C     C_R   0.501496 0.968747 0.444182 0.179659
C17   C     C_R   0.385036 0.400210 0.021205 -0.353894
C18   C     C_R   0.614987 0.599773 0.978793 -0.353756
C19   C     C_R   0.395786 0.409972 0.143604 0.110641
C20   C     C_R   0.604232 0.590013 0.856394 0.110634
C21   C     C_R   0.549216 0.543464 0.157436 0.020679
C22   C     C_R   0.450788 0.456534 0.842564 0.020622
C23   C     C_R   0.262221 0.503173 0.500315 0.795953
C24   C     C_R   0.737779 0.496819 0.499684 0.795900
C25   C     C_R   0.541641 0.536339 0.034459 0.063286
C26   C     C_R   0.458373 0.463652 0.965540 0.063293
C27   C     C_R   0.230483 0.712544 0.243737 -0.119654
C28   C     C_R   0.769172 0.287503 0.756117 -0.119488
C29   C     C_R   0.178758 0.673565 0.334821 -0.097628
C30   C     C_R   0.820940 0.326502 0.665065 -0.097217
C31   C     C_R   0.107239 0.580595 0.311430 0.128060
C32   C     C_R   0.892755 0.419308 0.688540 0.127913
C33   C     C_R   0.086541 0.528419 0.195608 -0.165095
C34   C     C_R   0.913756 0.471276 0.804421 -0.165271
C35   C     C_R   0.138688 0.567615 0.104889 -0.142404
C36   C     C_R   0.861567 0.432059 0.895110 -0.142400
C37   C     C_R   0.211000 0.659349 0.128976 -0.106874
C38   C     C_R   0.788930 0.340509 0.870931 -0.106983
C39   C     C_R   0.926892 0.530080 0.408486 -0.243069
C40   C     C_R   0.073110 0.469881 0.591509 -0.243078
Cu1   Cu    Cu3+1 0.509250 0.507730 0.615930 0.939856
Cu2   Cu    Cu3+1 0.490750 0.492270 0.384070 0.939885
H1    H     H_    0.251850 0.689220 0.058709 0.122844
H2    H     H_    0.748039 0.310626 0.941172 0.122864
H3    H     H_    0.386894 0.400963 0.788657 0.114526
H4    H     H_    0.613106 0.599036 0.211343 0.114527
H5    H     H_    0.661270 0.639081 0.814287 0.122252
H6    H     H_    0.338754 0.360900 0.185711 0.122228
H7    H     H_    0.319740 0.343654 0.970678 0.134235
H8    H     H_    0.680289 0.656324 0.029320 0.134257
H9    H     H_    0.285728 0.783963 0.262071 0.121684
H10   H     H_    0.713684 0.216219 0.737713 0.121664
H11   H     H_    0.195145 0.715152 0.423484 0.103680
H12   H     H_    0.804326 0.285063 0.576358 0.103547
H13   H     H_    0.031711 0.456676 0.175949 0.121035
H14   H     H_    0.968848 0.542877 0.824159 0.121096
H15   H     H_    0.123901 0.526432 0.016002 0.128154
H16   H     H_    0.876584 0.473086 0.984044 0.128194
H17   H     H_    0.506752 0.813055 0.348308 0.147081
H18   H     H_    0.493051 0.186941 0.651677 0.147010
H19   H     H_    0.497763 0.842026 0.722670 0.154856
H20   H     H_    0.502160 0.157972 0.277327 0.154850
H21   H     H_    0.504586 0.968043 0.258391 0.130404
H22   H     H_    0.495256 0.031955 0.741600 0.130402
N1    N     N_R   0.523180 0.519350 0.790130 -0.175901
N2    N     N_R   0.476820 0.480650 0.209870 -0.175885
O1    O     O_R   0.506570 0.354460 0.582000 -0.587217
O2    O     O_R   0.493430 0.645540 0.418000 -0.587179
O3    O     O_R   0.490940 0.341410 0.386200 -0.595302
O4    O     O_R   0.509060 0.658590 0.613800 -0.595301
O5    O     O_R   0.327460 0.506540 0.597900 -0.592001
O6    O     O_R   0.672540 0.493460 0.402100 -0.591987
O7    O     O_R   0.311830 0.493480 0.402100 -0.573226
O8    O     O_R   0.688170 0.506520 0.597900 -0.573235
H23   H     H_    0.870216 0.556059 0.338943 0.151499
H24   H     H_    0.129792 0.443895 0.661043 0.151463

loop_
_geom_bond_atom_site_label_1
_geom_bond_atom_site_label_2
_ccdc_geom_bond_type
C33   H13   S    
C34   H14   S    
C8    C13   A    
C21   N2    A    
C27   C29   A    
C1    C8    S    
Cu1   Cu2   S    
C2    C7    S    
C11   H20   S    
Cu1   O1    S    
C13   H18   S    
C14   H17   S    
C30   H12   S    
C24   O6    A    
C17   C26   A    
C35   C37   A    
C9    C16   A    
C2    O2    A    
C10   C15   A    
C33   C35   A    
C15   C16   A    
C19   N2    A    
C17   C19   A    
Cu1   O8    S    
C7    C14   A    
C4    C40   A    
C31   C33   A    
C39   H23   S    
C34   C36   A    
Cu1   O5    S    
C5    C32   S    
C6    C31   S    
C3    C39   A    
Cu2   O2    S    
C3    C24   S    
C18   C25   A    
C23   O7    A    
C27   H9    S    
C7    C12   A    
C23   O5    A    
C20   N1    A    
C4    C6    A    
C17   H7    S    
C4    C23   S    
C19   H6    S    
Cu1   N1    S    
C25   C26   A    
Cu2   O3    S    
C1    O3    A    
C40   H24   S    
C32   C34   A    
C37   H1    S    
C22   N1    A    
C38   H2    S    
C28   C38   A    
Cu2   O6    S    
C9    C11   A    
C10   C12   A    
C13   C15   A    
C14   C16   A    
C18   H8    S    
C21   H4    S    
C21   C25   A    
Cu2   O7    S    
C9    H21   S    
C10   H22   S    
C3    C5    A    
C36   H16   S    
C35   H15   S    
C28   C30   A    
C29   C31   A    
C30   C32   A    
C12   H19   S    
C28   H10   S    
C24   O8    A    
C29   H11   S    
C27   C37   A    
C8    C11   A    
C36   C38   A    
C1    O1    A    
C18   C20   A    
C20   H5    S    
C22   H3    S    
C22   C26   A    
C5    C40   A    
Cu2   N2    S    
C6    C39   A    
C2    O4    A    
Cu1   O4    S    
