data_mof_unit_3396.cif
_audit_creation_date              2013-03-05T16:48:42-0500
_audit_creation_method            fapswitch 2.2
_symmetry_space_group_name_H-M    P1
_symmetry_Int_Tables_number       1
_space_group_crystal_system       triclinic
_cell_length_a                    27.15991
_cell_length_b                    8.928965
_cell_length_c                    8.101333
_cell_angle_alpha                 90.378146
_cell_angle_beta                  90.741926
_cell_angle_gamma                 89.641495
_cell_volume                      1964.40842367

loop_
_atom_site_label
_atom_site_type_symbol
_atom_site_description
_atom_site_fract_x
_atom_site_fract_y
_atom_site_fract_z
_atom_type_partial_charge
O1    O     O_R   0.500000 0.285350 0.636850 -0.612525
O2    O     O_R   0.500000 0.714650 0.363150 -0.615660
O3    O     O_R   0.500000 0.714650 0.636850 -0.615207
O4    O     O_R   0.500000 0.285350 0.363150 -0.615337
C1    C     C_R   0.499922 0.217975 0.499651 0.932670
C2    C     C_R   0.499895 0.782036 0.500340 0.932661
O5    O     O_R   0.428760 0.500000 0.636860 -0.606203
O6    O     O_R   0.571240 0.500000 0.363140 -0.623074
O7    O     O_R   0.571240 0.500000 0.636860 -0.625207
O8    O     O_R   0.428760 0.500000 0.363140 -0.610105
C3    C     C_R   0.405411 0.499613 0.499080 0.906511
C4    C     C_R   0.594867 0.499278 0.501365 0.923914
Zn1   Zn    Zn3+2 0.500000 0.500000 0.682780 0.988536
Zn2   Zn    Zn3+2 0.500000 0.500000 0.317220 0.986445
C5    C     C_R   0.181757 0.231255 0.455598 0.592042
C6    C     C_R   0.833062 0.517796 0.610629 0.592819
C7    C     C_R   0.187198 0.359348 0.714463 0.584982
C8    C     C_R   0.821885 0.275263 0.491184 0.586017
O9    O     O_2   0.203408 0.181332 0.316640 -0.541525
O10   O     O_2   0.815180 0.655609 0.645234 -0.567606
O11   O     O_2   0.215398 0.416862 0.837372 -0.568268
O12   O     O_2   0.791618 0.166543 0.435369 -0.571468
N1    N     N_R   0.208384 0.310404 0.571246 -0.318994
N2    N     N_R   0.803083 0.411078 0.540846 -0.320278
C9    C     C_R   0.267964 0.513216 0.531631 0.523176
C10   C     C_R   0.726398 0.430098 0.373177 0.501133
C11   C     C_R   0.295393 0.251534 0.513727 0.537441
C12   C     C_R   0.724389 0.476247 0.671276 0.495565
C13   C     C_R   0.316654 0.560377 0.509732 -0.355828
C14   C     C_R   0.675510 0.459732 0.363843 -0.361544
C15   C     C_R   0.343994 0.301704 0.499845 -0.330308
C16   C     C_R   0.673269 0.494940 0.660060 -0.352874
C17   C     C_R   0.257621 0.358038 0.536331 0.117000
C18   C     C_R   0.750903 0.439816 0.527782 0.129883
C19   C     C_R   0.107848 0.280091 0.610331 -0.059427
C20   C     C_R   0.902894 0.351230 0.584003 -0.062810
C21   C     C_R   0.131288 0.207330 0.478194 -0.055214
C22   C     C_R   0.882426 0.484614 0.646292 -0.038688
C23   C     C_R   0.136122 0.355551 0.730893 -0.029050
C24   C     C_R   0.872704 0.247837 0.500102 -0.040971
C25   C     C_R   0.103281 0.121851 0.366362 -0.129634
C26   C     C_R   0.911662 0.581986 0.740988 -0.133167
C27   C     C_R   0.112674 0.433018 0.858805 -0.125786
C28   C     C_R   0.893853 0.119770 0.428678 -0.119341
C29   C     C_R   0.354313 0.454677 0.498450 -0.114778
C30   C     C_R   0.648753 0.487549 0.507283 -0.144639
H1    H     H_    0.374120 0.221764 0.494550 0.152187
H2    H     H_    0.652541 0.512928 0.771691 0.178176
H3    H     H_    0.325402 0.678322 0.504316 0.144693
H4    H     H_    0.656621 0.457736 0.245460 0.173089
H5    H     H_    0.120546 0.063359 0.264597 0.187579
H6    H     H_    0.896596 0.685060 0.791084 0.185182
H7    H     H_    0.133697 0.489010 0.955282 0.191790
H8    H     H_    0.871296 0.037348 0.365239 0.190190
C31   C     C_R   0.975713 0.203674 0.513291 0.038371
C32   C     C_R   0.032995 0.383348 0.729571 0.039912
C33   C     C_R   0.982547 0.416669 0.706799 0.042972
C34   C     C_R   0.027689 0.196605 0.505065 0.039610
C35   C     C_R   0.953772 0.322841 0.602798 0.080630
C36   C     C_R   0.056021 0.284265 0.617024 0.079756
C37   C     C_R   0.944821 0.100220 0.430598 -0.218243
C38   C     C_R   0.061747 0.450475 0.855679 -0.220939
C39   C     C_R   0.960604 0.546043 0.775726 -0.214286
C40   C     C_R   0.052334 0.112780 0.382445 -0.211297
H9    H     H_    0.959284 0.001340 0.370413 0.145401
H10   H     H_    0.045414 0.516179 0.953411 0.147465
H11   H     H_    0.981463 0.626011 0.848215 0.144488
H12   H     H_    0.032659 0.048574 0.289772 0.144069
C41   C     C_1   0.499829 0.065204 0.499494 -0.197835
C42   C     C_1   0.499822 0.934824 0.500483 -0.195475
N3    N     N_1   0.500000 0.500000 0.073640 -0.033366
N4    N     N_1   0.500000 0.500000 0.926360 -0.033431
O13   O     O_3   0.284157 0.100108 0.520398 -0.602881
C43   C     C_3   0.307013 0.020063 0.390676 -0.249888
H13   H     H_    0.344578 0.983421 0.429065 0.139067
H14   H     H_    0.308341 0.084899 0.273642 0.187443
H15   H     H_    0.285246 0.918091 0.363139 0.202976
O14   O     O_3   0.748935 0.479239 0.822768 -0.610214
C44   C     C_3   0.737326 0.611260 0.912018 -0.164464
H16   H     H_    0.702869 0.596776 0.982236 0.135518
H17   H     H_    0.734410 0.711928 0.831753 0.170171
H18   H     H_    0.767357 0.632652 0.003064 0.220597
O15   O     O_3   0.229129 0.614989 0.538557 -0.610823
C45   C     C_3   0.237549 0.723686 0.663184 -0.213411
H19   H     H_    0.261323 0.814345 0.617753 0.189223
H20   H     H_    0.253909 0.675216 0.777891 0.189845
H21   H     H_    0.201697 0.775099 0.696355 0.194716
O16   O     O_3   0.753667 0.400432 0.232724 -0.603025
C46   C     C_3   0.732418 0.282242 0.139578 -0.150535
H22   H     H_    0.701806 0.323965 0.059996 0.151024
H23   H     H_    0.719209 0.189302 0.218376 0.166433
H24   H     H_    0.760926 0.234867 0.057087 0.212257

loop_
_geom_bond_atom_site_label_1
_geom_bond_atom_site_label_2
_geom_bond_distance
_ccdc_geom_bond_type
C31   C35   1.416392 A    
Zn2   N3    1.973323 S    
C45   H21   1.109361 S    
C20   C35   1.409825 A    
C13   H3    1.082337 S    
C11   C17   1.407363 A    
C5    O9    1.348715 S    
C7    N1    1.369562 A    
C43   H14   1.115260 S    
O1    C1    1.260344 A    
C40   H12   1.079651 S    
C19   C21   1.405922 A    
C45   H20   1.113782 S    
C22   C26   1.399654 A    
C33   C35   1.415763 A    
C34   C36   1.416876 A    
C32   C33   1.410300 A    
C7    C23   1.395947 A    
C8    C24   1.401295 A    
C5    C21   1.403106 A    
O7    Zn1   1.975033 S    
C27   H7    1.083383 S    
N1    C17   1.437953 S    
C43   H15   1.108585 S    
C1    C41   1.364104 S    
C8    N2    1.372734 A    
C46   H23   1.114243 S    
C12   O14   1.389247 S    
C24   C28   1.401432 A    
O3    Zn1   1.954796 S    
C6    O10   1.349131 S    
O3    C2    1.262441 A    
C5    N1    1.371260 A    
C14   H4    1.081878 S    
C12   C18   1.410506 A    
C6    N2    1.371577 A    
C15   H1    1.083507 S    
C21   C25   1.400811 A    
C16   H2    1.082007 S    
O2    C2    1.260366 A    
C10   C18   1.413147 A    
C33   C39   1.411701 A    
O13   C43   1.414942 S    
C9    C13   1.404151 A    
C39   H11   1.080076 S    
C43   H13   1.110673 S    
C38   H10   1.080534 S    
C11   C15   1.402716 A    
C12   C16   1.399219 A    
C45   H19   1.106479 S    
C4    C30   1.466803 S    
O8    Zn2   1.975035 S    
C44   H17   1.114701 S    
O14   C44   1.414850 S    
C23   C27   1.399982 A    
C34   C40   1.412877 A    
C7    O11   1.349170 S    
C32   C36   1.415055 A    
C13   C29   1.390845 A    
C19   C36   1.409607 A    
C19   C23   1.405707 A    
C28   H8    1.083319 S    
O5    C3    1.276600 A    
O15   C45   1.413334 S    
C20   C24   1.404770 A    
O6    C4    1.283450 A    
C46   H24   1.109317 S    
C10   C14   1.406739 A    
C32   C38   1.410649 A    
C3    C29   1.447017 S    
O1    Zn1   1.949976 S    
C2    C42   1.364229 S    
O6    Zn2   1.965572 S    
C8    O12   1.348024 S    
C16   C30   1.399193 A    
C14   C30   1.398572 A    
O4    C1    1.262395 A    
C44   H18   1.109199 S    
Zn1   N4    1.973323 S    
C28   C37   1.394064 A    
C20   C22   1.404690 A    
N3    N4    1.193164 T    
C31   C37   1.411737 A    
O4    Zn2   1.954797 S    
C41   C42   1.164232 T    
O2    Zn2   1.949975 S    
O7    C4    1.278620 A    
N2    C18   1.441328 S    
C9    C17   1.416350 A    
O8    C3    1.277950 A    
C44   H16   1.110128 S    
C37   H9    1.080035 S    
O5    Zn1   1.965575 S    
O16   C46   1.414927 S    
C10   O16   1.388815 S    
C15   C29   1.396217 A    
C31   C34   1.415097 A    
C6    C22   1.398184 A    
C9    O15   1.389344 S    
C25   C40   1.394410 A    
C46   H22   1.109573 S    
C11   O13   1.389502 S    
C26   C39   1.391164 A    
C25   H5    1.083331 S    
C27   C38   1.390877 A    
C26   H6    1.083435 S    
