data_mof_unit_1910.cif
_audit_creation_date              2013-03-05T16:10:15-0500
_audit_creation_method            fapswitch 2.2
_symmetry_space_group_name_H-M    P1
_symmetry_Int_Tables_number       1
_space_group_crystal_system       triclinic
_cell_length_a                    9.886373
_cell_length_b                    10.638899
_cell_length_c                    13.119276
_cell_angle_alpha                 89.939889
_cell_angle_beta                  72.699159
_cell_angle_gamma                 89.936983
_cell_volume                      1317.45488928

loop_
_atom_site_label
_atom_site_type_symbol
_atom_site_description
_atom_site_fract_x
_atom_site_fract_y
_atom_site_fract_z
_atom_type_partial_charge
O1    O     O_R   0.385370 0.683250 0.500010 -0.616435
O2    O     O_R   0.614700 0.683220 0.500010 -0.618851
C1    C     C_R   0.499817 0.739707 0.500333 0.880101
O3    O     O_R   0.328400 0.499990 0.653620 -0.563843
O4    O     O_R   0.557730 0.499960 0.653620 -0.608688
C2    C     C_R   0.425005 0.477034 0.700531 0.930959
Zn1   Zn    Zn3+2 0.346870 0.500020 0.500000 1.072328
Zn2   Zn    Zn3+2 0.653130 0.499980 0.500000 1.032452
O5    O     O_R   0.385300 0.316780 0.499990 -0.595413
O6    O     O_R   0.614630 0.316750 0.499990 -0.574977
O7    O     O_R   0.442270 0.500040 0.346380 -0.554561
O8    O     O_R   0.671600 0.500010 0.346380 -0.574340
C3    C     C_R   0.501309 0.260234 0.496644 0.923073
C4    C     C_R   0.576399 0.510413 0.296795 0.933569
C5    C     C_R   0.801385 0.487805 0.012562 -0.126334
H1    H     H_    0.844737 0.379554 0.822648 0.244297
H2    H     H_    0.911647 0.488002 0.966866 0.223333
C6    C     C_R   0.620265 0.518453 0.180357 -0.255302
C7    C     C_R   0.244958 0.394022 0.868077 0.262517
C8    C     C_R   0.212499 0.365239 0.977259 0.243859
C9    C     C_R   0.309968 0.394611 0.031781 -0.137602
C10   C     C_R   0.449114 0.429554 0.974594 0.019016
C11   C     C_R   0.490832 0.414941 0.863577 -0.026811
C12   C     C_R   0.552428 0.463213 0.024077 0.010702
C13   C     C_R   0.697499 0.452715 0.965907 0.009390
C14   C     C_R   0.736181 0.404750 0.862670 -0.160277
C15   C     C_R   0.633583 0.381669 0.812433 0.290986
C16   C     C_R   0.515490 0.512552 0.127587 0.220871
C17   C     C_R   0.764483 0.519321 0.119873 0.285972
C18   C     C_R   0.385712 0.427620 0.811033 -0.253326
H3    H     H_    0.281131 0.377563 0.116629 0.232595
C19   C     C_R   0.616039 0.933382 0.429435 -0.172995
H4    H     H_    0.703346 0.880925 0.377023 0.194003
C20   C     C_R   0.616675 0.062475 0.425507 0.284322
C21   C     C_R   0.501946 0.127659 0.494084 -0.078392
C22   C     C_R   0.385475 0.065353 0.561988 -0.150804
H5    H     H_    0.297007 0.116456 0.614403 0.205413
C23   C     C_R   0.384163 0.936462 0.563561 -0.144297
H6    H     H_    0.294644 0.887232 0.616566 0.168630
C24   C     C_R   0.500331 0.871916 0.498368 -0.072402
C25   C     C_R   0.951319 0.416437 0.439394 0.000174
H7    H     H_    0.915806 0.350314 0.390508 0.204736
C26   C     C_R   0.094193 0.415292 0.439644 0.384293
N1    N     N_R   0.142790 0.500030 0.500030 -0.104981
C27   C     C_R   0.047845 0.584075 0.560645 -0.034973
H8    H     H_    0.082701 0.651459 0.609180 0.164701
C28   C     C_R   0.904123 0.583690 0.560958 -0.056910
H9    H     H_    0.830652 0.650651 0.609922 0.156967
N2    N     N_R   0.857180 0.499940 0.500010 -0.102077
Br1   Br    Br    0.915011 0.573677 0.174963 -0.368369
Br2   Br    Br    0.769572 0.143084 0.320063 -0.390110
Br3   Br    Br    0.214600 0.291269 0.352273 -0.388439
N3    N     N_R   0.392990 0.592908 0.162145 0.220883
O9    O     O_R   0.277873 0.556715 0.233669 -0.348709
O10   O     O_R   0.391670 0.698153 0.111865 -0.325520
N4    N     N_R   0.138909 0.380152 0.814930 0.204898
O11   O     O_R   0.079500 0.479103 0.788542 -0.442669
O12   O     O_R   0.107612 0.269033 0.787273 -0.370469
Br4   Br    Br    0.042248 0.278585 0.052248 -0.338382
Br5   Br    Br    0.685695 0.262589 0.698076 -0.447779

loop_
_geom_bond_atom_site_label_1
_geom_bond_atom_site_label_2
_geom_bond_distance
_ccdc_geom_bond_type
C7    N4    1.429161 S    
O4    Zn2   1.954673 S    
C23   C24   1.391885 A    
C26   N1    1.378417 A    
C5    C17   1.386636 A    
C11   C15   1.415425 A    
C9    H3    1.078980 S    
C25   H7    1.079308 S    
C4    C6    1.461055 S    
C21   C22   1.396155 A    
Zn2   O8    1.968813 S    
C16   N3    1.440508 S    
C19   H4    1.084441 S    
C8    C9    1.396050 A    
N3    O10   1.300978 A    
O2    C1    1.283273 A    
C14   C15   1.386371 A    
C28   N2    1.368119 A    
C6    C17   1.410574 A    
O1    Zn1   1.986595 S    
Zn1   N1    2.017494 S    
N4    O11   1.300729 A    
C8    Br4   1.915057 S    
Zn1   O7    1.954674 S    
C25   C26   1.413519 A    
C20   Br2   1.921115 S    
O4    C2    1.296187 A    
O3    Zn1   1.968812 S    
C5    H2    1.076573 S    
C22   C23   1.371402 A    
C22   H5    1.084179 S    
C2    C18   1.480816 S    
N4    O12   1.301317 A    
C1    C24   1.406752 S    
C3    C21   1.410845 S    
C17   Br1   1.927159 S    
C27   C28   1.419680 A    
C15   Br5   1.914174 S    
H1    C14   1.078824 S    
C23   H6    1.084140 S    
O7    C4    1.296487 A    
C10   C12   1.410183 A    
C26   Br3   1.913123 S    
C5    C13   1.394311 A    
C11   C18   1.413871 A    
C27   H8    1.081729 S    
C19   C24   1.392536 A    
C6    C16   1.408171 A    
C12   C13   1.414453 A    
C12   C16   1.399690 A    
O3    C2    1.303597 A    
C20   C21   1.403390 A    
C25   N2    1.359145 A    
Zn1   O5    1.985732 S    
O5    C3    1.283673 A    
C10   C11   1.399501 A    
O1    C1    1.282717 A    
C13   C14   1.390678 A    
C9    C10   1.407185 A    
C7    C18   1.416113 A    
Zn2   N2    2.017353 S    
Zn2   O6    1.986597 S    
O2    Zn2   1.985732 S    
N1    C27   1.366981 A    
C7    C8    1.405128 A    
N3    O9    1.299627 A    
O8    C4    1.298096 A    
C28   H9    1.081694 S    
O6    C3    1.284290 A    
C19   C20   1.374272 A    
