data_mof_unit_1847.cif
_audit_creation_date              2012-12-10T16:54:57-0500
_audit_creation_method            fapswitch 2.2
_symmetry_space_group_name_H-M    P1
_symmetry_Int_Tables_number       1
_space_group_crystal_system       triclinic
_cell_length_a                    7.796961
_cell_length_b                    8.573124
_cell_length_c                    15.725517
_cell_angle_alpha                 90.969198
_cell_angle_beta                  86.246782
_cell_angle_gamma                 93.344737
_cell_volume                      1047.02967546

loop_
_atom_site_label
_atom_site_type_symbol
_atom_type_description
_atom_site_fract_x
_atom_site_fract_y
_atom_site_fract_z
_atom_type_partial_charge
C1    C     C_R   0.544575 0.793996 0.492945 0.931335
C2    C     C_3   0.387447 0.640697 0.052191 0.739555
C3    C     C_3   0.493513 0.503742 0.083282 0.026052
C4    C     C_3   0.422083 0.341293 0.051321 -0.441375
C5    C     C_3   0.430489 0.334510 0.952228 -0.248919
C6    C     C_1   0.491100 0.503033 0.174836 -0.011350
C7    C     C_1   0.507129 0.497109 0.825314 0.032239
C8    C     C_1   0.507208 0.498137 0.750038 -0.130844
C9    C     C_2   0.565992 0.957729 0.488691 -0.428905
C10   C     C_2   0.430339 0.043709 0.477691 -0.223329
C11   C     C_R   0.502430 0.499754 0.661432 0.897210
C12   C     C_R   0.454083 0.205533 0.496660 0.944158
C13   C     C_R   0.497509 0.500127 0.338582 0.878522
C14   C     C_3   0.385203 0.628877 0.952798 0.249710
C15   C     C_3   0.688677 0.529153 0.947566 0.241970
C16   C     C_3   0.683161 0.527063 0.046472 -0.462157
C17   C     C_1   0.492305 0.501775 0.250043 -0.143136
C18   C     C_3   0.502599 0.496988 0.917121 -0.050626
H1    H     H_    0.496244 0.248986 0.078201 0.261801
H2    H     H_    0.689585 0.007893 0.507357 0.220510
H3    H     H_    0.988289 0.588179 0.576447 0.207711
H4    H     H_    0.440169 0.741537 0.925830 0.191429
H5    H     H_    0.769971 0.433639 0.923163 0.184629
H6    H     H_    0.745968 0.635987 0.072439 0.239110
H7    H     H_    0.759047 0.429667 0.066826 0.192512
H8    H     H_    0.297534 0.309555 0.932354 0.145982
H9    H     H_    0.287543 0.314623 0.076662 0.168142
N1    N     N_2   0.950340 0.457950 0.477370 -0.143378
N2    N     N_2   0.049660 0.542050 0.522630 -0.211468
O1    O     O_R   0.389240 0.738570 0.505550 -0.627798
O2    O     O_R   0.678400 0.711630 0.491050 -0.617059
O3    O     O_R   0.355360 0.513470 0.630110 -0.598950
O4    O     O_R   0.644510 0.486530 0.615610 -0.622917
O5    O     O_R   0.321600 0.288370 0.508950 -0.571660
O6    O     O_R   0.610760 0.261430 0.494450 -0.607522
O7    O     O_R   0.355490 0.513470 0.384390 -0.664512
O8    O     O_R   0.644640 0.486530 0.369890 -0.624329
Zn1   Zn    Zn3+2 0.306930 0.517990 0.509680 0.986174
Zn2   Zn    Zn3+2 0.693070 0.482010 0.490320 0.992039
O9    O     O_3   0.471823 0.785315 0.072508 -0.761685
H10   H     H_    0.454385 0.802680 0.134983 0.360242
O10   O     O_3   0.217412 0.612900 0.923806 -0.698572
H11   H     H_    0.156734 0.518224 0.948657 0.339362
O11   O     O_3   0.218577 0.639782 0.091306 -0.731017
H12   H     H_    0.164540 0.532715 0.090076 0.306665
C19   C     C_2   0.269474 0.983787 0.438106 0.494102
H13   H     H_    0.273177 0.886965 0.392723 0.068624
O12   O     O_2   0.131959 0.041261 0.456074 -0.517374
C20   C     C_2   0.014697 0.424484 0.393556 0.755086
H14   H     H_    0.064170 0.518731 0.352058 -0.001733
O13   O     O_2   0.999488 0.291748 0.364895 -0.559281
O14   O     O_3   0.768822 0.668755 0.914186 -0.705443
H15   H     H_    0.722456 0.758485 0.946912 0.381780
C21   C     C_2   0.530556 0.200088 0.913989 0.450541
H16   H     H_    0.519560 0.169435 0.847247 0.067371
O15   O     O_2   0.623664 0.125860 0.955668 -0.549224

loop_
_geom_bond_atom_site_label_1
_geom_bond_atom_site_label_2
_ccdc_geom_bond_type
N2    Zn1   S    
C10   C19   S    
C15   C18   S    
O6    Zn2   S    
C11   O4    A    
O3    Zn1   S    
C9    C10   D    
C14   C18   S    
C9    H2    S    
C13   O8    A    
C13   C17   S    
C14   O10   S    
C7    C18   S    
C14   H4    S    
O7    Zn1   S    
C2    C3    S    
C7    C8    T    
O8    Zn2   S    
C19   H13   S    
C15   O14   S    
O11   H12   S    
C12   O6    A    
O4    Zn2   S    
C10   C12   S    
C8    C11   S    
C15   C16   S    
C15   H5    S    
O9    H10   S    
O2    Zn2   S    
C11   O3    A    
C21   O15   D    
C1    O1    A    
C2    C14   S    
C19   O12   D    
O10   H11   S    
C12   O5    A    
C5    H8    S    
C2    O9    S    
C5    C21   S    
C1    O2    A    
C4    H9    S    
C1    C9    S    
O14   H15   S    
O1    Zn1   S    
C13   O7    A    
C16   H6    S    
C20   H14   S    
N1    C20   S    
C3    C6    S    
C16   H7    S    
C6    C17   T    
C21   H16   S    
N1    N2    D    
C5    C18   S    
N1    Zn2   S    
O5    Zn1   S    
C4    H1    S    
H3    N2    S    
C3    C16   S    
C3    C4    S    
C2    O11   S    
C4    C5    S    
C20   O13   D    
