data_mof_unit_3960.cif
_audit_creation_date              2012-12-10T16:37:45-0500
_audit_creation_method            fapswitch 2.2
_symmetry_space_group_name_H-M    P1
_symmetry_Int_Tables_number       1
_space_group_crystal_system       triclinic
_cell_length_a                    27.997872
_cell_length_b                    18.591514
_cell_length_c                    17.10738
_cell_angle_alpha                 89.999956
_cell_angle_beta                  60.67006
_cell_angle_gamma                 90.000055
_cell_volume                      7763.30836094

loop_
_atom_site_label
_atom_site_type_symbol
_atom_type_description
_atom_site_fract_x
_atom_site_fract_y
_atom_site_fract_z
_atom_type_partial_charge
C1    C     C_R   0.706966 0.278696 0.672176 0.889423
C2    C     C_R   0.293034 0.721304 0.327824 0.889424
C3    C     C_R   0.293034 0.278696 0.327824 0.889422
C4    C     C_R   0.706966 0.721304 0.672176 0.889423
C5    C     C_R   0.206966 0.778696 0.672176 0.889424
C6    C     C_R   0.793034 0.221304 0.327823 0.889423
C7    C     C_R   0.793034 0.778696 0.327824 0.889423
C8    C     C_R   0.206966 0.221304 0.672176 0.889422
C9    C     C_R   0.916107 0.500000 0.455395 0.076687
C10   C     C_R   0.083896 0.500000 0.544593 0.076686
C11   C     C_R   0.416104 1.000000 0.455407 0.076686
C12   C     C_R   0.583893 1.000000 0.544605 0.076687
C13   C     C_R   0.076548 0.371327 0.561408 -0.157774
C14   C     C_R   0.923454 0.628673 0.438580 -0.157776
C15   C     C_R   0.923454 0.371327 0.438580 -0.157775
C16   C     C_R   0.076548 0.628673 0.561409 -0.157774
C17   C     C_R   0.576545 0.871326 0.561420 -0.157775
C18   C     C_R   0.423452 0.128673 0.438592 -0.157774
C19   C     C_R   0.423452 0.871327 0.438591 -0.157774
C20   C     C_R   0.576546 0.128673 0.561420 -0.157775
C21   C     C_R   0.722960 0.270526 0.951318 -0.011429
C22   C     C_R   0.277040 0.729474 0.048682 -0.011428
C23   C     C_R   0.277040 0.270526 0.048682 -0.011429
C24   C     C_R   0.722960 0.729474 0.951318 -0.011429
C25   C     C_R   0.222960 0.770526 0.951318 -0.011428
C26   C     C_R   0.777040 0.229474 0.048682 -0.011429
C27   C     C_R   0.777040 0.770526 0.048682 -0.011429
C28   C     C_R   0.222960 0.229474 0.951318 -0.011429
C29   C     C_R   0.778649 0.247551 0.903871 -0.028130
C30   C     C_R   0.221351 0.752450 0.096129 -0.028133
C31   C     C_R   0.221350 0.247554 0.096130 -0.028132
C32   C     C_R   0.778650 0.752447 0.903870 -0.028131
C33   C     C_R   0.278649 0.747550 0.903871 -0.028133
C34   C     C_R   0.721351 0.252449 0.096129 -0.028130
C35   C     C_R   0.721350 0.747553 0.096130 -0.028131
C36   C     C_R   0.278650 0.252446 0.903870 -0.028132
C37   C     C_R   0.806312 0.230465 0.953308 0.075240
C38   C     C_R   0.193688 0.769535 0.046692 0.075239
C39   C     C_R   0.193687 0.230468 0.046692 0.075239
C40   C     C_R   0.806313 0.769533 0.953308 0.075240
C41   C     C_R   0.306312 0.730465 0.953308 0.075239
C42   C     C_R   0.693688 0.269534 0.046692 0.075240
C43   C     C_R   0.693687 0.730467 0.046692 0.075240
C44   C     C_R   0.306313 0.269532 0.953308 0.075239
C45   C     C_R   0.640349 0.315690 0.949367 0.079014
C46   C     C_R   0.359650 0.684309 0.050633 0.079012
C47   C     C_R   0.359651 0.315689 0.050633 0.079014
C48   C     C_R   0.640349 0.684310 0.949367 0.079014
C49   C     C_R   0.140349 0.815691 0.949367 0.079013
C50   C     C_R   0.859651 0.184309 0.050633 0.079014
C51   C     C_R   0.859651 0.815690 0.050633 0.079014
C52   C     C_R   0.140349 0.184310 0.949367 0.079014
C53   C     C_R   0.615921 0.344480 0.899932 -0.143765
C54   C     C_R   0.384079 0.655519 0.100069 -0.143765
C55   C     C_R   0.384080 0.344479 0.100068 -0.143766
C56   C     C_R   0.615920 0.655520 0.899932 -0.143766
C57   C     C_R   0.115921 0.844480 0.899931 -0.143764
C58   C     C_R   0.884079 0.155520 0.100068 -0.143765
C59   C     C_R   0.884079 0.844479 0.100068 -0.143766
C60   C     C_R   0.115920 0.155521 0.899932 -0.143766
C61   C     C_R   0.638949 0.331186 0.809883 -0.267758
C62   C     C_R   0.361050 0.668813 0.190117 -0.267758
C63   C     C_R   0.361051 0.331186 0.190116 -0.267757
C64   C     C_R   0.638949 0.668814 0.809884 -0.267757
C65   C     C_R   0.138950 0.831187 0.809883 -0.267758
C66   C     C_R   0.861050 0.168814 0.190116 -0.267758
C67   C     C_R   0.861051 0.831186 0.190116 -0.267757
C68   C     C_R   0.138949 0.168814 0.809883 -0.267758
C69   C     C_R   0.689574 0.299639 0.764423 -0.089970
C70   C     C_R   0.310425 0.700361 0.235577 -0.089970
C71   C     C_R   0.310425 0.299640 0.235577 -0.089970
C72   C     C_R   0.689574 0.700361 0.764423 -0.089970
C73   C     C_R   0.189575 0.799639 0.764422 -0.089971
C74   C     C_R   0.810425 0.200361 0.235577 -0.089970
C75   C     C_R   0.810425 0.799639 0.235577 -0.089970
C76   C     C_R   0.189575 0.200360 0.764422 -0.089970
C77   C     C_R   0.721149 0.286713 0.809010 0.018146
C78   C     C_R   0.278851 0.713287 0.190990 0.018147
C79   C     C_R   0.278851 0.286714 0.190990 0.018144
C80   C     C_R   0.721149 0.713287 0.809010 0.018145
C81   C     C_R   0.221149 0.786712 0.809010 0.018147
C82   C     C_R   0.778851 0.213287 0.190990 0.018146
C83   C     C_R   0.778851 0.786713 0.190990 0.018145
C84   C     C_R   0.221149 0.213286 0.809010 0.018144
C85   C     C_R   0.692619 0.128782 0.529093 0.915773
C86   C     C_R   0.307381 0.871218 0.470908 0.915772
C87   C     C_R   0.307381 0.128782 0.470908 0.915772
C88   C     C_R   0.692619 0.871218 0.529093 0.915772
C89   C     C_R   0.192619 0.628782 0.529092 0.915772
C90   C     C_R   0.807381 0.371218 0.470907 0.915773
C91   C     C_R   0.807381 0.628782 0.470907 0.915772
C92   C     C_R   0.192619 0.371218 0.529092 0.915772
C93   C     C_R   0.695011 0.291009 0.903210 0.072295
C94   C     C_R   0.304989 0.708990 0.096790 0.072295
C95   C     C_R   0.304989 0.291009 0.096790 0.072296
C96   C     C_R   0.695011 0.708990 0.903210 0.072295
C97   C     C_R   0.195011 0.791009 0.903209 0.072295
C98   C     C_R   0.804989 0.208990 0.096790 0.072295
C99   C     C_R   0.804989 0.791009 0.096790 0.072296
C100  C     C_R   0.195011 0.208990 0.903210 0.072295
C101  C     C_R   0.610892 0.306507 0.042345 -0.176810
C102  C     C_R   0.389108 0.693492 0.957655 -0.176808
C103  C     C_R   0.389109 0.306504 0.957656 -0.176809
C104  C     C_R   0.610892 0.693495 0.042344 -0.176810
C105  C     C_R   0.110892 0.806507 0.042344 -0.176808
C106  C     C_R   0.889108 0.193493 0.957655 -0.176810
C107  C     C_R   0.889108 0.806505 0.957656 -0.176810
C108  C     C_R   0.110891 0.193496 0.042344 -0.176809
C109  C     C_R   0.636382 0.279645 0.088652 -0.136583
C110  C     C_R   0.363618 0.720354 0.911347 -0.136583
C111  C     C_R   0.363619 0.279640 0.911348 -0.136582
C112  C     C_R   0.636381 0.720358 0.088652 -0.136583
C113  C     C_R   0.136382 0.779646 0.088653 -0.136582
C114  C     C_R   0.863618 0.220355 0.911347 -0.136583
C115  C     C_R   0.863619 0.779642 0.911348 -0.136583
C116  C     C_R   0.136381 0.220360 0.088652 -0.136582
C117  C     C_R   0.776717 0.266870 0.763733 -0.191069
C118  C     C_R   0.223283 0.733131 0.236267 -0.191072
C119  C     C_R   0.223282 0.266874 0.236267 -0.191069
C120  C     C_R   0.776717 0.733127 0.763733 -0.191068
C121  C     C_R   0.276717 0.766869 0.763733 -0.191072
C122  C     C_R   0.723283 0.233130 0.236267 -0.191069
C123  C     C_R   0.723283 0.766872 0.236267 -0.191068
C124  C     C_R   0.276718 0.233126 0.763732 -0.191069
C125  C     C_R   0.803219 0.240826 0.808805 0.224101
C126  C     C_R   0.196781 0.759177 0.191194 0.224097
C127  C     C_R   0.196779 0.240831 0.191196 0.224104
C128  C     C_R   0.803220 0.759170 0.808805 0.224102
C129  C     C_R   0.303219 0.740823 0.808806 0.224097
C130  C     C_R   0.696781 0.259174 0.191194 0.224101
C131  C     C_R   0.696779 0.740829 0.191195 0.224102
C132  C     C_R   0.303221 0.259169 0.808804 0.224104
C133  C     C_R   0.071999 0.102554 0.936251 0.883783
C134  C     C_R   0.928001 0.897446 0.063749 0.883783
C135  C     C_R   0.928001 0.102553 0.063749 0.883784
C136  C     C_R   0.071999 0.897447 0.936251 0.883783
C137  C     C_R   0.571999 0.602554 0.936251 0.883783
C138  C     C_R   0.428001 0.397446 0.063749 0.883783
C139  C     C_R   0.428000 0.602553 0.063749 0.883783
C140  C     C_R   0.571999 0.397446 0.936251 0.883784
C141  C     C_R   0.537470 0.131079 0.532686 -0.043468
C142  C     C_R   0.462526 0.868920 0.467329 -0.043469
C143  C     C_R   0.462526 0.131079 0.467330 -0.043470
C144  C     C_R   0.537469 0.868920 0.532686 -0.043467
C145  C     C_R   0.037474 0.631079 0.532671 -0.043469
C146  C     C_R   0.962530 0.368921 0.467314 -0.043468
C147  C     C_R   0.962530 0.631079 0.467314 -0.043466
C148  C     C_R   0.037474 0.368921 0.532670 -0.043470
C149  C     C_R   0.518049 0.197054 0.517726 0.240925
C150  C     C_R   0.481946 0.802946 0.482290 0.240924
C151  C     C_R   0.481946 0.197054 0.482291 0.240927
C152  C     C_R   0.518049 0.802946 0.517726 0.240923
C153  C     C_R   0.018054 0.697054 0.517710 0.240924
C154  C     C_R   0.981951 0.302946 0.482274 0.240925
C155  C     C_R   0.981951 0.697054 0.482274 0.240923
C156  C     C_R   0.018054 0.302946 0.517709 0.240927
C157  C     C_R   0.480596 0.065721 0.485354 -0.015393
C158  C     C_R   0.519399 0.934279 0.514663 -0.015393
C159  C     C_R   0.519399 0.065721 0.514663 -0.015393
C160  C     C_R   0.480596 0.934279 0.485353 -0.015393
C161  C     C_R   0.980601 0.565721 0.485337 -0.015393
C162  C     C_R   0.019404 0.434279 0.514646 -0.015393
C163  C     C_R   0.019404 0.565721 0.514646 -0.015393
C164  C     C_R   0.980601 0.434279 0.485337 -0.015393
C165  C     C_R   0.960357 0.500000 0.472574 0.040573
C166  C     C_R   0.039648 0.500000 0.527409 0.040573
C167  C     C_R   0.460352 1.000000 0.472590 0.040573
C168  C     C_R   0.539643 1.000000 0.527425 0.040573
C169  C     C_R   0.893201 0.434848 0.448512 -0.009425
C170  C     C_R   0.106801 0.565152 0.551479 -0.009424
C171  C     C_R   0.106801 0.434848 0.551479 -0.009423
C172  C     C_R   0.893201 0.565152 0.448512 -0.009425
C173  C     C_R   0.393199 0.934848 0.448521 -0.009424
C174  C     C_R   0.606799 0.065152 0.551488 -0.009425
C175  C     C_R   0.606799 0.934848 0.551488 -0.009425
C176  C     C_R   0.393199 0.065152 0.448521 -0.009423
C177  C     C_R   0.838591 0.435934 0.461868 -0.183047
C178  C     C_R   0.161409 0.564066 0.538128 -0.183048
C179  C     C_R   0.161409 0.435934 0.538128 -0.183048
C180  C     C_R   0.838591 0.564066 0.461868 -0.183047
C181  C     C_R   0.338591 0.935934 0.461872 -0.183048
C182  C     C_R   0.661409 0.064066 0.538132 -0.183047
C183  C     C_R   0.661408 0.935934 0.538132 -0.183047
C184  C     C_R   0.338590 0.064066 0.461872 -0.183048
C185  C     C_R   0.809552 0.500000 0.485327 0.187081
C186  C     C_R   0.190449 0.500000 0.514670 0.187079
C187  C     C_R   0.309551 1.000000 0.485330 0.187079
C188  C     C_R   0.690448 0.000000 0.514672 0.187081
H1    H     H_    0.083954 0.323269 0.588662 0.209551
H2    H     H_    0.916046 0.676732 0.411329 0.209550
H3    H     H_    0.916047 0.323269 0.411328 0.209549
H4    H     H_    0.083954 0.676731 0.588664 0.209550
H5    H     H_    0.583953 0.823268 0.588671 0.209550
H6    H     H_    0.416046 0.176731 0.411338 0.209551
H7    H     H_    0.416046 0.823269 0.411336 0.209550
H8    H     H_    0.583953 0.176731 0.588672 0.209550
H9    H     H_    0.617638 0.347323 0.774142 0.206432
H10   H     H_    0.382361 0.652675 0.225858 0.206432
H11   H     H_    0.382362 0.347323 0.225858 0.206432
H12   H     H_    0.617638 0.652677 0.774142 0.206432
H13   H     H_    0.117639 0.847325 0.774142 0.206432
H14   H     H_    0.882362 0.152677 0.225858 0.206432
H15   H     H_    0.882362 0.847323 0.225857 0.206432
H16   H     H_    0.117638 0.152677 0.774142 0.206432
H17   H     H_    0.567030 0.315055 0.079105 0.160495
H18   H     H_    0.432970 0.684944 0.920895 0.160496
H19   H     H_    0.432970 0.315052 0.920896 0.160493
H20   H     H_    0.567030 0.684947 0.079104 0.160493
H21   H     H_    0.067030 0.815056 0.079104 0.160496
H22   H     H_    0.932970 0.184945 0.920895 0.160495
H23   H     H_    0.932970 0.815053 0.920896 0.160493
H24   H     H_    0.067029 0.184948 0.079104 0.160493
H25   H     H_    0.609628 0.263239 0.156640 0.193277
H26   H     H_    0.390373 0.736759 0.843359 0.193276
H27   H     H_    0.390374 0.263232 0.843362 0.193277
H28   H     H_    0.609627 0.736766 0.156639 0.193277
H29   H     H_    0.109627 0.763240 0.156641 0.193276
H30   H     H_    0.890372 0.236761 0.843360 0.193277
H31   H     H_    0.890373 0.763234 0.843361 0.193277
H32   H     H_    0.109626 0.236768 0.156638 0.193277
H33   H     H_    0.801102 0.269304 0.691801 0.211673
H34   H     H_    0.198897 0.730699 0.308199 0.211672
H35   H     H_    0.198897 0.269308 0.308200 0.211671
H36   H     H_    0.801102 0.730693 0.691801 0.211671
H37   H     H_    0.301103 0.769301 0.691801 0.211672
H38   H     H_    0.698898 0.230696 0.308199 0.211673
H39   H     H_    0.698898 0.769306 0.308199 0.211671
H40   H     H_    0.301102 0.230692 0.691800 0.211671
O1    O     O_R   0.746490 0.236330 0.638080 -0.635124
O2    O     O_R   0.253510 0.763670 0.361920 -0.635124
O3    O     O_R   0.253510 0.236330 0.361920 -0.635122
O4    O     O_R   0.746490 0.763670 0.638080 -0.635124
O5    O     O_R   0.246490 0.736330 0.638080 -0.635124
O6    O     O_R   0.753510 0.263670 0.361920 -0.635124
O7    O     O_R   0.753510 0.736330 0.361920 -0.635124
O8    O     O_R   0.246490 0.263670 0.638080 -0.635122
O9    O     O_R   0.674170 0.186160 0.516270 -0.650191
O10   O     O_R   0.325830 0.813840 0.483730 -0.650193
O11   O     O_R   0.325830 0.186160 0.483730 -0.650193
O12   O     O_R   0.674170 0.813840 0.516270 -0.650191
O13   O     O_R   0.174170 0.686160 0.516270 -0.650193
O14   O     O_R   0.825830 0.313840 0.483730 -0.650191
O15   O     O_R   0.825830 0.686160 0.483730 -0.650191
O16   O     O_R   0.174170 0.313840 0.516270 -0.650193
O17   O     O_R   0.739960 0.127620 0.525000 -0.565070
O18   O     O_R   0.260040 0.872380 0.475000 -0.565068
O19   O     O_R   0.260040 0.127620 0.475000 -0.565069
O20   O     O_R   0.739960 0.872380 0.525000 -0.565070
O21   O     O_R   0.239960 0.627620 0.525000 -0.565068
O22   O     O_R   0.760040 0.372380 0.475000 -0.565070
O23   O     O_R   0.760040 0.627620 0.475000 -0.565070
O24   O     O_R   0.239960 0.372380 0.525000 -0.565069
O25   O     O_R   0.680700 0.294870 0.629350 -0.607517
O26   O     O_R   0.319300 0.705130 0.370650 -0.607518
O27   O     O_R   0.319300 0.294870 0.370650 -0.607518
O28   O     O_R   0.680700 0.705130 0.629350 -0.607518
O29   O     O_R   0.180700 0.794870 0.629350 -0.607518
O30   O     O_R   0.819300 0.205130 0.370650 -0.607517
O31   O     O_R   0.819300 0.794870 0.370650 -0.607518
O32   O     O_R   0.180700 0.205130 0.629350 -0.607518
O33   O     O_R   0.062020 0.072840 0.007170 -0.606478
O34   O     O_R   0.937980 0.927160 0.992830 -0.606479
O35   O     O_R   0.937980 0.072840 0.992830 -0.606481
O36   O     O_R   0.062020 0.927160 0.007170 -0.606480
O37   O     O_R   0.562020 0.572840 0.007170 -0.606479
O38   O     O_R   0.437980 0.427160 0.992830 -0.606478
O39   O     O_R   0.437980 0.572840 0.992830 -0.606481
O40   O     O_R   0.562020 0.427160 0.007170 -0.606481
O41   O     O_R   0.947860 0.073950 0.109290 -0.608466
O42   O     O_R   0.052140 0.926050 0.890710 -0.608467
O43   O     O_R   0.052140 0.073950 0.890710 -0.608467
O44   O     O_R   0.947860 0.926050 0.109290 -0.608465
O45   O     O_R   0.447860 0.573950 0.109290 -0.608466
O46   O     O_R   0.552140 0.426050 0.890710 -0.608466
O47   O     O_R   0.552140 0.573950 0.890710 -0.608465
O48   O     O_R   0.447860 0.426050 0.109290 -0.608466
Zn1   Zn    Zn3+2 0.792340 0.208750 0.507670 1.090719
Zn2   Zn    Zn3+2 0.207660 0.791250 0.492330 1.090719
Zn3   Zn    Zn3+2 0.207660 0.208750 0.492330 1.090720
Zn4   Zn    Zn3+2 0.792340 0.791250 0.507670 1.090719
Zn5   Zn    Zn3+2 0.292340 0.708750 0.507670 1.090719
Zn6   Zn    Zn3+2 0.707660 0.291250 0.492330 1.090719
Zn7   Zn    Zn3+2 0.707660 0.708750 0.492330 1.090719
Zn8   Zn    Zn3+2 0.292340 0.291250 0.507670 1.090720
Zn9   Zn    Zn3+2 0.505960 0.500000 0.080520 1.040737
Zn10  Zn    Zn3+2 0.494040 0.500000 0.919480 1.040740
Zn11  Zn    Zn3+2 0.005960 0.000000 0.080520 1.040741
Zn12  Zn    Zn3+2 0.994040 0.000000 0.919480 1.040737
Br1   Br    Br    0.043069 0.212164 0.539837 -0.363467
Br2   Br    Br    0.956936 0.787836 0.460145 -0.363474
Br3   Br    Br    0.956935 0.212164 0.460146 -0.363470
Br4   Br    Br    0.043069 0.787836 0.539837 -0.363467
Br5   Br    Br    0.543064 0.712164 0.539855 -0.363474
Br6   Br    Br    0.456931 0.287835 0.460163 -0.363467
Br7   Br    Br    0.456931 0.712164 0.460163 -0.363467
Br8   Br    Br    0.543064 0.287836 0.539854 -0.363470
Br9   Br    Br    0.732314 0.500000 0.578392 -0.455346
Br10  Br    Br    0.267687 0.500000 0.421609 -0.455345
Br11  Br    Br    0.232313 1.000000 0.578391 -0.455345
Br12  Br    Br    0.767685 0.000000 0.421608 -0.455346
Br13  Br    Br    0.864761 0.179926 0.733344 -0.424775
Br14  Br    Br    0.135239 0.820082 0.266656 -0.424758
Br15  Br    Br    0.135232 0.179937 0.266662 -0.424769
Br16  Br    Br    0.864765 0.820067 0.733340 -0.424775
Br17  Br    Br    0.364761 0.679918 0.733344 -0.424759
Br18  Br    Br    0.635239 0.320074 0.266656 -0.424774
Br19  Br    Br    0.635235 0.679933 0.266660 -0.424775
Br20  Br    Br    0.364768 0.320063 0.733338 -0.424769

loop_
_geom_bond_atom_site_label_1
_geom_bond_atom_site_label_2
_ccdc_geom_bond_type
C85   C182  S    
O45   Zn9   S    
C7    O31   A    
C34   C42   A    
C181  C187  A    
C90   O22   A    
C27   C99   A    
C170  C178  A    
C4    O4    A    
C12   C174  A    
C186  Br10  S    
C42   C109  A    
C111  H27   S    
C24   C96   A    
C133  O43   A    
C123  H39   S    
C106  H22   S    
C121  H37   S    
C62   C70   A    
C15   H3    S    
C9    C169  A    
O39   Zn10  S    
O12   Zn7   S    
C147  C155  A    
C143  C151  A    
C90   C177  S    
C11   C167  A    
C82   C98   A    
C76   C84   A    
C2    O26   A    
C73   C81   A    
C161  C163  A    
C162  C164  A    
O48   Zn9   S    
C84   C100  A    
C61   H9    S    
C37   C114  A    
C130  Br18  S    
C27   C35   A    
C10   C171  A    
C21   C29   A    
C137  O47   A    
O7    Zn7   S    
C81   C121  A    
C23   C31   A    
C24   C32   A    
C146  C154  A    
O30   Zn1   S    
C119  H35   S    
C89   O21   A    
C63   C71   A    
C64   H12   S    
C36   C44   A    
C175  C183  A    
C176  C184  A    
C139  O39   A    
C164  C165  A    
C48   C96   A    
C87   O19   A    
O3    Zn3   S    
C148  C162  A    
O4    Zn4   S    
C183  C188  A    
C108  C116  A    
C21   C93   A    
C78   C94   A    
C9    C165  A    
C86   O10   A    
C23   C95   A    
C67   H15   S    
C49   C97   A    
C21   C42   A    
C40   C115  A    
C51   C107  A    
C24   C43   A    
C82   C122  A    
C161  C165  A    
C17   C175  A    
O33   Zn11  S    
C88   O12   A    
O34   Zn12  S    
C29   C125  A    
C118  H34   S    
C69   C77   A    
C31   C127  A    
C45   C93   A    
C174  C182  A    
C71   C79   A    
C177  C185  A    
O43   Zn12  S    
C179  C186  A    
C133  O33   A    
C30   C38   A    
C11   C176  A    
C149  Br8   S    
O2    Zn2   S    
C17   C144  A    
C105  C113  A    
C18   C143  A    
C78   C118  A    
C103  H19   S    
C149  C151  A    
C153  Br4   S    
C134  O44   A    
C66   C74   A    
C154  Br3   S    
C135  O41   A    
C49   C57   A    
C124  C132  A    
O1    Zn1   S    
C52   C60   A    
C59   C67   A    
C53   C61   A    
C141  C159  A    
C20   C174  A    
C18   C176  A    
C55   C63   A    
C86   C181  S    
C56   C64   A    
O46   Zn10  S    
C116  H32   S    
C35   C43   A    
C185  Br9   S    
O37   Zn9   S    
C125  Br13  S    
C6    O6    A    
C45   C53   A    
C120  H36   S    
C85   O17   A    
C22   C94   A    
C171  C179  A    
C129  Br17  S    
C114  H30   S    
C187  Br11  S    
C169  C177  A    
C108  H24   S    
C92   O24   A    
C50   C98   A    
C87   O11   A    
C20   H8    S    
C3    O3    A    
C104  C112  A    
O32   Zn3   S    
O23   Zn7   S    
C145  C163  A    
C146  C164  A    
C14   C147  A    
C52   C100  A    
O16   Zn3   S    
C16   C145  A    
C178  C186  A    
C8    O32   A    
C25   C38   A    
C88   O20   A    
C54   C139  S    
C46   C94   A    
C27   C40   A    
C10   C166  A    
C57   C65   A    
C91   C180  S    
C5    O29   A    
C182  C188  A    
C89   C178  S    
O9    Zn6   S    
C102  H18   S    
C28   C36   A    
C25   C97   A    
C90   O14   A    
C67   C75   A    
C4    O28   A    
C131  Br19  S    
C22   C30   A    
O28   Zn7   S    
O13   Zn2   S    
C15   C146  A    
C58   C135  S    
C68   C76   A    
O11   Zn8   S    
C59   C134  S    
C184  C187  A    
C32   C128  A    
C152  Br5   S    
C72   C80   A    
C56   C137  S    
C150  C152  A    
C112  H28   S    
O19   Zn3   S    
O20   Zn4   S    
C2    O2    A    
C188  Br12  S    
C13   C171  A    
C151  Br6   S    
C139  O45   A    
O17   Zn1   S    
C117  C125  A    
C25   C33   A    
C119  C127  A    
O40   Zn9   S    
O5    Zn5   S    
O8    Zn8   S    
C157  C167  A    
C80   C120  A    
C158  C168  A    
C91   O23   A    
O44   Zn11  S    
C135  O35   A    
O21   Zn5   S    
C150  Br7   S    
C70   C78   A    
C132  Br20  S    
C22   C41   A    
C107  H23   S    
C101  C109  A    
C122  H38   S    
C105  H21   S    
C103  C111  A    
C34   C130  A    
C162  C166  A    
C117  H33   S    
O6    Zn6   S    
C79   C119  A    
C140  O40   A    
C153  C155  A    
C154  C156  A    
C68   H16   S    
C172  C180  A    
C173  C181  A    
C157  C159  A    
C83   C99   A    
C158  C160  A    
C74   C82   A    
C20   C141  A    
C1    O25   A    
C6    C74   S    
C7    O7    A    
C47   C103  A    
C141  C149  A    
C50   C58   A    
C163  C166  A    
C147  C161  A    
O42   Zn12  S    
C38   C113  A    
C49   C105  A    
C54   C62   A    
C28   C39   A    
C1    C69   S    
C23   C44   A    
C3    C71   S    
C19   C173  A    
C79   C95   A    
C92   C179  S    
O38   Zn10  S    
C126  Br14  S    
C46   C54   A    
C45   C101  A    
C8    O8    A    
C19   C142  A    
C155  Br2   S    
C102  C110  A    
C35   C131  A    
C4    C72   S    
O25   Zn6   S    
C33   C129  A    
O35   Zn12  S    
C123  C131  A    
C121  C129  A    
O15   Zn4   S    
C120  C128  A    
C26   C37   A    
C10   C170  A    
C109  H25   S    
C6    O30   A    
C33   C41   A    
C142  C150  A    
C36   C132  A    
O10   Zn5   S    
C75   C83   A    
C77   C93   A    
C85   O9    A    
C104  H20   S    
C44   C111  A    
C16   C170  A    
C60   C68   A    
C144  C152  A    
C39   C116  A    
C29   C37   A    
C50   C106  A    
C9    C172  A    
C148  C156  A    
O14   Zn1   S    
C83   C123  A    
C2    C70   S    
O47   Zn10  S    
C60   C133  S    
C110  H26   S    
C30   C126  A    
C19   H7    S    
C136  O36   A    
C53   C140  S    
C17   H5    S    
C8    C76   S    
C65   C73   A    
C46   C102  A    
C55   C138  S    
C106  C114  A    
C77   C117  A    
O24   Zn8   S    
C127  Br15  S    
C128  Br16  S    
C48   C104  A    
C13   H1    S    
C159  C168  A    
C15   C169  A    
C160  C167  A    
C140  O46   A    
O18   Zn2   S    
C16   H4    S    
C137  O37   A    
C58   C66   A    
C63   H11   S    
O27   Zn8   S    
C57   C136  S    
C80   C96   A    
C145  C153  A    
C28   C100  A    
C32   C40   A    
O29   Zn2   S    
C86   O18   A    
C5    O5    A    
C5    C73   S    
O22   Zn6   S    
C115  H31   S    
O31   Zn4   S    
C113  H29   S    
C124  H40   S    
C26   C34   A    
C143  C157  A    
C51   C99   A    
C11   C173  A    
C18   H6    S    
C62   H10   S    
C14   C172  A    
C87   C184  S    
C88   C183  S    
C7    C75   S    
C138  O38   A    
C138  O48   A    
C14   H2    S    
C107  C115  A    
C101  H17   S    
C26   C98   A    
C12   C175  A    
C91   O15   A    
C41   C110  A    
C89   O13   A    
C51   C59   A    
C43   C112  A    
C144  C158  A    
C47   C55   A    
C61   C69   A    
C48   C56   A    
O36   Zn11  S    
O41   Zn11  S    
C142  C160  A    
C12   C168  A    
C84   C124  A    
C66   H14   S    
C92   O16   A    
C81   C97   A    
C31   C39   A    
C156  Br1   S    
C64   C72   A    
C3    O27   A    
C180  C185  A    
O26   Zn5   S    
C1    O1    A    
C65   H13   S    
C52   C108  A    
C134  O34   A    
C47   C95   A    
C136  O42   A    
C118  C126  A    
C13   C148  A    
C122  C130  A    
