data_mof_unit_1483.cif
_audit_creation_date              2012-12-11T17:25:06-0500
_audit_creation_method            fapswitch 2.2
_symmetry_space_group_name_H-M    P1
_symmetry_Int_Tables_number       1
_space_group_crystal_system       triclinic
_cell_length_a                    6.953017
_cell_length_b                    20.526665
_cell_length_c                    24.497598
_cell_angle_alpha                 90.085226
_cell_angle_beta                  90.175009
_cell_angle_gamma                 89.180052
_cell_volume                      3495.97435208

loop_
_atom_site_label
_atom_site_type_symbol
_atom_type_description
_atom_site_fract_x
_atom_site_fract_y
_atom_site_fract_z
_atom_type_partial_charge
O1    O     O_R   0.507280 0.423750 0.460310 -0.534867
O2    O     O_R   0.171030 0.555650 0.437630 -0.536168
O3    O     O_R   0.004080 0.576250 0.539690 -0.536710
C1    C     C_R   0.339097 0.575671 0.421790 0.725176
O4    O     O_R   0.177330 0.422980 0.453960 -0.536846
O5    O     O_R   0.010420 0.442640 0.556140 -0.535197
C2    C     C_R   0.347308 0.399163 0.443222 0.697010
O6    O     O_R   0.500930 0.557360 0.443860 -0.534594
O7    O     O_3   0.340310 0.506600 0.533500 -0.368318
V1    V     V_3+5 0.064140 0.498780 0.493780 1.435205
O8    O     O_R   0.680890 0.444350 0.562370 -0.538125
C3    C     C_R   0.850567 0.424380 0.578157 0.725739
O9    O     O_R   0.674590 0.577020 0.546040 -0.538148
C4    C     C_R   0.842059 0.600957 0.556773 0.689859
V2    V     V_3+5 0.564550 0.501220 0.506220 1.432498
O10   O     O_3   0.838250 0.493400 0.466500 -0.364666
C5    C     C_R   0.978846 0.838452 0.910661 -0.047496
C6    C     C_R   0.844562 0.661810 0.588908 -0.042427
C7    C     C_R   0.060015 0.723883 0.903500 -0.157275
C8    C     C_R   0.045163 0.780604 0.934433 -0.163014
C9    C     C_R   0.927296 0.839249 0.855073 -0.214877
C10   C     C_R   0.944154 0.782033 0.822129 0.114284
C11   C     C_R   0.012235 0.724172 0.847795 0.136283
C12   C     C_R   0.900194 0.780334 0.764709 -0.012200
C13   C     C_R   0.926502 0.721066 0.734222 0.054585
C14   C     C_R   0.994886 0.665300 0.762260 -0.163206
C15   C     C_R   0.035698 0.666953 0.817723 -0.197672
C16   C     C_R   0.831487 0.836002 0.736851 -0.252929
C17   C     C_R   0.795319 0.835489 0.680933 0.418383
C18   C     C_R   0.814191 0.777292 0.650963 0.020326
C19   C     C_R   0.881849 0.719344 0.676878 0.034996
C20   C     C_R   0.762768 0.776329 0.595329 -0.139617
C21   C     C_R   0.776218 0.719188 0.564953 -0.173740
C22   C     C_R   0.898191 0.661796 0.644290 -0.181718
H1    H     H_    0.088242 0.622772 0.837269 0.127784
H2    H     H_    0.945987 0.615718 0.660761 0.090888
H3    H     H_    0.731633 0.719614 0.522526 0.112458
H4    H     H_    0.112578 0.679730 0.923045 0.125555
H5    H     H_    0.087579 0.779564 0.977028 0.113686
H6    H     H_    0.881041 0.885596 0.838766 0.095644
H7    H     H_    0.019572 0.619091 0.742523 0.120711
H8    H     H_    0.803701 0.881572 0.757297 0.148532
H9    H     H_    0.708505 0.819729 0.575081 0.150682
H10   H     H_    0.619985 0.202720 0.791033 0.114580
C23   C     C_R   0.730479 0.267715 0.730113 -0.148701
H11   H     H_    0.588481 0.281178 0.715287 0.111354
C24   C     C_R   0.894615 0.294775 0.706360 0.136520
C25   C     C_R   0.076951 0.276401 0.726419 -0.153879
H12   H     H_    0.205425 0.296672 0.708681 0.112186
C26   C     C_R   0.094924 0.231647 0.769579 -0.147845
H13   H     H_    0.236895 0.218251 0.784481 0.112690
C27   C     C_R   0.930786 0.204532 0.793263 0.134872
C28   C     C_R   0.748457 0.222940 0.773250 -0.159925
C29   C     C_1   0.876446 0.340907 0.661405 -0.057060
C30   C     C_1   0.948830 0.158467 0.838229 -0.061944
C31   C     C_1   0.961593 0.120408 0.876106 -0.179078
C32   C     C_1   0.863121 0.379167 0.623655 -0.189353
H14   H     H_    0.699105 0.702338 0.296287 0.114880
C33   C     C_R   0.596751 0.767451 0.233325 -0.137399
H15   H     H_    0.740642 0.780274 0.220842 0.113158
C34   C     C_R   0.436038 0.795065 0.206690 0.135166
C35   C     C_R   0.251228 0.777340 0.223842 -0.138465
H16   H     H_    0.125112 0.797933 0.203907 0.114903
C36   C     C_R   0.227466 0.732825 0.266872 -0.137582
H17   H     H_    0.083575 0.719996 0.279351 0.113103
C37   C     C_R   0.388179 0.705208 0.293505 0.135162
C38   C     C_R   0.572989 0.722936 0.276355 -0.138853
C39   C     C_1   0.459752 0.841062 0.161774 -0.042997
C40   C     C_1   0.364467 0.659182 0.338400 -0.042931
C41   C     C_1   0.349098 0.620963 0.376144 -0.181707
C42   C     C_1   0.475129 0.879240 0.124002 -0.178980
C43   C     C_R   0.464176 0.162239 0.088174 -0.135305
C44   C     C_R   0.360329 0.338479 0.411132 -0.044068
C45   C     C_R   0.420245 0.279212 0.090090 -0.208062
C46   C     C_R   0.444785 0.221476 0.060495 0.383593
C47   C     C_R   0.461952 0.161297 0.145475 -0.267636
C48   C     C_R   0.436639 0.219556 0.176629 0.082285
C49   C     C_R   0.417269 0.279315 0.147591 0.030417
C50   C     C_R   0.427028 0.220319 0.235332 0.034820
C51   C     C_R   0.401455 0.280684 0.263996 0.015235
C52   C     C_R   0.385234 0.338374 0.233073 -0.185624
C53   C     C_R   0.392550 0.338121 0.176378 0.163922
C54   C     C_R   0.440008 0.162514 0.266234 -0.186986
C55   C     C_R   0.427823 0.162602 0.322865 0.139831
C56   C     C_R   0.403491 0.221412 0.351647 0.083713
C57   C     C_R   0.391312 0.281453 0.322677 0.071925
C58   C     C_R   0.391896 0.221276 0.409081 -0.115287
C59   C     C_R   0.370802 0.279053 0.438298 -0.176442
C60   C     C_R   0.370322 0.339891 0.353910 -0.188393
H18   H     H_    0.363884 0.387460 0.335519 0.097320
H19   H     H_    0.364279 0.277419 0.482468 0.110709
H20   H     H_    0.400606 0.323668 0.067090 0.171025
H21   H     H_    0.477447 0.114030 0.164051 0.118227
H22   H     H_    0.364415 0.385378 0.251674 0.148855
H23   H     H_    0.458647 0.115417 0.247638 0.151223
H24   H     H_    0.400097 0.176635 0.432295 0.159548
O11   O     O_R   0.323320 0.942780 0.056240 -0.536928
O12   O     O_R   0.647300 0.077050 0.046060 -0.545720
O13   O     O_R   0.813840 0.057330 0.943840 -0.537317
C61   C     C_R   0.477357 0.100940 0.056798 0.758619
O14   O     O_R   0.653250 0.944380 0.062400 -0.537517
O15   O     O_R   0.819830 0.923720 0.960300 -0.536896
C62   C     C_R   0.485153 0.924459 0.078305 0.718264
O16   O     O_R   0.317330 0.076390 0.039790 -0.528054
O17   O     O_3   0.483830 0.993470 0.966560 -0.368279
V3    V     V_3+5 0.760140 0.001210 0.006210 1.433904
O18   O     O_R   0.149290 0.922840 0.953850 -0.540196
C63   C     C_R   0.981709 0.898989 0.943158 0.690937
O19   O     O_R   0.143340 0.055500 0.937510 -0.531687
C64   C     C_R   0.973734 0.075479 0.921758 0.732581
V4    V     V_3+5 0.259690 0.998600 0.993650 1.455306
O20   O     O_3   0.986130 0.006520 0.033440 -0.368164
I1    I     I_    0.363905 0.430921 0.137957 -0.405076
I2    I     I_    0.449189 0.069606 0.361251 -0.407137
O21   O     O_3   0.432646 0.222316 0.004146 -0.558233
C65   C     C_3   0.610778 0.242146 0.982849 0.091800
H25   H     H_    0.728697 0.207973 0.995512 0.122034
H26   H     H_    0.645686 0.292428 0.996468 0.133527
C66   C     C_3   0.599294 0.242008 0.920852 -0.686170
H27   H     H_    0.482361 0.275489 0.906874 0.224378
H28   H     H_    0.737681 0.258560 0.903584 0.186322
H29   H     H_    0.569910 0.192053 0.905778 0.219138
O22   O     O_3   0.726614 0.892095 0.656604 -0.559665
C67   C     C_3   0.881443 0.926499 0.633418 0.087354
H30   H     H_    0.825705 0.952748 0.596924 0.155412
H31   H     H_    0.001728 0.894396 0.618787 0.113860
C68   C     C_3   0.958084 0.976990 0.673423 -0.720579
H32   H     H_    0.031721 0.952590 0.708230 0.210291
H33   H     H_    0.063407 0.008412 0.652452 0.195397
H34   H     H_    0.838150 0.008034 0.689025 0.231297

loop_
_geom_bond_atom_site_label_1
_geom_bond_atom_site_label_2
_ccdc_geom_bond_type
C13   C19   A    
C18   C20   A    
C58   C59   A    
C4    C6    S    
O2    C1    A    
C7    C8    A    
C43   C47   A    
C1    C41   S    
C52   C53   A    
O22   C67   S    
C2    C44   S    
V3    O20   S    
C48   C49   A    
C14   C15   A    
C17   C18   A    
C16   C17   A    
O19   V4    S    
O5    C3    A    
C18   C19   A    
O11   V4    S    
C37   C40   S    
V2    O10   S    
C61   O16   A    
C5    C8    A    
C65   H25   S    
C23   C24   A    
C45   H20   S    
C35   C36   A    
C33   C38   A    
O8    V2    S    
H10   C28   S    
C24   C25   A    
C26   C27   A    
O18   C63   A    
C12   C13   A    
O15   C63   A    
O1    V2    S    
C11   C15   A    
O7    V1    S    
C27   C30   S    
C1    O6    A    
C25   C26   A    
C37   C38   A    
O17   V4    S    
C23   C28   A    
C33   H15   S    
O14   C62   A    
O9    C4    A    
C34   C35   A    
C43   C46   A    
C31   C64   S    
C48   C50   A    
C33   C34   A    
C45   C46   A    
C56   C58   A    
C55   C56   A    
C5    C63   S    
O4    C2    A    
C8    H5    S    
C15   H1    S    
C13   C14   A    
C56   C57   A    
O13   C64   A    
C5    C9    A    
C36   C37   A    
C7    C11   A    
C68   H33   S    
C44   C59   A    
C35   H16   S    
C7    H4    S    
C47   H21   S    
C49   C53   A    
C54   C55   A    
C59   H19   S    
C66   H27   S    
C54   H23   S    
C58   H24   S    
C30   C31   T    
C26   H13   S    
C19   C22   A    
C47   C48   A    
C6    C22   A    
O11   C62   A    
C66   H28   S    
C67   C68   S    
C3    C32   S    
C25   H12   S    
O6    V2    S    
O12   C61   A    
C24   C29   S    
C10   C12   A    
C46   O21   S    
C68   H32   S    
O2    V1    S    
C27   C28   A    
C67   H31   S    
C43   C61   S    
C66   H29   S    
O14   V3    S    
O13   V3    S    
C42   C62   S    
C55   I2    S    
V4    O20   S    
O1    C2    A    
O18   V4    S    
C12   C16   A    
C53   I1    S    
C51   C52   A    
C57   C60   A    
O5    V1    S    
O16   V4    S    
O8    C3    A    
O3    C4    A    
O17   V3    S    
C51   C57   A    
O12   V3    S    
C65   C66   S    
C20   C21   A    
O9    V2    S    
O7    V2    S    
C68   H34   S    
C44   C60   A    
O4    V1    S    
O3    V1    S    
V1    O10   S    
O19   C64   A    
C36   H17   S    
C50   C54   A    
C52   H22   S    
C34   C39   S    
C9    H6    S    
C39   C42   T    
C17   O22   S    
C16   H8    S    
C20   H9    S    
C65   H26   S    
O15   V3    S    
C22   H2    S    
C40   C41   T    
C6    C21   A    
C21   H3    S    
C50   C51   A    
C23   H11   S    
H14   C38   S    
C45   C49   A    
C10   C11   A    
C60   H18   S    
C9    C10   A    
O21   C65   S    
C14   H7    S    
C67   H30   S    
C29   C32   T    
