data_mof_unit_3026.cif
_audit_creation_date              2012-12-10T17:49:34-0500
_audit_creation_method            fapswitch 2.2
_symmetry_space_group_name_H-M    P1
_symmetry_Int_Tables_number       1
_space_group_crystal_system       triclinic
_cell_length_a                    10.505208
_cell_length_b                    10.628442
_cell_length_c                    9.936117
_cell_angle_alpha                 89.805516
_cell_angle_beta                  90.504939
_cell_angle_gamma                 91.445741
_cell_volume                      1109.00533433

loop_
_atom_site_label
_atom_site_type_symbol
_atom_type_description
_atom_site_fract_x
_atom_site_fract_y
_atom_site_fract_z
_atom_type_partial_charge
C1    C     C_R   0.504211 0.260788 0.500328 0.845724
C2    C     C_3   0.960001 0.600192 0.428244 -0.210927
C3    C     C_3   0.038602 0.491446 0.371743 -0.122429
C4    C     C_3   0.122855 0.500258 0.498178 -0.023594
C5    C     C_R   0.709232 0.135267 0.642450 -0.238846
C6    C     C_R   0.803874 0.071359 0.712090 0.458768
C7    C     C_R   0.805511 0.940466 0.708827 -0.200174
C8    C     C_R   0.711518 0.873135 0.637711 -0.274704
C9    C     C_R   0.612069 0.936309 0.570773 0.107345
C10   C     C_R   0.611342 0.068213 0.572322 0.031259
C11   C     C_R   0.513453 0.128608 0.500579 -0.062366
C12   C     C_R   0.257658 0.499726 0.499322 0.864383
C13   C     C_R   0.421635 0.062504 0.425706 -0.206161
C14   C     C_R   0.421854 0.934069 0.425104 -0.204595
C15   C     C_R   0.514147 0.871878 0.499007 -0.080248
C16   C     C_R   0.334422 0.334509 0.138963 -0.170483
C17   C     C_R   0.254943 0.250858 0.068572 -0.181931
C18   C     C_R   0.256412 0.249419 0.929327 -0.176948
C19   C     C_R   0.336015 0.332725 0.859511 -0.169985
C20   C     C_R   0.418970 0.417880 0.927365 0.176033
C21   C     C_R   0.418621 0.418301 0.071809 0.174229
C22   C     C_R   0.577874 0.578215 0.071844 -0.101267
C23   C     C_R   0.504366 0.739349 0.499783 0.862052
C24   C     C_R   0.577689 0.578335 0.928887 -0.091611
C25   C     C_R   0.742493 0.501204 0.500804 0.841602
C26   C     C_3   0.041264 0.401322 0.572599 -0.166860
C27   C     C_3   0.953953 0.393140 0.446340 -0.198834
C28   C     C_3   0.877631 0.501843 0.502499 -0.036029
C29   C     C_3   0.964086 0.510566 0.625726 0.298120
C30   C     C_3   0.047472 0.609616 0.554329 -0.243289
H1    H     H_    0.911359 0.305656 0.402480 0.155708
H2    H     H_    0.880054 0.890589 0.760790 0.162720
H3    H     H_    0.718629 0.771892 0.634839 0.155512
H4    H     H_    0.347988 0.882760 0.369583 0.155382
H5    H     H_    0.641602 0.642214 0.125692 0.147027
H6    H     H_    0.327166 0.330629 0.245605 0.198553
H7    H     H_    0.191711 0.186879 0.122568 0.161279
H8    H     H_    0.194668 0.184110 0.874742 0.202793
H9    H     H_    0.329433 0.327668 0.752773 0.204516
H10   H     H_    0.641078 0.642592 0.875683 0.137666
H11   H     H_    0.080152 0.321471 0.630766 0.170058
H12   H     H_    0.089654 0.696706 0.599475 0.145594
H13   H     H_    0.922427 0.680482 0.369628 0.149648
H14   H     H_    0.073773 0.483355 0.267127 0.154276
H15   H     H_    0.347743 0.110581 0.370346 0.139828
H16   H     H_    0.714298 0.236919 0.643399 0.190197
N1    N     N_R   0.498800 0.498800 0.142780 -0.122178
N2    N     N_R   0.498760 0.498720 0.857170 -0.119431
O1    O     O_R   0.500000 0.316780 0.614690 -0.637024
O2    O     O_R   0.499990 0.316750 0.385360 -0.627384
O3    O     O_R   0.313960 0.499980 0.614650 -0.637642
O4    O     O_R   0.313940 0.499960 0.385310 -0.643840
O5    O     O_R   0.500010 0.683250 0.614640 -0.616928
O6    O     O_R   0.500000 0.683220 0.385310 -0.614728
O7    O     O_R   0.686060 0.500040 0.614690 -0.625466
O8    O     O_R   0.686040 0.500020 0.385350 -0.608112
Zn1   Zn    Zn3+2 0.500010 0.500020 0.653130 0.938182
Zn2   Zn    Zn3+2 0.499990 0.499980 0.346870 0.940535
N3    N     N_2   0.919167 0.523116 0.762267 -0.272865
H17   H     H_    0.863785 0.600873 0.774579 0.211293
C31   C     C_3   0.016251 0.513038 0.865370 -0.714785
H18   H     H_    0.972337 0.521548 0.966079 0.233617
H19   H     H_    0.089926 0.589045 0.853422 0.220778
H20   H     H_    0.061382 0.420060 0.859888 0.277855
Cl1   Cl    Cl    0.920656 0.155843 0.803794 -0.710869

loop_
_geom_bond_atom_site_label_1
_geom_bond_atom_site_label_2
_ccdc_geom_bond_type
C14   H4    S    
C31   H20   S    
C4    C26   S    
C16   C21   A    
C29   C30   S    
O3    Zn1   S    
C4    C12   S    
N2    Zn1   S    
C1    O2    A    
C24   N2    A    
C19   C20   A    
C1    C11   S    
C25   O8    A    
C2    H13   S    
C2    C30   S    
C15   C23   S    
C17   C18   A    
C18   H8    S    
N3    H17   S    
C17   H7    S    
C13   C14   A    
C16   H6    S    
N1    Zn2   S    
C13   H15   S    
C22   H5    S    
C11   C13   A    
C26   C27   S    
C20   N2    A    
O4    Zn2   S    
C26   C29   S    
C5    C6    A    
C19   H9    S    
C9    C10   A    
C3    C27   S    
C28   C29   S    
C12   O4    A    
O8    Zn2   S    
C23   O5    A    
C6    C7    A    
C2    C3    S    
C8    H3    S    
O7    Zn1   S    
C9    C15   A    
C31   H18   S    
O6    Zn2   S    
C22   C24   A    
C3    H14   S    
N3    C31   S    
C16   C17   A    
C10   C11   A    
C5    C10   A    
C3    C4    S    
O2    Zn2   S    
C29   N3    S    
C6    Cl1   S    
C7    C8    A    
C12   O3    A    
O1    Zn1   S    
C20   C21   A    
C23   O6    A    
C18   C19   A    
C5    H16   S    
C27   C28   S    
C31   H19   S    
C21   N1    A    
O5    Zn1   S    
C14   C15   A    
C30   H12   S    
C2    C28   S    
C7    H2    S    
C24   H10   S    
C27   H1    S    
C22   N1    A    
C4    C30   S    
C25   O7    A    
C26   H11   S    
C8    C9    A    
C25   C28   S    
C1    O1    A    
