data_mof_unit_245.cif
_audit_creation_date              2012-12-10T19:47:23-0500
_audit_creation_method            fapswitch 2.2
_symmetry_space_group_name_H-M    P1
_symmetry_Int_Tables_number       1
_space_group_crystal_system       triclinic
_cell_length_a                    10.898057
_cell_length_b                    10.95895
_cell_length_c                    12.690185
_cell_angle_alpha                 91.731051
_cell_angle_beta                  91.503416
_cell_angle_gamma                 90.244893
_cell_volume                      1514.37217927

loop_
_atom_site_label
_atom_site_type_symbol
_atom_type_description
_atom_site_fract_x
_atom_site_fract_y
_atom_site_fract_z
_atom_type_partial_charge
C1    C     C_R   0.261851 0.501846 0.501887 0.791981
C2    C     C_R   0.738149 0.498150 0.498113 0.791986
C3    C     C_R   0.487598 0.872111 0.498013 -0.239739
C4    C     C_R   0.512384 0.127887 0.501985 -0.239728
C5    C     C_R   0.502334 0.933934 0.403066 -0.114012
C6    C     C_R   0.497645 0.066063 0.596930 -0.114019
C7    C     C_R   0.142843 0.460097 0.885199 0.415823
C8    C     C_R   0.857142 0.539799 0.114787 0.415839
C9    C     C_R   0.102957 0.438837 0.780644 -0.186832
C10   C     C_R   0.897036 0.561091 0.219336 -0.186795
C11   C     C_R   0.119792 0.528401 0.705307 0.035361
C12   C     C_R   0.880206 0.471550 0.294696 0.035354
C13   C     C_R   0.176896 0.639440 0.735921 -0.058674
C14   C     C_R   0.823096 0.360504 0.264111 -0.058705
C15   C     C_R   0.217916 0.659803 0.840239 -0.096437
C16   C     C_R   0.782062 0.340111 0.159801 -0.096420
C17   C     C_R   0.200198 0.570616 0.914839 -0.130842
C18   C     C_R   0.799780 0.429273 0.085176 -0.130845
C19   C     C_R   0.935631 0.507631 0.592864 -0.198591
C20   C     C_R   0.064367 0.492360 0.407135 -0.198578
C21   C     C_R   0.871720 0.496445 0.495735 -0.097207
C22   C     C_R   0.128279 0.503546 0.504265 -0.097202
C23   C     C_R   0.507331 0.261928 0.501021 0.851445
C24   C     C_R   0.492662 0.738072 0.498979 0.851459
C25   C     C_R   0.937286 0.487988 0.401276 0.016711
C26   C     C_R   0.062712 0.511995 0.598724 0.016705
C27   C     C_2   0.462087 0.470164 0.031769 -0.313535
C28   C     C_2   0.537925 0.529824 0.968231 -0.313496
C29   C     C_1   0.526289 0.523493 0.852668 0.284650
C30   C     C_1   0.473716 0.476501 0.147332 0.284651
C31   C     C_R   0.657424 0.174619 0.849263 0.410380
C32   C     C_R   0.342496 0.825265 0.150787 0.410368
C33   C     C_R   0.637302 0.135964 0.744347 -0.143870
C34   C     C_R   0.362644 0.863950 0.255692 -0.143863
C35   C     C_R   0.517466 0.126977 0.701698 0.137516
C36   C     C_R   0.482499 0.873015 0.298300 0.137542
C37   C     C_R   0.417778 0.160085 0.764040 -0.045372
C38   C     C_R   0.582181 0.839958 0.235926 -0.045391
C39   C     C_R   0.438093 0.198300 0.869095 -0.177251
C40   C     C_R   0.561839 0.801711 0.130880 -0.177215
C41   C     C_R   0.557681 0.205051 0.911918 -0.161869
C42   C     C_R   0.442231 0.794878 0.088099 -0.161864
C43   C     C_R   0.478705 0.939950 0.594328 0.356945
C44   C     C_R   0.521267 0.060049 0.405667 0.356937
Cu1   Cu    Cu3+1 0.492140 0.492110 0.395880 1.018102
Cu2   Cu    Cu3+1 0.507860 0.507890 0.604120 1.018097
H1    H     H_    0.572540 0.232464 0.993875 0.176086
H2    H     H_    0.427350 0.767435 0.006150 0.176042
H3    H     H_    0.187711 0.710607 0.679437 0.161775
H4    H     H_    0.812282 0.289354 0.320614 0.161738
H5    H     H_    0.261460 0.745608 0.863657 0.212417
H6    H     H_    0.738508 0.254302 0.136408 0.212459
H7    H     H_    0.886480 0.515287 0.665982 0.192623
H8    H     H_    0.113517 0.484704 0.334016 0.192619
H9    H     H_    0.611866 0.584925 0.002989 0.192885
H10   H     H_    0.388144 0.415065 0.997011 0.192850
H11   H     H_    0.714429 0.108333 0.697178 0.158033
H12   H     H_    0.285519 0.891539 0.302889 0.158014
H13   H     H_    0.324713 0.151533 0.732514 0.155081
H14   H     H_    0.675259 0.848569 0.267418 0.155116
H15   H     H_    0.360774 0.219622 0.917910 0.199283
H16   H     H_    0.639151 0.780424 0.082040 0.199267
H17   H     H_    0.230289 0.587551 0.995826 0.195442
H18   H     H_    0.769682 0.412312 0.004194 0.195442
H19   H     H_    0.056265 0.354035 0.758534 0.184201
H20   H     H_    0.943729 0.645901 0.241423 0.184247
N1    N     N_1   0.480320 0.480250 0.239400 -0.144584
N2    N     N_1   0.519680 0.519750 0.760600 -0.144589
O1    O     O_R   0.313000 0.493330 0.412070 -0.580379
O2    O     O_R   0.687000 0.506670 0.587930 -0.580380
O3    O     O_R   0.326280 0.506660 0.587930 -0.581031
O4    O     O_R   0.673720 0.493340 0.412070 -0.581025
O5    O     O_R   0.493370 0.312980 0.412070 -0.512459
O6    O     O_R   0.506630 0.687020 0.587930 -0.512465
O7    O     O_R   0.506650 0.326310 0.587930 -0.598386
O8    O     O_R   0.493350 0.673690 0.412070 -0.598382
Cl1   Cl    Cl    0.807353 0.177761 0.902986 -0.563315
Cl2   Cl    Cl    0.192536 0.822021 0.097116 -0.563366
Cl3   Cl    Cl    0.436984 0.871892 0.714368 -0.633838
Cl4   Cl    Cl    0.562944 0.128109 0.285616 -0.633868
Cl5   Cl    Cl    0.117154 0.349978 0.979810 -0.568536
Cl6   Cl    Cl    0.882829 0.649888 0.020147 -0.568521

loop_
_geom_bond_atom_site_label_1
_geom_bond_atom_site_label_2
_ccdc_geom_bond_type
C24   O6    A    
C39   C41   A    
Cu1   Cu2   S    
C3    C43   A    
C1    O3    A    
Cu1   O8    S    
C8    Cl6   S    
C28   C29   S    
C19   C21   A    
C20   C25   A    
C43   Cl3   S    
C5    C36   S    
C40   H16   S    
C6    C35   S    
Cu1   O5    S    
C19   C26   A    
C7    C17   A    
Cu1   N1    S    
C31   C33   A    
C14   C16   A    
C15   H5    S    
C30   N1    T    
C19   H7    S    
C40   C42   A    
C1    C22   S    
C1    O1    A    
C27   C30   S    
C3    C24   S    
C23   O5    A    
C2    O4    A    
Cu2   O7    S    
C28   H9    S    
C31   Cl1   S    
C10   H20   S    
C39   H15   S    
Cu1   O1    S    
C44   Cl4   S    
C20   H8    S    
C23   O7    A    
C4    C23   S    
C27   H10   S    
C24   O8    A    
C4    C44   A    
C11   C26   S    
C8    C18   A    
C32   C34   A    
Cu2   N2    S    
C29   N2    T    
C2    C21   S    
C41   H1    S    
C16   C18   A    
C42   H2    S    
C9    C11   A    
Cu2   O3    S    
C37   H13   S    
C10   C12   A    
C38   H14   S    
C4    C6    A    
C7    Cl5   S    
C5    C44   A    
C20   C22   A    
C6    C43   A    
C13   C15   A    
C13   H3    S    
Cu2   O6    S    
C15   C17   A    
C21   C25   A    
C33   H11   S    
C31   C41   A    
C35   C37   A    
C16   H6    S    
C12   C14   A    
C3    C5    A    
C12   C25   S    
C36   C38   A    
C37   C39   A    
C17   H17   S    
C38   C40   A    
C11   C13   A    
C18   H18   S    
C14   H4    S    
C33   C35   A    
C34   C36   A    
C9    H19   S    
Cu2   O2    S    
C32   Cl2   S    
C7    C9    A    
C8    C10   A    
C22   C26   A    
C27   C28   D    
C34   H12   S    
C32   C42   A    
C2    O2    A    
Cu1   O4    S    
