data_mof_unit_187.cif
_audit_creation_date              2012-12-11T14:21:21-0500
_audit_creation_method            fapswitch 2.2
_symmetry_space_group_name_H-M    P1
_symmetry_Int_Tables_number       1
_space_group_crystal_system       triclinic
_cell_length_a                    22.004199
_cell_length_b                    7.203914
_cell_length_c                    14.889182
_cell_angle_alpha                 89.883653
_cell_angle_beta                  107.074949
_cell_angle_gamma                 90.156001
_cell_volume                      2256.13547687

loop_
_atom_site_label
_atom_site_type_symbol
_atom_type_description
_atom_site_fract_x
_atom_site_fract_y
_atom_site_fract_z
_atom_type_partial_charge
O1    O     O_R   0.584770 0.505770 0.002090 -0.544469
O2    O     O_R   0.415230 0.005770 0.997910 -0.538659
O3    O     O_R   0.467060 0.173340 0.861950 -0.530377
O4    O     O_R   0.532940 0.673340 0.138050 -0.531522
C1    C     C_R   0.455698 0.344310 0.825787 0.743211
C2    C     C_R   0.544257 0.844153 0.174255 0.737906
O5    O     O_R   0.587510 0.175890 0.993210 -0.539017
O6    O     O_R   0.412490 0.675890 0.006790 -0.538698
O7    O     O_R   0.536540 0.008150 0.130100 -0.544891
O8    O     O_R   0.463460 0.508150 0.869900 -0.544057
C3    C     C_R   0.613206 0.345323 0.999712 0.745197
C4    C     C_R   0.386933 0.844648 0.000350 0.744954
O9    O     O_3   0.483140 0.340040 0.044760 -0.378657
O10   O     O_3   0.516860 0.840040 0.955240 -0.380599
V1    V     V_3+5 0.503130 0.064190 0.991700 1.460724
V2    V     V_3+5 0.496870 0.564190 0.008300 1.459927
C5    C     C_2   0.214517 0.731948 0.993787 0.242009
C6    C     C_2   0.790085 0.244032 0.025220 0.245551
C7    C     C_2   0.183305 0.884348 0.013661 0.054671
C8    C     C_2   0.817167 0.380704 0.985967 0.064879
C9    C     C_2   0.284741 0.723822 0.014322 -0.093006
C10   C     C_2   0.719780 0.221521 0.004991 -0.144376
C11   C     C_2   0.318452 0.859197 0.989535 -0.308455
C12   C     C_2   0.681650 0.364143 0.008864 -0.293386
H1    H     H_    0.307987 0.593890 0.041435 0.167774
H2    H     H_    0.700361 0.081817 0.996548 0.151158
H3    H     H_    0.294676 0.984611 0.956814 0.184090
H4    H     H_    0.702215 0.501838 0.024666 0.171134
C13   C     C_R   0.926707 0.891003 0.723262 -0.086129
C14   C     C_R   0.073670 0.387404 0.276376 -0.086356
C15   C     C_R   0.570779 0.851096 0.276675 -0.103094
C16   C     C_R   0.429238 0.351392 0.723397 -0.104369
C17   C     C_R   0.933263 0.948997 0.566548 -0.150271
C18   C     C_R   0.065513 0.402002 0.434344 -0.155543
C19   C     C_R   0.962858 0.935762 0.662782 0.239004
C20   C     C_R   0.036275 0.399869 0.337712 0.245546
C21   C     C_R   0.860989 0.863500 0.687107 -0.242921
C22   C     C_R   0.139917 0.376571 0.311879 -0.249107
C23   C     C_R   0.829403 0.885122 0.589969 0.085932
C24   C     C_R   0.170771 0.379396 0.409780 0.085862
C25   C     C_R   0.867280 0.925444 0.529934 0.080401
C26   C     C_R   0.131988 0.393077 0.470639 0.081588
C27   C     C_R   0.761751 0.871018 0.550721 0.064447
C28   C     C_R   0.238481 0.369750 0.449123 0.067051
C29   C     C_R   0.733588 0.889965 0.451542 0.088991
C30   C     C_R   0.266170 0.377118 0.548764 0.088023
C31   C     C_R   0.773934 0.928245 0.395165 -0.168865
C32   C     C_R   0.225049 0.390236 0.605925 -0.172067
C33   C     C_R   0.839138 0.945828 0.433777 -0.144031
C34   C     C_R   0.159587 0.397873 0.567472 -0.143191
C35   C     C_R   0.721272 0.842291 0.607455 -0.173894
C36   C     C_R   0.279341 0.351023 0.392266 -0.183275
C37   C     C_R   0.655885 0.828260 0.569105 -0.110620
C38   C     C_R   0.344654 0.336180 0.430807 -0.115594
C39   C     C_R   0.627197 0.839172 0.472011 0.038411
C40   C     C_R   0.373029 0.340815 0.528067 0.041632
C41   C     C_R   0.666055 0.870699 0.412023 0.053007
C42   C     C_R   0.333920 0.366456 0.588102 0.052055
C43   C     C_R   0.560401 0.816666 0.433785 0.285710
C44   C     C_R   0.439759 0.317922 0.566409 0.285399
C45   C     C_R   0.532482 0.818336 0.335588 0.252290
C46   C     C_R   0.467495 0.317789 0.664626 0.249959
C47   C     C_R   0.635994 0.878763 0.314267 -0.272946
C48   C     C_R   0.364046 0.378609 0.685686 -0.273577
H5    H     H_    0.867869 0.977138 0.387616 0.155671
H6    H     H_    0.130183 0.407378 0.614372 0.152094
H7    H     H_    0.661989 0.899019 0.264050 0.117360
H8    H     H_    0.338226 0.405141 0.735514 0.122518
H9    H     H_    0.628268 0.806053 0.617403 0.173152
H10   H     H_    0.372490 0.319262 0.382458 0.172322
H11   H     H_    0.961799 0.982288 0.520401 0.162445
H12   H     H_    0.036152 0.411804 0.481250 0.161572
H13   H     H_    0.835983 0.830471 0.737383 0.139900
H14   H     H_    0.165683 0.369386 0.260669 0.131813
H15   H     H_    0.756940 0.948959 0.320420 0.122857
H16   H     H_    0.241489 0.391923 0.681437 0.127219
H17   H     H_    0.738415 0.831690 0.682797 0.157433
H18   H     H_    0.262484 0.344036 0.316823 0.151791
O11   O     O_R   0.036450 0.233070 0.130130 -0.530356
O12   O     O_R   0.963550 0.733070 0.869870 -0.537149
O13   O     O_R   0.912470 0.560570 0.006790 -0.537903
O14   O     O_R   0.087530 0.060570 0.993210 -0.512971
C49   C     C_R   0.886786 0.391255 0.000846 0.784665
C50   C     C_R   0.113466 0.891497 0.999579 0.740429
O15   O     O_R   0.032920 0.562940 0.138050 -0.536408
O16   O     O_R   0.967080 0.062940 0.861950 -0.530046
O17   O     O_R   0.084790 0.730500 0.002090 -0.558926
O18   O     O_R   0.915210 0.230500 0.997910 -0.533242
C51   C     C_R   0.044996 0.394451 0.174560 0.758125
C52   C     C_R   0.955086 0.894864 0.825323 0.745621
O19   O     O_3   0.016820 0.396170 0.955260 -0.382311
O20   O     O_3   0.983180 0.896170 0.044740 -0.380898
V3    V     V_3+5 0.996880 0.672090 0.008300 1.474992
V4    V     V_3+5 0.003120 0.172090 0.991700 1.528452
N1    N     N_2   0.182082 0.565092 0.956026 -0.514938
H19   H     H_    0.158174 0.497553 0.996522 0.294587
C53   C     C_3   0.150921 0.565642 0.855973 -0.430380
H20   H     H_    0.109379 0.660169 0.838739 0.208382
H21   H     H_    0.134058 0.423265 0.832784 0.215577
H22   H     H_    0.184701 0.610057 0.817317 0.197123
N2    N     N_2   0.829715 0.118900 0.091070 -0.526649
H23   H     H_    0.820779 0.121360 0.155293 0.270562
C54   C     C_3   0.830720 0.931229 0.057108 -0.407430
H24   H     H_    0.868295 0.851059 0.108536 0.214597
H25   H     H_    0.841352 0.931095 0.988615 0.220175
H26   H     H_    0.784353 0.861459 0.049066 0.177629
Br1   Br    Br    0.052534 0.983482 0.708838 -0.624555
Br2   Br    Br    0.945261 0.414501 0.292070 -0.597959
Br3   Br    Br    0.505824 0.788488 0.513937 -0.566481
Br4   Br    Br    0.494421 0.289406 0.486493 -0.566416
Br5   Br    Br    0.229294 0.096790 0.079606 -0.624697
Br6   Br    Br    0.767512 0.546558 0.890691 -0.668139
N3    N     N_2   0.466514 0.779385 0.295035 -0.528565
H27   H     H_    0.448232 0.679454 0.329557 0.309089
C55   C     C_3   0.426211 0.941069 0.269910 -0.456508
H28   H     H_    0.424450 0.016019 0.334138 0.245970
H29   H     H_    0.377258 0.896855 0.230579 0.208746
H30   H     H_    0.443889 0.036122 0.224304 0.199520
N4    N     N_2   0.533301 0.277631 0.705303 -0.527584
H31   H     H_    0.551234 0.177441 0.670801 0.310852
C56   C     C_3   0.574171 0.438590 0.730391 -0.447680
H32   H     H_    0.576120 0.513702 0.666153 0.244855
H33   H     H_    0.622973 0.393443 0.769588 0.221558
H34   H     H_    0.556888 0.533755 0.776098 0.196068

loop_
_geom_bond_atom_site_label_1
_geom_bond_atom_site_label_2
_ccdc_geom_bond_type
N2    H23   S    
O14   V4    S    
C39   C43   A    
C20   Br2   S    
C32   H16   S    
N1    H19   S    
C18   C26   A    
C50   O17   A    
C37   H9    S    
C2    O7    A    
C53   H20   S    
C23   C25   A    
O5    C3    A    
C4    C11   S    
C29   C41   A    
C33   H5    S    
C48   H8    S    
C17   C19   A    
C55   H28   S    
C3    C12   S    
C14   C22   A    
C44   C46   A    
O6    V2    S    
C29   C31   A    
C15   C45   A    
C56   H34   S    
C21   H13   S    
O16   V4    S    
C43   Br3   S    
C8    Br6   S    
O15   V3    S    
C36   C38   A    
C55   H29   S    
O1    C3    A    
C5    N1    S    
C11   H3    S    
C18   C20   A    
C1    C16   S    
C28   C36   A    
C32   C34   A    
C49   O18   A    
O2    C4    A    
N2    C54   S    
C30   C42   A    
C14   C51   S    
C36   H18   S    
C25   C33   A    
C13   C52   S    
O13   C49   A    
C28   C30   A    
C41   C47   A    
C38   C40   A    
C37   C39   A    
C42   C48   A    
C47   H7    S    
C43   C45   A    
O11   C51   A    
C15   C47   A    
C19   Br1   S    
C16   C48   A    
O11   V4    S    
O4    C2    A    
O16   C52   A    
O15   C51   A    
C23   C27   A    
O5    V1    S    
C5    C9    S    
C40   C44   A    
C35   C37   A    
C6    N2    S    
O4    V2    S    
C35   H17   S    
O13   V3    S    
C38   H10   S    
O6    C4    A    
C55   H30   S    
C46   N4    S    
C54   H25   S    
O1    V2    S    
O2    V1    S    
C34   H6    S    
C56   H32   S    
N4    C56   S    
C26   C34   A    
O14   C50   A    
C39   C41   A    
C45   N3    S    
C10   C12   D    
C8    C49   S    
C7    C50   S    
C18   H12   S    
C53   H22   S    
O3    V1    S    
N3    H27   S    
C22   H14   S    
C9    H1    S    
C53   H21   S    
C6    C10   S    
C12   H4    S    
O3    C1    A    
N4    H31   S    
N1    C53   S    
C7    Br5   S    
C31   C33   A    
C13   C19   A    
C14   C20   A    
C17   C25   A    
C9    C11   D    
O7    V1    S    
C16   C46   A    
C1    O8    A    
C27   C29   A    
O8    V2    S    
O19   V4    S    
C22   C24   A    
C27   C35   A    
O17   V3    S    
C24   C26   A    
O20   V3    S    
C5    C7    D    
C40   C42   A    
C2    C15   S    
C54   H26   S    
C6    C8    D    
O12   C52   A    
C56   H33   S    
C44   Br4   S    
C17   H11   S    
C31   H15   S    
C30   C32   A    
C24   C28   A    
C21   C23   A    
C10   H2    S    
O9    V2    S    
C13   C21   A    
C54   H24   S    
O18   V4    S    
O10   V1    S    
O12   V3    S    
N3    C55   S    
