data_mof_unit_1802.cif
_audit_creation_date              2013-03-05T16:43:02-0500
_audit_creation_method            fapswitch 2.2
_symmetry_space_group_name_H-M    P1
_symmetry_Int_Tables_number       1
_space_group_crystal_system       triclinic
_cell_length_a                    10.744019
_cell_length_b                    10.797896
_cell_length_c                    9.949377
_cell_angle_alpha                 87.692849
_cell_angle_beta                  89.057879
_cell_angle_gamma                 91.741715
_cell_volume                      1152.60622367

loop_
_atom_site_label
_atom_site_type_symbol
_atom_site_description
_atom_site_fract_x
_atom_site_fract_y
_atom_site_fract_z
_atom_type_partial_charge
O1    O     O_R   0.500020 0.316790 0.614690 -0.595727
O2    O     O_R   0.500000 0.316760 0.385350 -0.559225
C1    C     C_R   0.510598 0.260455 0.501209 0.965147
O3    O     O_R   0.314800 0.500000 0.614670 -0.558501
O4    O     O_R   0.314790 0.499960 0.385330 -0.589012
C2    C     C_R   0.257862 0.504297 0.500874 1.076395
Zn1   Zn    Zn3+2 0.500010 0.500020 0.653130 1.112356
Zn2   Zn    Zn3+2 0.499990 0.499980 0.346870 1.151797
O5    O     O_R   0.500000 0.683240 0.614650 -0.583313
O6    O     O_R   0.499980 0.683210 0.385310 -0.622246
O7    O     O_R   0.685210 0.500040 0.614670 -0.586564
O8    O     O_R   0.685200 0.500000 0.385330 -0.527362
C3    C     C_R   0.506983 0.739121 0.497608 0.937221
C4    C     C_R   0.741787 0.502045 0.498778 1.027024
C5    C     C_3   0.066164 0.379608 0.569671 0.576094
C6    C     C_3   0.921048 0.375276 0.559762 0.632900
H1    H     H_    0.911372 0.578676 0.696436 0.273511
C7    C     C_3   0.071894 0.624212 0.569457 0.422649
C8    C     C_3   0.073400 0.514583 0.354849 0.298725
C9    C     C_3   0.120752 0.506050 0.502798 -0.551522
H2    H     H_    0.096600 0.428585 0.306376 0.259738
C10   C     C_3   0.877835 0.502920 0.497599 -0.591408
C11   C     C_3   0.929211 0.608722 0.589351 -0.062298
C12   C     C_3   0.932653 0.527462 0.352239 0.429158
H3    H     H_    0.911099 0.622474 0.315560 0.238591
H4    H     H_    0.094320 0.706151 0.501035 0.211115
C13   C     C_R   0.533576 0.054182 0.616811 -0.052092
C14   C     C_R   0.536708 0.129199 0.499480 -0.126510
C15   C     C_R   0.563214 0.069121 0.376346 0.342137
C16   C     C_R   0.550515 0.939169 0.374287 -0.162757
H5    H     H_    0.560598 0.892704 0.280421 0.222621
C17   C     C_R   0.529259 0.869624 0.494260 -0.082810
C18   C     C_R   0.536635 0.929920 0.612828 -0.029608
C19   C     C_3   0.518394 0.902691 0.758735 0.451809
C20   C     C_3   0.512462 0.044237 0.766909 0.319740
H6    H     H_    0.599130 0.856457 0.804638 0.138196
C21   C     C_R   0.396309 0.459828 0.074955 -0.001467
N1    N     N_R   0.499150 0.499140 0.142800 -0.166776
C22   C     C_R   0.595921 0.552919 0.067428 0.742277
C23   C     C_R   0.595705 0.553027 0.924118 -0.096661
H7    H     H_    0.674081 0.594508 0.867335 0.201084
N2    N     N_R   0.499150 0.499180 0.857150 -0.130140
C24   C     C_R   0.399006 0.456887 0.932234 0.125373
C25   C     C_3   0.355056 0.326891 0.934115 -0.410794
C26   C     C_3   0.340528 0.330927 0.083873 0.770211
H8    H     H_    0.268595 0.312491 0.879512 0.265195
H9    H     H_    0.433377 0.270813 0.904613 0.237521
N3    N     N_R   0.099759 0.356555 0.710734 0.247139
O9    O     O_R   0.091358 0.443393 0.796711 -0.254983
O10   O     O_R   0.090650 0.242287 0.757723 -0.171453
N4    N     N_R   0.867662 0.727648 0.567505 0.219899
O11   O     O_R   0.803312 0.772460 0.665156 -0.343500
O12   O     O_R   0.882129 0.793148 0.455390 -0.330461
N5    N     N_R   0.609055 0.134806 0.256051 0.283455
O13   O     O_R   0.687964 0.227899 0.263162 -0.231430
O14   O     O_R   0.592879 0.086269 0.139920 -0.250544
F1    F     F_    0.405400 0.840645 0.786822 -0.539981
N6    N     N_R   0.388533 0.079091 0.811504 0.213426
O15   O     O_R   0.350436 0.047835 0.933440 -0.227012
O16   O     O_R   0.308134 0.118309 0.724434 -0.290395
N7    N     N_R   0.615210 0.102753 0.839752 0.221070
O17   O     O_R   0.698172 0.035427 0.899218 -0.243588
O18   O     O_R   0.637921 0.221469 0.824107 -0.276991
F2    F     F_    0.693859 0.606189 0.129570 -0.582281
F3    F     F_    0.117189 0.284197 0.498950 -0.593279
N8    N     N_R   0.209964 0.322514 0.127210 0.197403
O19   O     O_R   0.170963 0.230001 0.206304 -0.190646
O20   O     O_R   0.128766 0.393823 0.070362 -0.259372
F4    F     F_    0.411980 0.246290 0.151611 -0.589642
N9    N     N_R   0.876732 0.267531 0.484965 0.262870
O21   O     O_R   0.806019 0.182578 0.546580 -0.277571
O22   O     O_R   0.923814 0.243375 0.367920 -0.178349
F5    F     F_    0.869093 0.360849 0.689187 -0.556099
F6    F     F_    0.129220 0.650660 0.689031 -0.515527
F7    F     F_    0.129698 0.613407 0.280587 -0.583021
F8    F     F_    0.882275 0.449645 0.258504 -0.500932

loop_
_geom_bond_atom_site_label_1
_geom_bond_atom_site_label_2
_geom_bond_distance
_ccdc_geom_bond_type
N8    O20   1.302251 A    
C3    C17   1.421122 S    
C8    C9    1.565454 S    
C7    H4    1.112410 S    
C13   C18   1.345331 A    
Zn1   O7    2.020055 S    
C22   F2    1.354096 S    
C15   C16   1.406699 A    
C20   N6    1.461463 S    
C14   C15   1.437557 A    
C8    H2    1.096895 S    
C16   H5    1.083212 S    
O7    C4    1.293691 A    
C15   N5    1.438446 S    
N6    O16   1.301253 A    
C5    C6    1.563266 S    
C5    F3    1.391777 S    
C19   C20   1.537031 S    
Zn1   N2    2.029395 S    
N7    O18   1.300250 A    
O5    C3    1.289790 A    
C19   F1    1.387476 S    
N9    O21   1.300588 A    
C7    C9    1.562282 S    
C25   H9    1.094562 S    
C23   N2    1.369472 A    
N8    O19   1.301218 A    
C7    F6    1.384566 S    
Zn2   N1    2.030922 S    
C5    N3    1.468330 S    
O3    Zn1   2.032523 S    
C25   H8    1.094009 S    
C5    C9    1.586218 S    
N5    O14   1.299895 A    
C26   F4    1.374342 S    
N4    O11   1.300841 A    
C6    N9    1.477077 S    
C12   H3    1.107432 S    
O3    C2    1.295584 A    
C22   C23   1.425840 A    
C12   F8    1.385933 S    
C13   C20   1.505866 S    
N6    O15   1.302142 A    
C7    C11   1.545637 S    
N4    O12   1.301059 A    
N1    C22   1.372287 A    
C21   C24   1.421450 A    
C24   C25   1.466617 S    
C21   N1    1.369598 A    
C11   N4    1.472217 S    
Zn2   O8    2.032521 S    
C6    F5    1.396055 S    
C18   C19   1.478176 S    
C20   N7    1.471027 S    
H1    C11   1.113019 S    
C23   H7    1.081637 S    
O8    C4    1.291486 A    
C10   C12   1.562167 S    
C1    C14   1.453847 S    
N2    C24   1.356658 A    
C21   C26   1.497301 S    
C26   N8    1.459850 S    
C25   C26   1.498116 S    
Zn1   O5    1.999908 S    
N5    O13   1.300045 A    
N3    O9    1.298577 A    
C6    C10   1.573987 S    
O1    Zn1   2.030187 S    
O2    Zn2   1.999908 S    
O6    C3    1.293370 A    
O4    Zn2   2.020057 S    
C2    C9    1.473627 S    
C17   C18   1.372441 A    
C4    C10   1.461291 S    
C8    F7    1.390345 S    
C8    C12   1.523324 S    
C16   C17   1.396178 A    
O4    C2    1.296458 A    
N3    O10   1.302019 A    
O2    C1    1.289759 A    
C19   H6    1.109614 S    
N7    O17   1.301977 A    
Zn2   O6    2.030188 S    
C13   C14   1.393173 A    
C10   C11   1.582847 S    
N9    O22   1.301210 A    
O1    C1    1.308823 A    
