data_mof_unit_3673.cif
_audit_creation_date              2013-03-05T15:40:42-0500
_audit_creation_method            fapswitch 2.2
_symmetry_space_group_name_H-M    P1
_symmetry_Int_Tables_number       1
_space_group_crystal_system       triclinic
_cell_length_a                    19.001866
_cell_length_b                    11.060538
_cell_length_c                    18.82485
_cell_angle_alpha                 90.01376
_cell_angle_beta                  90.222793
_cell_angle_gamma                 89.853937
_cell_volume                      3956.39206012

loop_
_atom_site_label
_atom_site_type_symbol
_atom_site_description
_atom_site_fract_x
_atom_site_fract_y
_atom_site_fract_z
_atom_type_partial_charge
O1    O     O_R   0.043230 0.549300 0.667990 -0.524964
O2    O     O_R   0.956770 0.549300 0.332010 -0.486959
O3    O     O_R   0.543230 0.049300 0.667990 -0.523332
O4    O     O_R   0.456770 0.049300 0.332010 -0.487690
O5    O     O_R   0.178620 0.457600 0.674100 -0.453361
O6    O     O_R   0.821380 0.457600 0.325900 -0.442106
O7    O     O_R   0.678620 0.957600 0.674100 -0.451463
O8    O     O_R   0.321380 0.957600 0.325900 -0.440087
C1    C     C_R   0.239687 0.469355 0.646548 0.617653
C2    C     C_R   0.760603 0.467148 0.353400 0.575654
C3    C     C_R   0.739686 0.969360 0.646546 0.620062
C4    C     C_R   0.260606 0.967154 0.353403 0.579384
O9    O     O_R   0.284680 0.542100 0.669460 -0.493790
O10   O     O_R   0.715320 0.542100 0.330540 -0.456139
O11   O     O_R   0.784680 0.042100 0.669460 -0.493486
O12   O     O_R   0.215320 0.042100 0.330540 -0.453029
O13   O     O_R   0.262860 0.790390 0.676650 -0.513012
O14   O     O_R   0.737140 0.790390 0.323350 -0.477720
O15   O     O_R   0.762860 0.290390 0.676650 -0.511996
O16   O     O_R   0.237140 0.290390 0.323350 -0.475337
C5    C     C_R   0.226890 0.873070 0.647209 0.574112
C6    C     C_R   0.772706 0.873613 0.352038 0.547171
C7    C     C_R   0.726887 0.373063 0.647205 0.578086
C8    C     C_R   0.272708 0.373608 0.352041 0.549892
O17   O     O_R   0.167460 0.907030 0.670940 -0.446840
O18   O     O_R   0.832540 0.907030 0.329060 -0.486470
O19   O     O_R   0.667460 0.407030 0.670940 -0.443845
O20   O     O_R   0.332540 0.407030 0.329060 -0.484836
O21   O     O_R   0.053950 0.750220 0.675100 -0.447173
O22   O     O_R   0.946050 0.750220 0.324900 -0.458899
O23   O     O_R   0.553950 0.250220 0.675100 -0.446586
O24   O     O_R   0.446050 0.250220 0.324900 -0.458972
C9    C     C_R   0.027657 0.653792 0.645517 0.584029
C10   C     C_R   0.973284 0.655864 0.353548 0.560412
C11   C     C_R   0.527661 0.153793 0.645513 0.584164
C12   C     C_R   0.473290 0.155864 0.353543 0.558968
O25   O     O_R   0.043300 0.547370 0.827390 -0.503572
O26   O     O_R   0.956700 0.547370 0.172610 -0.500073
O27   O     O_R   0.543300 0.047370 0.827390 -0.494103
O28   O     O_R   0.456700 0.047370 0.172610 -0.501089
O29   O     O_R   0.178690 0.455820 0.821860 -0.482801
O30   O     O_R   0.821310 0.455820 0.178140 -0.500123
O31   O     O_R   0.678690 0.955820 0.821860 -0.483247
O32   O     O_R   0.321310 0.955820 0.178140 -0.487370
C13   C     C_R   0.238551 0.468830 0.851721 0.559339
C14   C     C_R   0.760322 0.462893 0.150926 0.561478
C15   C     C_R   0.738579 0.968849 0.851711 0.560156
C16   C     C_R   0.261491 0.968719 0.148254 0.541717
O33   O     O_R   0.284750 0.540170 0.828860 -0.489166
O34   O     O_R   0.715250 0.540170 0.171140 -0.487553
O35   O     O_R   0.784750 0.040170 0.828860 -0.495493
O36   O     O_R   0.215250 0.040170 0.171140 -0.496068
O37   O     O_R   0.262920 0.788600 0.824420 -0.464196
O38   O     O_R   0.737080 0.788600 0.175580 -0.448915
O39   O     O_R   0.762920 0.288600 0.824420 -0.490149
O40   O     O_R   0.237080 0.288600 0.175580 -0.463118
C17   C     C_R   0.228797 0.875710 0.851427 0.571514
C18   C     C_R   0.771250 0.875368 0.148471 0.573937
C19   C     C_R   0.726727 0.371780 0.853642 0.588730
C20   C     C_R   0.271211 0.375589 0.148541 0.564963
O41   O     O_R   0.167530 0.905110 0.830340 -0.533362
O42   O     O_R   0.832470 0.905110 0.169660 -0.537406
O43   O     O_R   0.667530 0.405110 0.830340 -0.515473
O44   O     O_R   0.332470 0.405110 0.169660 -0.534131
O45   O     O_R   0.054010 0.748440 0.822860 -0.486743
O46   O     O_R   0.945990 0.748440 0.177140 -0.485270
O47   O     O_R   0.554010 0.248440 0.822860 -0.493157
O48   O     O_R   0.445990 0.248440 0.177140 -0.488200
C21   C     C_R   0.029108 0.652355 0.850375 0.569632
C22   C     C_R   0.969520 0.651742 0.148634 0.563058
C23   C     C_R   0.530614 0.151923 0.851442 0.565909
C24   C     C_R   0.470958 0.152220 0.149682 0.557550
Cr1   Cr    Cr6+3 0.113970 0.508630 0.747920 1.106390
Cr2   Cr    Cr6+3 0.886030 0.508630 0.252080 1.112204
Cr3   Cr    Cr6+3 0.613970 0.008630 0.747920 1.113083
Cr4   Cr    Cr6+3 0.386030 0.008630 0.252080 1.115552
Cr5   Cr    Cr6+3 0.269200 0.666740 0.749850 1.103718
Cr6   Cr    Cr6+3 0.730800 0.666740 0.250150 1.143465
Cr7   Cr    Cr6+3 0.769200 0.166740 0.749850 1.087384
Cr8   Cr    Cr6+3 0.230800 0.166740 0.250150 1.136645
Cr9   Cr    Cr6+3 0.112300 0.820070 0.749800 1.124688
Cr10  Cr    Cr6+3 0.887700 0.820070 0.250200 1.104048
Cr11  Cr    Cr6+3 0.612300 0.320070 0.749800 1.129384
Cr12  Cr    Cr6+3 0.387700 0.320070 0.250200 1.100778
O49   O     O_3   0.165160 0.665150 0.749190 -0.306451
O50   O     O_3   0.834840 0.665150 0.250810 -0.300532
O51   O     O_3   0.665160 0.165150 0.749190 -0.311146
O52   O     O_3   0.334840 0.165150 0.250810 -0.301748
C25   C     C_2   0.247801 0.909358 0.576161 -0.116560
C26   C     C_2   0.752171 0.905253 0.423280 -0.135545
C27   C     C_2   0.747792 0.409335 0.576152 -0.116922
C28   C     C_2   0.252174 0.405245 0.423285 -0.135936
C29   C     C_2   0.246135 0.908048 0.420893 -0.067969
C30   C     C_2   0.754041 0.928135 0.575727 -0.039543
C31   C     C_2   0.746125 0.408029 0.420884 -0.067752
C32   C     C_2   0.254051 0.428107 0.575733 -0.039120
C33   C     C_2   0.295633 0.850656 0.459683 0.183149
C34   C     C_2   0.725215 0.832828 0.544776 0.209067
C35   C     C_2   0.795617 0.350621 0.459672 0.183605
C36   C     C_2   0.225206 0.332821 0.544778 0.209575
C37   C     C_2   0.285245 0.831950 0.535864 -0.152418
C38   C     C_2   0.736755 0.814167 0.468668 -0.102836
C39   C     C_2   0.785228 0.331916 0.535853 -0.152950
C40   C     C_2   0.236744 0.314161 0.468670 -0.102998
C41   C     C_R   0.008789 0.668191 0.424064 0.002667
C42   C     C_R   0.994265 0.655608 0.573393 0.013778
C43   C     C_R   0.508814 0.168192 0.424049 0.002531
C44   C     C_R   0.494288 0.155611 0.573378 0.013050
C45   C     C_R   0.996259 0.891498 0.433444 0.261054
C46   C     C_R   0.947369 0.863202 0.572741 0.244766
C47   C     C_R   0.496299 0.391496 0.433420 0.261444
C48   C     C_R   0.447398 0.363216 0.572715 0.244985
C49   C     C_R   0.961770 0.986009 0.467636 -0.039250
C50   C     C_R   0.934419 0.969712 0.535401 -0.082766
C51   C     C_R   0.461810 0.486012 0.467606 -0.039189
C52   C     C_R   0.434452 0.469723 0.535369 -0.082677
C53   C     C_R   0.981184 0.765511 0.538265 -0.018516
C54   C     C_R   0.996802 0.775100 0.464547 -0.033017
C55   C     C_R   0.481214 0.265518 0.538247 -0.018716
C56   C     C_R   0.496837 0.275103 0.464529 -0.032779
C57   C     C_R   0.002111 0.549624 0.531634 -0.049215
C58   C     C_R   0.022380 0.559399 0.460372 -0.048005
C59   C     C_R   0.502142 0.049626 0.531620 -0.049626
C60   C     C_R   0.522408 0.059402 0.460356 -0.047825
C61   C     C_R   0.992814 0.433077 0.560125 -0.054254
C62   C     C_R   0.050191 0.456660 0.425597 -0.078236
C63   C     C_R   0.492847 0.933077 0.560109 -0.054321
C64   C     C_R   0.550216 0.956664 0.425578 -0.078414
C65   C     C_R   0.020071 0.332162 0.526138 0.313182
C66   C     C_R   0.050076 0.343743 0.458754 0.298267
C67   C     C_R   0.520105 0.832165 0.526120 0.312910
C68   C     C_R   0.550104 0.843747 0.458734 0.297876
C69   C     C_2   0.257414 0.931791 0.914796 0.222225
C70   C     C_2   0.742337 0.930459 0.084948 0.228025
C71   C     C_2   0.741176 0.402574 0.926666 0.239573
C72   C     C_2   0.242522 0.431648 0.085132 0.217890
C73   C     C_2   0.253175 0.933827 0.074872 -0.061037
C74   C     C_2   0.747038 0.934285 0.925105 -0.052596
C75   C     C_2   0.746594 0.392967 0.087416 -0.066187
C76   C     C_2   0.246972 0.433850 0.925072 -0.058651
C77   C     C_2   0.229640 0.019702 0.030025 -0.110970
C78   C     C_2   0.768850 0.021037 0.970191 -0.122566
C79   C     C_2   0.691226 0.419908 0.046967 -0.119044
C80   C     C_2   0.270165 0.519703 0.969989 -0.112948
C81   C     C_2   0.213750 0.993944 0.956596 -0.136041
C82   C     C_2   0.784729 0.995970 0.043829 -0.136589
C83   C     C_2   0.688468 0.383148 0.973202 -0.129923
C84   C     C_2   0.286040 0.493888 0.043427 -0.135524
C85   C     C_2   0.996337 0.660429 0.919383 -0.072811
C86   C     C_2   0.995681 0.656734 0.076669 -0.075667
C87   C     C_2   0.504785 0.157223 0.923512 -0.087947
C88   C     C_2   0.504096 0.160192 0.080867 -0.093851
C89   C     C_2   0.980935 0.562345 0.034380 -0.071624
C90   C     C_2   0.994661 0.560554 0.959256 -0.074253
C91   C     C_2   0.505350 0.060705 0.040671 -0.075854
C92   C     C_2   0.519816 0.062827 0.965741 -0.089718
H1    H     H_    0.958443 0.479408 0.055221 0.198332
H2    H     H_    0.005361 0.471726 0.937022 0.195696
H3    H     H_    0.493630 0.972043 0.062434 0.214231
H4    H     H_    0.542547 0.979894 0.944870 0.209022
H5    H     H_    0.018326 0.739915 0.056563 0.097177
H6    H     H_    0.983380 0.748796 0.940903 0.105277
H7    H     H_    0.517815 0.248369 0.059717 0.094921
H8    H     H_    0.481935 0.240422 0.943689 0.102614
Cl1   Cl    Cl    0.373139 0.789279 0.422952 -0.595699
Cl2   Cl    Cl    0.686021 0.718506 0.595691 -0.505631
Cl3   Cl    Cl    0.873116 0.289229 0.422936 -0.596574
Cl4   Cl    Cl    0.185987 0.218519 0.595688 -0.510006
H9    H     H_    0.161183 0.018870 0.938910 0.141488
H10   H     H_    0.836234 0.024802 0.062395 0.136456
H11   H     H_    0.638021 0.348383 0.954887 0.114094
H12   H     H_    0.338491 0.518893 0.061204 0.143585
H13   H     H_    0.268035 0.843814 0.057294 0.142408
H14   H     H_    0.734050 0.843401 0.942339 0.169587
H15   H     H_    0.787137 0.331528 0.068365 0.146798
H16   H     H_    0.232420 0.343793 0.942579 0.145006
Cl5   Cl    Cl    0.346756 0.905201 0.937389 -0.620097
Cl6   Cl    Cl    0.654381 0.896551 0.061006 -0.638348
Cl7   Cl    Cl    0.823017 0.468038 0.948283 -0.649513
Cl8   Cl    Cl    0.153308 0.404960 0.062376 -0.634470
H17   H     H_    0.308820 0.751252 0.558871 0.178641
H18   H     H_    0.734533 0.721309 0.449809 0.194549
H19   H     H_    0.808799 0.251215 0.558861 0.178580
H20   H     H_    0.234508 0.221307 0.449807 0.194353
H21   H     H_    0.195354 0.928726 0.444395 0.132721
H22   H     H_    0.789511 0.985628 0.546312 0.051688
H23   H     H_    0.695345 0.428713 0.444385 0.132903
H24   H     H_    0.289539 0.485573 0.546323 0.051805
H25   H     H_    0.224788 0.990317 0.553576 0.174805
H26   H     H_    0.755224 0.999382 0.439040 0.102543
H27   H     H_    0.724782 0.490295 0.553565 0.174647
H28   H     H_    0.255242 0.499371 0.439051 0.102860
H29   H     H_    0.957129 0.073121 0.442103 0.243873
H30   H     H_    0.905977 0.042925 0.560477 0.190943
H31   H     H_    0.457167 0.573120 0.442067 0.243940
H32   H     H_    0.406005 0.542938 0.560438 0.191032
Cl9   Cl    Cl    0.046015 0.926091 0.357051 -0.518261
Cl10  Cl    Cl    0.910699 0.850703 0.658395 -0.557747
Cl11  Cl    Cl    0.546046 0.426063 0.357014 -0.521953
Cl12  Cl    Cl    0.410714 0.350728 0.658364 -0.558476
H33   H     H_    0.071329 0.464002 0.372391 0.160336
H34   H     H_    0.966474 0.420178 0.610482 0.176346
H35   H     H_    0.571347 0.964009 0.372369 0.159236
H36   H     H_    0.466504 0.920172 0.610464 0.177362
Cl13  Cl    Cl    0.020032 0.195939 0.572990 -0.519687
Cl14  Cl    Cl    0.082813 0.217794 0.412668 -0.498485
Cl15  Cl    Cl    0.520068 0.695939 0.572970 -0.516759
Cl16  Cl    Cl    0.582836 0.717798 0.412642 -0.499472
H37   H     H_    0.214268 0.108755 0.049079 0.178774
H38   H     H_    0.782589 0.110790 0.951227 0.156374
H39   H     H_    0.648531 0.476363 0.066338 0.174618
H40   H     H_    0.285233 0.608799 0.951001 0.176934

loop_
_geom_bond_atom_site_label_1
_geom_bond_atom_site_label_2
_geom_bond_distance
_ccdc_geom_bond_type
C18   O42   1.272334 A    
Cr11  O51   1.984038 S    
O4    C12   1.285592 A    
O47   Cr11  1.939826 S    
O39   C19   1.273373 A    
O20   Cr12  2.057623 S    
O29   C13   1.275285 A    
C32   H24   1.081910 S    
C45   Cl9   1.766657 S    
C22   C86   1.446001 S    
C36   C40   1.464743 S    
C80   C84   1.442303 S    
C67   Cl15  1.746046 S    
O29   Cr1   1.942787 S    
O26   C22   1.264216 A    
C43   C56   1.424900 A    
O1    C9    1.264832 A    
C59   C60   1.401414 A    
C5    C25   1.453611 S    
C18   C70   1.447978 S    
O7    C3    1.279802 A    
C20   O44   1.271972 A    
O39   Cr7   1.949628 S    
C16   C73   1.442415 S    
O36   Cr8   2.063254 S    
C39   H19   1.086990 S    
O24   C12   1.281860 A    
C90   H2    1.086847 S    
O25   C21   1.267827 A    
O35   Cr7   2.062719 S    
C26   H26   1.084133 S    
C31   C35   1.346332 D    
C46   Cl10  1.764619 S    
C30   C34   1.323209 D    
C51   C52   1.391302 A    
O21   C9    1.302897 A    
O8    Cr4   1.943198 S    
O23   Cr11  1.948176 S    
C42   C57   1.419123 A    
O30   C14   1.267480 A    
O32   Cr4   1.944470 S    
C78   C82   1.444317 S    
C26   C38   1.354507 D    
C1    O9    1.250927 A    
C11   C44   1.496581 S    
C47   Cl11  1.766701 S    
C57   C61   1.408125 A    
C3    O11   1.250923 A    
O41   Cr9   2.068042 S    
O11   Cr7   2.068230 S    
C4    O12   1.267488 A    
C24   C88   1.445373 S    
C86   C89   1.342220 D    
C74   H14   1.085664 S    
C7    O19   1.271852 A    
C15   O35   1.258441 A    
O3    Cr3   2.062705 S    
C63   H36   1.083336 S    
C46   C50   1.392849 A    
O47   C23   1.277231 A    
O2    Cr2   2.064039 S    
C77   C81   1.442251 S    
C60   C64   1.413638 A    
Cr6   O50   1.976976 S    
O42   Cr10  2.065937 S    
Cr5   O49   1.977068 S    
O18   Cr10  2.057623 S    
O28   C24   1.267809 A    
C12   C43   1.493077 S    
O17   Cr9   2.060450 S    
C44   C55   1.405138 A    
C17   C69   1.449058 S    
C75   C79   1.329576 D    
C43   C60   1.406834 A    
O24   Cr12  1.946199 S    
C64   C68   1.396344 A    
C46   C53   1.414560 A    
Cr7   O51   1.977068 S    
C76   H16   1.086058 S    
C83   H11   1.088508 S    
C45   C54   1.414442 A    
O6    Cr2   1.943198 S    
C35   Cl3   1.763677 S    
C62   H33   1.083718 S    
O31   Cr3   1.942787 S    
C70   C82   1.334596 D    
C81   H9    1.086572 S    
C61   H34   1.083338 S    
O30   Cr2   1.944470 S    
O22   C10   1.281854 A    
C31   H23   1.086872 S    
O48   Cr12  1.937244 S    
C76   C80   1.345264 D    
C92   H4    1.086964 S    
C71   C83   1.350817 D    
C80   H40   1.087778 S    
C35   C39   1.463206 S    
C2    O10   1.267481 A    
O16   Cr8   1.944843 S    
O7    Cr3   1.941187 S    
O26   Cr2   2.060046 S    
C34   C38   1.464730 S    
C91   H3    1.086803 S    
C13   C76   1.442280 S    
O13   C5    1.266782 A    
Cr4   O52   1.983688 S    
O28   Cr4   2.060046 S    
O43   Cr11  2.068042 S    
O48   C24   1.274353 A    
O12   Cr8   2.069717 S    
C64   H35   1.083721 S    
C38   H18   1.087475 S    
C58   C62   1.413639 A    
C77   H37   1.087811 S    
O15   C7    1.266780 A    
C85   C90   1.336215 D    
O5    C1    1.279811 A    
C66   Cl14  1.754846 S    
O34   Cr6   2.063254 S    
O46   Cr10  1.937244 S    
C65   Cl13  1.746045 S    
O3    C11   1.264844 A    
O45   Cr9   1.939826 S    
C88   C91   1.335499 D    
C13   O33   1.259014 A    
O8    C4    1.271555 A    
C33   C37   1.463192 S    
C72   Cl8   1.772389 S    
O13   Cr5   1.944874 S    
C6    C26   1.441005 S    
C72   C84   1.335019 D    
C87   C92   1.341906 D    
C70   Cl6   1.770422 S    
O15   Cr7   1.944874 S    
C1    C32   1.435826 S    
Cr1   O49   1.988002 S    
C57   C58   1.401403 A    
C34   Cl2   1.755871 S    
C3    C30   1.435808 S    
Cr3   O51   1.988002 S    
O14   Cr6   1.944843 S    
C40   H20   1.087474 S    
O21   Cr9   1.948176 S    
C68   Cl16  1.754853 S    
O27   Cr3   2.058471 S    
C73   C77   1.345423 D    
C82   H10   1.086544 S    
C42   C53   1.405097 A    
C74   C78   1.346005 D    
O37   Cr5   1.949628 S    
C8    C28   1.441024 S    
O23   C11   1.302892 A    
C4    C29   1.456422 S    
C69   C81   1.334947 D    
C78   H38   1.087799 S    
C44   C59   1.419149 A    
C51   H31   1.080101 S    
C67   C68   1.398799 A    
C29   C33   1.346345 D    
C59   C63   1.408130 A    
C48   C52   1.392863 A    
C23   C87   1.445669 S    
C8    O20   1.273744 A    
C49   C50   1.391293 A    
O38   C18   1.268478 A    
O25   Cr1   2.058471 S    
O45   C21   1.275300 A    
C86   H5    1.085492 S    
C5    O17   1.271855 A    
O27   C23   1.264750 A    
O22   Cr10  1.946199 S    
C50   H30   1.081776 S    
C25   C37   1.347415 D    
C75   H15   1.087779 S    
O14   C6    1.263245 A    
C10   C41   1.493087 S    
C49   H29   1.080097 S    
O5    Cr1   1.941187 S    
C9    C42   1.496551 S    
C30   H22   1.081905 S    
C27   C39   1.347426 D    
O37   C17   1.267420 A    
O6    C2    1.271569 A    
C48   C55   1.414564 A    
C79   H39   1.086598 S    
C55   C56   1.424272 A    
C17   O41   1.270115 A    
C45   C49   1.391391 A    
Cr2   O50   1.983688 S    
C48   Cl12  1.764611 S    
C14   O34   1.267877 A    
C19   O43   1.260054 A    
O40   Cr8   1.950512 S    
O44   Cr12  2.065937 S    
C20   C72   1.449151 S    
C36   Cl4   1.755876 S    
C21   C85   1.445416 S    
O19   Cr11  2.060450 S    
C73   H13   1.086079 S    
C65   C66   1.398796 A    
O1    Cr1   2.062705 S    
C79   C83   1.447601 S    
Cr8   O52   1.976976 S    
O32   C16   1.274009 A    
Cr10  O50   1.988462 S    
C25   H25   1.081920 S    
O9    Cr5   2.068230 S    
O2    C10   1.285599 A    
O46   C22   1.277076 A    
Cr12  O52   1.988462 S    
C27   H27   1.081919 S    
C2    C31   1.456410 S    
C69   Cl5   1.772396 S    
C33   Cl1   1.763682 S    
C32   C36   1.323216 D    
C15   C74   1.441913 S    
C19   C71   1.441685 S    
C84   H12   1.086549 S    
O33   Cr5   2.062719 S    
C41   C58   1.406852 A    
C7    C27   1.453629 S    
O10   Cr6   2.069717 S    
C89   H1    1.086988 S    
C41   C54   1.424936 A    
C37   H17   1.086992 S    
C63   C67   1.386625 A    
O4    Cr4   2.064039 S    
C88   H7    1.086256 S    
C28   C40   1.354513 D    
C71   Cl7   1.763225 S    
C52   H32   1.081775 S    
C61   C65   1.386623 A    
C16   O36   1.257566 A    
O40   C20   1.269414 A    
C87   H8    1.085676 S    
C6    O18   1.273740 A    
C91   C92   1.438347 S    
C62   C66   1.396346 A    
C47   C56   1.414445 A    
C47   C51   1.391390 A    
C85   H6    1.085995 S    
C89   C90   1.439174 S    
C53   C54   1.424266 A    
O31   C15   1.275701 A    
O16   C8    1.263248 A    
Cr9   O49   1.984038 S    
C28   H28   1.084138 S    
C14   C75   1.446994 S    
O38   Cr6   1.950512 S    
C29   H21   1.086873 S    
