data_mof_unit_3557.cif
_audit_creation_date              2012-12-10T19:28:34-0500
_audit_creation_method            fapswitch 2.2
_symmetry_space_group_name_H-M    P1
_symmetry_Int_Tables_number       1
_space_group_crystal_system       triclinic
_cell_length_a                    27.58471
_cell_length_b                    10.527906
_cell_length_c                    9.759734
_cell_angle_alpha                 90.385732
_cell_angle_beta                  90.090674
_cell_angle_gamma                 89.704769
_cell_volume                      2834.21162211

loop_
_atom_site_label
_atom_site_type_symbol
_atom_type_description
_atom_site_fract_x
_atom_site_fract_y
_atom_site_fract_z
_atom_type_partial_charge
C1    C     C_R   0.501589 0.257610 0.499311 0.879722
C2    C     C_R   0.498413 0.742390 0.500691 0.879018
C3    C     C_R   0.099996 0.505990 0.630467 -0.089846
C4    C     C_R   0.900068 0.496847 0.631990 -0.089878
C5    C     C_R   0.122920 0.394172 0.582150 -0.002085
C6    C     C_R   0.877042 0.607955 0.583556 -0.001824
C7    C     C_R   0.096823 0.280873 0.570692 -0.154832
C8    C     C_R   0.903102 0.721103 0.571575 -0.154962
C9    C     C_R   0.125723 0.621876 0.639725 -0.123731
C10   C     C_R   0.874344 0.381111 0.641972 -0.123650
C11   C     C_R   0.352669 0.502348 0.504117 -0.106374
C12   C     C_R   0.647284 0.498867 0.504788 -0.105634
C13   C     C_R   0.974754 0.386770 0.687649 -0.036550
C14   C     C_R   0.025480 0.616866 0.687018 -0.036296
C15   C     C_R   0.975213 0.617134 0.659453 0.083702
C16   C     C_R   0.024939 0.386105 0.659273 0.083532
C17   C     C_R   0.949681 0.500731 0.663213 0.052455
C18   C     C_R   0.050477 0.502556 0.662403 0.052549
C19   C     C_R   0.948474 0.278759 0.730792 0.133449
C20   C     C_R   0.051888 0.725493 0.729536 0.133396
C21   C     C_R   0.897488 0.274291 0.705476 0.153428
C22   C     C_R   0.102797 0.729551 0.703459 0.153513
C23   C     C_R   0.405889 0.500317 0.500283 0.874491
C24   C     C_R   0.594094 0.500009 0.500530 0.874313
C25   C     C_R   0.048439 0.276764 0.608787 -0.249835
C26   C     C_R   0.951577 0.725760 0.609076 -0.249711
C27   C     C_3   0.529558 0.040989 0.601346 -0.214570
C28   C     C_3   0.470447 0.959011 0.398663 -0.213902
C29   C     C_3   0.544988 0.952420 0.481638 -0.212886
C30   C     C_3   0.455017 0.047580 0.518373 -0.212322
C31   C     C_3   0.498156 0.877427 0.502455 -0.070493
C32   C     C_3   0.501849 0.122573 0.497556 -0.070461
C33   C     C_3   0.482820 0.964166 0.621081 0.238284
C34   C     C_3   0.517186 0.035835 0.378930 0.238674
C35   C     C_3   0.485166 0.391978 0.048114 -0.125496
C36   C     C_3   0.514849 0.608013 0.951873 -0.127900
C37   C     C_3   0.528025 0.413139 0.952318 0.292951
C38   C     C_3   0.471990 0.586872 0.047660 0.295305
C39   C     C_3   0.456839 0.479888 0.950722 -0.119892
C40   C     C_3   0.543169 0.520113 0.049286 -0.123015
C41   C     C_R   0.171416 0.398861 0.543785 0.524390
C42   C     C_R   0.828498 0.602662 0.545373 0.522799
C43   C     C_R   0.173679 0.622053 0.587865 0.531422
C44   C     C_R   0.826215 0.380255 0.590870 0.532332
C45   C     C_R   0.279865 0.502287 0.650061 0.222296
C46   C     C_R   0.720097 0.506891 0.650971 0.223538
C47   C     C_R   0.330036 0.499143 0.633741 -0.194688
C48   C     C_R   0.669931 0.510416 0.634101 -0.197893
C49   C     C_R   0.326016 0.508509 0.380969 -0.211792
C50   C     C_R   0.673876 0.484700 0.382377 -0.211917
C51   C     C_R   0.275713 0.512820 0.378564 -0.101161
C52   C     C_R   0.724171 0.479856 0.380542 -0.102761
C53   C     C_R   0.249988 0.510094 0.522080 0.007515
C54   C     C_R   0.749922 0.491129 0.523843 0.008391
H1    H     H_    0.344589 0.510324 0.283430 0.170877
H2    H     H_    0.655231 0.476310 0.285081 0.169925
H3    H     H_    0.554220 0.075903 0.682886 0.147042
H4    H     H_    0.445788 0.924081 0.317124 0.146997
H5    H     H_    0.471337 0.302762 0.092528 0.123042
H6    H     H_    0.528680 0.697217 0.907430 0.122423
H7    H     H_    0.420525 0.463717 0.904869 0.127508
H8    H     H_    0.579490 0.536165 0.095235 0.132571
H9    H     H_    0.257162 0.512202 0.446288 0.220034
H10   H     H_    0.742733 0.484493 0.448237 0.220138
H11   H     H_    0.113387 0.195918 0.528501 0.186997
H12   H     H_    0.886435 0.805468 0.529396 0.187124
H13   H     H_    0.647475 0.522526 0.723696 0.174283
H14   H     H_    0.352493 0.494112 0.724121 0.171564
H15   H     H_    0.028790 0.189364 0.590959 0.141237
H16   H     H_    0.971179 0.812890 0.590759 0.141229
H17   H     H_    0.581476 0.909522 0.466729 0.148626
H18   H     H_    0.418531 0.090478 0.533295 0.148570
N1    N     N_R   0.195447 0.511090 0.548539 -0.332124
N2    N     N_R   0.804457 0.490557 0.550785 -0.332345
N3    N     N_3   0.499960 0.500030 0.863290 -0.086059
N4    N     N_3   0.500040 0.499970 0.136710 -0.086197
O1    O     O_R   0.500000 0.313960 0.616610 -0.608916
O2    O     O_R   0.500000 0.686040 0.383390 -0.609053
O3    O     O_R   0.500020 0.313950 0.383350 -0.632990
O4    O     O_R   0.499980 0.686050 0.616650 -0.633190
O5    O     O_R   0.428750 0.500030 0.616610 -0.628606
O6    O     O_R   0.571250 0.499970 0.383390 -0.622074
O7    O     O_R   0.428770 0.500020 0.383360 -0.616333
O8    O     O_R   0.571230 0.499980 0.616640 -0.623446
O9    O     O_2   0.194795 0.292384 0.502734 -0.559198
O10   O     O_2   0.805082 0.708436 0.503716 -0.560034
O11   O     O_2   0.801036 0.271686 0.578086 -0.563884
O12   O     O_2   0.198678 0.730574 0.573666 -0.564186
Zn1   Zn    Zn3+2 0.499990 0.500010 0.655740 0.937624
Zn2   Zn    Zn3+2 0.500010 0.499990 0.344260 0.941466
C55   C     C_3   0.462535 0.921291 0.758907 -0.391868
C56   C     C_3   0.447562 0.033671 0.849045 -0.878273
H19   H     H_    0.479383 0.093925 0.872591 0.260750
H20   H     H_    0.419343 0.091770 0.797327 0.265185
H21   H     H_    0.432618 0.998177 0.947107 0.250443
H22   H     H_    0.430649 0.859340 0.740829 0.210863
H23   H     H_    0.490750 0.866136 0.813323 0.211259
C57   C     C_3   0.537471 0.078776 0.241127 -0.392271
C58   C     C_3   0.552447 0.966462 0.150905 -0.877652
H24   H     H_    0.580628 0.908255 0.202642 0.266190
H25   H     H_    0.520619 0.906307 0.127181 0.260613
H26   H     H_    0.567440 0.002026 0.052931 0.250063
H27   H     H_    0.509258 0.133959 0.186744 0.211464
H28   H     H_    0.569356 0.140718 0.259250 0.210435
C59   C     C_3   0.562153 0.311957 0.896395 -0.902731
H29   H     H_    0.580086 0.262290 0.982829 0.220650
H30   H     H_    0.541396 0.242031 0.835810 0.247787
H31   H     H_    0.590240 0.356055 0.831346 0.252262
C60   C     C_3   0.437939 0.688251 0.103496 -0.901639
H32   H     H_    0.419964 0.737773 0.017029 0.220310
H33   H     H_    0.409898 0.644352 0.168814 0.251919
H34   H     H_    0.458760 0.758239 0.163818 0.247104
C61   C     C_3   0.744650 0.518899 0.790462 -0.372212
C62   C     C_3   0.710954 0.537753 0.913496 -0.899090
H35   H     H_    0.689439 0.626591 0.902500 0.261923
H36   H     H_    0.686412 0.455114 0.924561 0.257315
H37   H     H_    0.732985 0.545783 0.008482 0.267679
H38   H     H_    0.766419 0.431715 0.809105 0.213828
H39   H     H_    0.769860 0.600771 0.787927 0.217592
C63   C     C_3   0.255391 0.497121 0.789856 -0.372139
C64   C     C_3   0.289065 0.480644 0.913382 -0.900336
H40   H     H_    0.310399 0.391260 0.903662 0.260742
H41   H     H_    0.313780 0.563165 0.923644 0.257173
H42   H     H_    0.267033 0.475204 0.008294 0.268146
H43   H     H_    0.234350 0.586119 0.805945 0.215228
H44   H     H_    0.229531 0.416590 0.789749 0.215813
C65   C     C_3   0.868541 0.159085 0.751778 -0.349758
C66   C     C_3   0.870609 0.052247 0.645343 -0.779041
H45   H     H_    0.908420 0.017670 0.632713 0.214748
H46   H     H_    0.847754 0.972069 0.679777 0.258759
H47   H     H_    0.857214 0.084910 0.544268 0.297732
H48   H     H_    0.881712 0.121464 0.850582 0.194482
H49   H     H_    0.830566 0.184330 0.776930 0.237368
C67   C     C_3   0.131967 0.845048 0.749720 -0.350224
C68   C     C_3   0.129536 0.951068 0.643908 -0.778488
H50   H     H_    0.142641 0.917653 0.542451 0.297910
H51   H     H_    0.091682 0.985474 0.632011 0.214588
H52   H     H_    0.152471 0.031561 0.678442 0.258982
H53   H     H_    0.119192 0.883382 0.849074 0.194610
H54   H     H_    0.170041 0.819917 0.773785 0.236459
C69   C     C_3   0.972745 0.184906 0.828848 -0.440677
C70   C     C_3   0.964583 0.225467 0.977824 -0.843675
H55   H     H_    0.983157 0.317068 0.998333 0.264122
H56   H     H_    0.925512 0.237656 0.001332 0.253541
H57   H     H_    0.979943 0.152434 0.047313 0.250481
H58   H     H_    0.959983 0.086496 0.811388 0.204082
H59   H     H_    0.012448 0.179191 0.816395 0.217826
C71   C     C_3   0.027938 0.820599 0.827979 -0.440582
C72   C     C_3   0.036299 0.781407 0.976793 -0.843428
H60   H     H_    0.075405 0.769207 0.000050 0.253651
H61   H     H_    0.017665 0.690125 0.997088 0.264064
H62   H     H_    0.021129 0.855216 0.046595 0.250391
H63   H     H_    0.040842 0.918697 0.810841 0.204321
H64   H     H_    0.988224 0.826709 0.815668 0.217478

loop_
_geom_bond_atom_site_label_1
_geom_bond_atom_site_label_2
_ccdc_geom_bond_type
C43   N1    A    
C68   H52   S    
C8    H12   S    
C27   C29   S    
C1    O1    A    
C14   C18   A    
C11   C47   A    
C12   C48   A    
C66   H45   S    
C62   H35   S    
C40   H8    S    
C68   H50   S    
C38   N4    S    
O2    Zn2   S    
C59   H30   S    
O1    Zn1   S    
C23   O7    A    
C22   C67   S    
C11   C49   A    
C43   O12   S    
C35   C37   S    
C37   C40   S    
C60   H33   S    
C67   H54   S    
C38   C39   S    
C63   H44   S    
C9    C22   A    
C57   H27   S    
C8    C26   A    
C3    C18   A    
C35   H5    S    
C11   C23   S    
O4    Zn1   S    
C24   O6    A    
C65   H48   S    
O3    Zn2   S    
C55   H22   S    
C61   H39   S    
C6    C42   A    
C49   C51   A    
C50   C52   A    
C20   C71   S    
C42   O10   S    
C39   N3    S    
C21   C65   S    
C44   O11   S    
C30   C33   S    
O5    Zn1   S    
C37   N3    S    
C28   C34   S    
C19   C69   S    
C54   N2    S    
C70   H57   S    
C71   H64   S    
C56   H20   S    
C52   C54   A    
C45   C47   A    
C10   C21   A    
C39   H7    S    
C59   H31   S    
C46   C48   A    
C35   N4    S    
C9    C43   A    
C42   N2    A    
C13   C19   A    
C10   C44   A    
C14   C20   A    
C36   C40   S    
C51   H9    S    
C71   C72   S    
C4    C6    A    
C27   H3    S    
C60   H34   S    
C55   C56   S    
C5    C7    A    
C69   H59   S    
C63   H43   S    
C15   C26   A    
C6    C8    A    
C3    C5    A    
C49   H1    S    
C41   N1    A    
C29   C34   S    
C56   H21   S    
C27   C33   S    
C40   N4    S    
C2    C31   S    
C51   C53   A    
C32   C34   S    
C35   C39   S    
C37   C59   S    
C2    O2    A    
C36   N3    S    
C7    H11   S    
C62   H36   S    
C58   H24   S    
C46   C54   A    
C31   C33   S    
O6    Zn2   S    
C55   H23   S    
C38   C60   S    
C44   N2    A    
C3    C9    A    
C64   H40   S    
C69   H58   S    
C4    C17   A    
C45   C63   S    
C58   H25   S    
C20   C22   A    
C69   C70   S    
C52   H10   S    
C26   H16   S    
C70   H56   S    
C72   H62   S    
C25   H15   S    
O8    Zn1   S    
C4    C10   A    
C65   C66   S    
C66   H47   S    
C47   H14   S    
C67   H53   S    
C63   C64   S    
C61   C62   S    
C16   C25   A    
C68   H51   S    
O7    Zn2   S    
C5    C41   A    
C23   O5    A    
C46   C61   S    
C19   C21   A    
C27   C32   S    
C14   C15   A    
C28   C31   S    
C53   N1    S    
C65   H49   S    
C30   H18   S    
C36   H6    S    
C66   H46   S    
C12   C50   A    
C15   C17   A    
C67   C68   S    
C28   H4    S    
C41   O9    S    
C59   H29   S    
C12   C24   S    
C7    C25   A    
C13   C17   A    
C72   H61   S    
C24   O8    A    
C29   C31   S    
C72   H60   S    
C36   C38   S    
C30   C32   S    
C1    O3    A    
C28   C30   S    
C56   H19   S    
C34   C57   S    
C1    C32   S    
C48   H13   S    
C50   H2    S    
C64   H41   S    
C62   H37   S    
C2    O4    A    
N3    Zn1   S    
C45   C53   A    
C61   H38   S    
C58   H26   S    
C16   C18   A    
C57   C58   S    
C71   H63   S    
C13   C16   A    
C64   H42   S    
C70   H55   S    
C60   H32   S    
C57   H28   S    
N4    Zn2   S    
C29   H17   S    
C33   C55   S    
