data_mof_unit_1106.cif
_audit_creation_date              2012-10-26T19:30:41-0400
_audit_creation_method            fapswitch 2.2
_symmetry_space_group_name_H-M    P1
_symmetry_Int_Tables_number       1
_space_group_crystal_system       triclinic
_cell_length_a                    19.297853
_cell_length_b                    10.681736
_cell_length_c                    9.438561
_cell_angle_alpha                 89.432704
_cell_angle_beta                  90.245621
_cell_angle_gamma                 90.195208
_cell_volume                      1945.48946685

loop_
_atom_site_label
_atom_site_type_symbol
_atom_type_description
_atom_site_fract_x
_atom_site_fract_y
_atom_site_fract_z
_atom_type_partial_charge
C1    C     C_R   0.500271 0.260212 0.500819 0.611441
C2    C     C_3   0.555538 0.042672 0.431130 0.108868
C3    C     C_3   0.536161 0.589680 0.047890 0.188966
C4    C     C_3   0.463839 0.410320 0.952110 0.188966
C5    C     C_3   0.474408 0.603955 0.947697 0.000980
C6    C     C_3   0.525592 0.396045 0.052303 0.000980
C7    C     C_3   0.562697 0.488013 0.949830 -0.021783
C8    C     C_3   0.437303 0.511987 0.050170 -0.021783
C9    C     C_R   0.367746 0.503190 0.499671 0.577257
C10   C     C_R   0.632254 0.496810 0.500329 0.577257
C11   C     C_R   0.255877 0.430235 0.591818 -0.171695
C12   C     C_R   0.499729 0.739788 0.499181 0.611440
C13   C     C_R   0.744123 0.569764 0.408181 -0.171696
C14   C     C_R   0.183655 0.426764 0.593212 -0.025040
C15   C     C_R   0.816345 0.573234 0.406787 -0.025039
C16   C     C_R   0.146161 0.505384 0.499104 -0.022849
C17   C     C_R   0.853839 0.494613 0.500895 -0.022849
C18   C     C_R   0.181724 0.587493 0.405064 0.021483
C19   C     C_R   0.818276 0.412505 0.594935 0.021483
C20   C     C_R   0.255126 0.589948 0.405409 0.031196
C21   C     C_R   0.744874 0.410051 0.594591 0.031196
C22   C     C_R   0.291758 0.509299 0.498876 -0.025987
C23   C     C_3   0.502157 0.037771 0.634515 0.070010
C24   C     C_R   0.708242 0.490700 0.501124 -0.025987
C25   C     C_R   0.930013 0.497463 0.500148 0.395404
C26   C     C_R   0.069987 0.502534 0.499852 0.395404
C27   C     C_2   0.148916 0.343689 0.699147 0.629130
C28   C     C_2   0.851084 0.656309 0.300852 0.629130
C29   C     C_2   0.141890 0.670809 0.307295 0.639511
C30   C     C_2   0.858110 0.329188 0.692705 0.639511
C31   C     C_2   0.293319 0.676923 0.309219 0.606424
C32   C     C_2   0.706681 0.323077 0.690781 0.606424
C33   C     C_3   0.497843 0.962229 0.365485 0.070010
C34   C     C_3   0.557246 0.956821 0.562737 0.070684
C35   C     C_3   0.442753 0.043179 0.437263 0.070683
C36   C     C_3   0.499580 0.875243 0.497204 0.055857
C37   C     C_3   0.500420 0.124757 0.502796 0.055857
C38   C     C_3   0.444462 0.957328 0.568869 0.108868
Cu1   Cu    Cu3+1 0.500020 0.499990 0.643150 1.001756
Cu2   Cu    Cu3+1 0.499980 0.500010 0.356850 1.001756
H1    H     H_    0.284769 0.370640 0.664328 0.128004
H2    H     H_    0.934514 0.313223 0.838299 0.383482
H3    H     H_    0.306745 0.743752 0.110583 0.331499
H4    H     H_    0.693255 0.256247 0.889417 0.331499
H5    H     H_    0.648337 0.985718 0.665810 0.283279
H6    H     H_    0.605029 0.857354 0.719157 0.225738
H7    H     H_    0.351663 0.014282 0.334191 0.283279
H8    H     H_    0.394971 0.142645 0.280843 0.225738
H9    H     H_    0.505612 0.996990 0.845013 0.212296
H10   H     H_    0.551089 0.124620 0.797483 0.264160
H11   H     H_    0.494388 0.003010 0.154987 0.212296
H12   H     H_    0.715231 0.629359 0.335671 0.128004
H13   H     H_    0.448910 0.875379 0.202517 0.264160
H14   H     H_    0.357014 0.987792 0.681729 0.261783
H15   H     H_    0.400585 0.858594 0.730199 0.223373
H16   H     H_    0.642986 0.012208 0.318271 0.261784
H17   H     H_    0.599415 0.141406 0.269801 0.223373
H18   H     H_    0.593870 0.747021 0.020595 0.209842
H19   H     H_    0.621415 0.652647 0.151802 0.238572
H20   H     H_    0.406130 0.252979 0.979405 0.209842
H21   H     H_    0.378585 0.347353 0.848198 0.238572
H22   H     H_    0.615333 0.480778 0.903974 0.144680
H23   H     H_    0.384667 0.519222 0.096026 0.144680
H24   H     H_    0.454060 0.691778 0.899737 0.103220
H25   H     H_    0.545940 0.308221 0.100263 0.103220
H26   H     H_    0.210329 0.194718 0.659285 0.308477
H27   H     H_    0.789672 0.805280 0.340714 0.308477
H28   H     H_    0.065486 0.686773 0.161700 0.383482
N1    N     N_R   0.035400 0.394276 0.474425 -0.147711
N2    N     N_3   0.495854 0.922313 0.218414 -0.590274
N3    N     N_3   0.383378 0.910309 0.642446 -0.550002
N4    N     N_3   0.616621 0.089691 0.357554 -0.550002
N5    N     N_3   0.577093 0.691837 0.105898 -0.553278
N6    N     N_3   0.422907 0.308163 0.894102 -0.553278
N7    N     N_R   0.964600 0.605721 0.525575 -0.147711
N8    N     N_R   0.966492 0.391793 0.474548 -0.151759
N9    N     N_R   0.033508 0.608205 0.525452 -0.151759
N10   N     N_3   0.500050 0.499970 0.858290 -0.233055
N11   N     N_3   0.499950 0.500030 0.141710 -0.233055
N12   N     N_3   0.620035 0.908778 0.629592 -0.599701
N13   N     N_3   0.379965 0.091221 0.370408 -0.599702
N14   N     N_3   0.504146 0.077687 0.781586 -0.590274
O1    O     O_R   0.500030 0.316850 0.620870 -0.440323
O2    O     O_R   0.172491 0.222028 0.726181 -0.620669
O3    O     O_2   0.900437 0.617667 0.233792 -0.397695
O4    O     O_R   0.827510 0.777969 0.273818 -0.620669
O5    O     O_2   0.154906 0.782882 0.301623 -0.441043
O6    O     O_R   0.089145 0.620860 0.222720 -0.623371
O7    O     O_2   0.845093 0.217115 0.698376 -0.441044
O8    O     O_R   0.910855 0.379137 0.777279 -0.623371
O9    O     O_2   0.339010 0.744416 0.356510 -0.513785
O10   O     O_R   0.276920 0.681537 0.164826 -0.672756
O11   O     O_2   0.660990 0.255584 0.643490 -0.513785
O12   O     O_R   0.499970 0.683150 0.379130 -0.440323
O13   O     O_R   0.723080 0.318462 0.835174 -0.672756
O14   O     O_R   0.500000 0.316860 0.379090 -0.528913
O15   O     O_R   0.500000 0.683140 0.620910 -0.528913
O16   O     O_R   0.400160 0.499980 0.620930 -0.501833
O17   O     O_R   0.599840 0.500020 0.379070 -0.501833
O18   O     O_R   0.400130 0.499990 0.379150 -0.493848
O19   O     O_R   0.599870 0.500010 0.620850 -0.493848
O20   O     O_2   0.099563 0.382330 0.766207 -0.397695

loop_
_geom_bond_atom_site_label_1
_geom_bond_atom_site_label_2
_ccdc_geom_bond_type
C9    O16   A    
C23   N14   S    
C4    C8    S    
C3    N11   S    
Cu2   O17   S    
C35   N13   S    
C27   O2    S    
C35   C37   S    
C3    C7    S    
C33   C35   S    
C11   C14   A    
C9    C22   S    
Cu1   O15   S    
C33   C36   S    
H8    N13   S    
N1    N8    A    
C29   O6    S    
C34   N12   S    
C6    H25   S    
H14   N3    S    
H16   N4    S    
C8    N11   S    
H11   N2    S    
C14   C27   S    
C12   C36   S    
H19   N5    S    
C4    N6    S    
C30   O8    S    
C2    C34   S    
C32   O11   D    
C12   O12   A    
Cu2   O14   S    
C30   O7    D    
C2    N4    S    
H13   N2    S    
Cu1   O19   S    
C16   C26   S    
C21   C32   S    
C26   N9    A    
Cu1   N10   S    
C35   C38   S    
C4    C6    S    
Cu1   Cu2   S    
Cu1   O16   S    
C10   C24   S    
C23   C37   S    
C13   C24   A    
H2    O8    S    
H9    N14   S    
C7    H22   S    
C4    N10   S    
C13   H12   S    
C23   C34   S    
Cu2   N11   S    
C18   C29   S    
N7    N9    A    
C12   O15   A    
C33   N2    S    
C7    N10   S    
C2    C33   S    
C20   C22   A    
C9    O18   A    
C31   O9    D    
C13   C15   A    
C28   O4    S    
H28   O6    S    
C14   C16   A    
C15   C28   S    
H10   N14   S    
C15   C17   A    
C38   N3    S    
H27   O4    S    
C11   C22   A    
C19   C21   A    
C10   O19   A    
Cu2   O12   S    
C3    C5    S    
Cu2   O18   S    
C5    C8    S    
C6    C7    S    
C1    C37   S    
H21   N6    S    
C1    O1    A    
C23   C38   S    
C27   O20   D    
H3    O10   S    
C25   N8    A    
C17   C25   S    
C36   C38   S    
Cu1   O1    S    
H4    O13   S    
H6    N12   S    
C2    C37   S    
C6    N11   S    
C1    O14   A    
H20   N6    S    
C17   C19   A    
C34   C36   S    
C11   H1    S    
H5    N12   S    
C18   C20   A    
H7    N13   S    
H17   N4    S    
C10   O17   A    
C3    N5    S    
C29   O5    D    
C8    H23   S    
H26   O2    S    
C32   O13   S    
C5    H24   S    
C16   C18   A    
C31   O10   S    
C21   C24   A    
C28   O3    D    
C26   N1    A    
C25   N7    A    
C5    N10   S    
C19   C30   S    
H15   N3    S    
H18   N5    S    
C20   C31   S    
