data_mof_unit_40.cif
_audit_creation_date              2013-03-05T15:56:52-0500
_audit_creation_method            fapswitch 2.2
_symmetry_space_group_name_H-M    P1
_symmetry_Int_Tables_number       1
_space_group_crystal_system       triclinic
_cell_length_a                    20.686379
_cell_length_b                    21.818391
_cell_length_c                    13.95412
_cell_angle_alpha                 90.089811
_cell_angle_beta                  90.228119
_cell_angle_gamma                 89.837322
_cell_volume                      6298.01850565

loop_
_atom_site_label
_atom_site_type_symbol
_atom_site_description
_atom_site_fract_x
_atom_site_fract_y
_atom_site_fract_z
_atom_type_partial_charge
O1    O     O_R   0.064880 0.435140 0.582280 -0.543738
O2    O     O_R   0.935120 0.564860 0.417720 -0.583794
O3    O     O_R   0.935120 0.564860 0.582280 -0.547233
O4    O     O_R   0.064880 0.435140 0.417720 -0.585209
O5    O     O_R   0.935120 0.435140 0.417720 -0.553423
O6    O     O_R   0.064880 0.564860 0.582280 -0.580626
O7    O     O_R   0.064880 0.564860 0.417720 -0.553253
O8    O     O_R   0.935120 0.435140 0.582280 -0.580620
O9    O     O_R   0.564880 0.935140 0.582280 -0.548351
O10   O     O_R   0.435120 0.064860 0.417720 -0.579642
O11   O     O_R   0.435120 0.064860 0.582280 -0.550398
O12   O     O_R   0.564880 0.935140 0.417720 -0.583826
O13   O     O_R   0.435120 0.935140 0.417720 -0.549828
O14   O     O_R   0.564880 0.064860 0.582280 -0.587429
O15   O     O_R   0.564880 0.064860 0.417720 -0.541946
O16   O     O_R   0.435120 0.935140 0.582280 -0.587783
C1    C     C_R   0.085571 0.414849 0.500020 0.815267
C2    C     C_R   0.914586 0.585344 0.499931 0.808724
C3    C     C_R   0.913256 0.415822 0.499602 0.814477
C4    C     C_R   0.086280 0.584641 0.499980 0.816620
C5    C     C_R   0.584914 0.914289 0.500208 0.808853
C6    C     C_R   0.413737 0.084541 0.499963 0.818056
C7    C     C_R   0.414263 0.914838 0.499839 0.811155
C8    C     C_R   0.586604 0.084362 0.500288 0.812856
Cu1   Cu    Cu3+1 0.000000 0.500000 0.597420 1.031930
Cu2   Cu    Cu3+1 0.000000 0.500000 0.402580 1.017382
Cu3   Cu    Cu3+1 0.500000 0.000000 0.597420 1.016952
Cu4   Cu    Cu3+1 0.500000 0.000000 0.402580 1.029547
C9    C     C_R   0.125980 0.683577 0.441488 -0.193987
C10   C     C_R   0.874856 0.315657 0.444613 -0.191260
C11   C     C_R   0.880930 0.690371 0.461249 -0.193102
C12   C     C_R   0.119551 0.311160 0.455465 -0.194711
C13   C     C_R   0.624258 0.185321 0.553456 -0.202613
C14   C     C_R   0.372989 0.817354 0.562032 -0.206087
C15   C     C_R   0.380163 0.188925 0.540024 -0.191883
C16   C     C_R   0.617778 0.809082 0.539405 -0.194910
C17   C     C_R   0.135059 0.632542 0.499229 -0.037588
C18   C     C_R   0.863831 0.368553 0.497475 -0.031278
C19   C     C_R   0.866274 0.633531 0.499907 -0.061333
C20   C     C_R   0.133657 0.366560 0.499626 -0.060748
C21   C     C_R   0.635564 0.132162 0.501472 -0.067423
C22   C     C_R   0.365914 0.866525 0.499882 -0.074010
C23   C     C_R   0.365202 0.132495 0.500039 -0.028497
C24   C     C_R   0.632920 0.865981 0.501217 -0.026697
C25   C     C_R   0.190440 0.626838 0.555075 -0.168784
C26   C     C_R   0.805341 0.377234 0.544551 -0.190724
C27   C     C_R   0.806223 0.622561 0.540168 -0.159377
C28   C     C_R   0.193575 0.376567 0.541620 -0.160854
C29   C     C_R   0.693129 0.124405 0.451610 -0.162026
C30   C     C_R   0.312719 0.870131 0.439029 -0.160161
C31   C     C_R   0.304636 0.121692 0.460201 -0.187410
C32   C     C_R   0.694211 0.877864 0.466578 -0.164622
C33   C     C_R   0.237035 0.673518 0.557681 -0.002583
C34   C     C_R   0.758956 0.330289 0.547286 -0.003043
C35   C     C_R   0.758037 0.667990 0.539555 -0.008934
C36   C     C_R   0.241645 0.331096 0.538959 -0.010349
C37   C     C_R   0.738934 0.171801 0.446859 -0.008332
C38   C     C_R   0.263681 0.825843 0.442015 -0.007642
C39   C     C_R   0.257661 0.168275 0.457514 -0.004768
C40   C     C_R   0.742385 0.832535 0.468955 0.002926
C41   C     C_R   0.226933 0.726477 0.500445 0.019764
C42   C     C_R   0.771595 0.274976 0.496463 0.024457
C43   C     C_R   0.773259 0.726656 0.502182 0.013949
C44   C     C_R   0.226713 0.273512 0.496897 0.017608
C45   C     C_R   0.726375 0.226995 0.498177 0.018436
C46   C     C_R   0.272708 0.773846 0.501747 0.018902
C47   C     C_R   0.273140 0.226425 0.497408 0.024804
C48   C     C_R   0.726487 0.773399 0.503610 0.016860
C49   C     C_R   0.170705 0.731892 0.442136 0.106889
C50   C     C_R   0.828800 0.268630 0.441483 0.106092
C51   C     C_R   0.835774 0.738582 0.464535 0.113768
C52   C     C_R   0.165063 0.263274 0.454604 0.113225
C53   C     C_R   0.669296 0.233292 0.553687 0.109355
C54   C     C_R   0.328159 0.769166 0.561892 0.104842
C55   C     C_R   0.335026 0.237053 0.538879 0.113276
C56   C     C_R   0.663678 0.761409 0.539966 0.113099
C57   C     C_R   0.292479 0.668687 0.617445 0.004978
C58   C     C_R   0.700429 0.337433 0.598870 -0.027683
C59   C     C_R   0.695741 0.656065 0.576907 -0.001702
C60   C     C_R   0.303806 0.342206 0.577855 -0.020608
C61   C     C_R   0.796690 0.165393 0.392655 -0.026134
C62   C     C_R   0.206553 0.832344 0.386104 -0.015399
C63   C     C_R   0.195658 0.157629 0.417189 -0.029891
C64   C     C_R   0.805683 0.845587 0.437347 -0.003569
C65   C     C_R   0.839371 0.215632 0.385020 0.096082
C66   C     C_R   0.159192 0.785726 0.387772 0.098805
C67   C     C_R   0.149787 0.205724 0.413163 0.102379
C68   C     C_R   0.852595 0.798430 0.433846 0.102372
C69   C     C_R   0.338319 0.716589 0.619687 0.098452
C70   C     C_R   0.657648 0.287398 0.607189 0.095882
C71   C     C_R   0.647871 0.702471 0.575565 0.103888
C72   C     C_R   0.351013 0.295343 0.577210 0.101393
H1    H     H_    0.082925 0.684952 0.397278 0.150120
H2    H     H_    0.920714 0.311376 0.408050 0.140499
H3    H     H_    0.928677 0.696460 0.431385 0.142290
H4    H     H_    0.071877 0.305948 0.424375 0.143154
H5    H     H_    0.578918 0.188960 0.591502 0.153656
H6    H     H_    0.415055 0.816883 0.608316 0.166720
H7    H     H_    0.427892 0.194430 0.570826 0.135802
H8    H     H_    0.569476 0.802810 0.567152 0.134169
H9    H     H_    0.197019 0.584877 0.594501 0.185364
H10   H     H_    0.796964 0.420920 0.578689 0.193442
H11   H     H_    0.797643 0.577704 0.570246 0.199176
H12   H     H_    0.202303 0.420657 0.574689 0.197847
H13   H     H_    0.701380 0.080726 0.417961 0.215653
H14   H     H_    0.309705 0.908557 0.390952 0.219679
H15   H     H_    0.294811 0.076335 0.432517 0.188026
H16   H     H_    0.703692 0.923234 0.438709 0.165466
C73   C     C_R   0.056805 0.504166 0.795334 0.136726
C74   C     C_R   0.942781 0.505771 0.205738 0.106794
C75   C     C_R   0.943096 0.495414 0.794471 0.120584
C76   C     C_R   0.057189 0.494029 0.206333 0.106981
C77   C     C_R   0.557190 0.005648 0.794307 0.108298
C78   C     C_R   0.443161 0.004114 0.204717 0.122537
C79   C     C_R   0.442743 0.994084 0.793659 0.108117
C80   C     C_R   0.557153 0.996248 0.205563 0.118348
N1    N     N_R   0.000000 0.500000 0.743810 -0.266186
N2    N     N_R   0.000000 0.500000 0.256190 -0.268747
N3    N     N_R   0.500000 0.000000 0.743810 -0.269144
N4    N     N_R   0.500000 0.000000 0.256190 -0.263969
C81   C     C_R   0.941453 0.502601 0.896769 -0.097891
C82   C     C_R   0.059064 0.497890 0.103420 -0.107789
C83   C     C_R   0.058272 0.496523 0.897486 -0.097800
C84   C     C_R   0.940827 0.501477 0.102819 -0.105191
C85   C     C_R   0.440813 0.997015 0.896774 -0.108215
C86   C     C_R   0.558400 0.003378 0.103274 -0.095817
C87   C     C_R   0.559102 0.001789 0.897242 -0.102839
C88   C     C_R   0.442049 0.995986 0.102703 -0.094726
C89   C     C_R   0.999873 0.499657 0.948898 0.090123
C90   C     C_R   0.999917 0.499676 0.051794 0.098168
C91   C     C_R   0.500022 0.999414 0.948241 0.096656
C92   C     C_R   0.500173 0.999500 0.051176 0.094132
C93   C     C_R   0.882626 0.508778 0.948251 -0.094814
C94   C     C_R   0.118070 0.497004 0.050083 -0.089273
C95   C     C_R   0.117017 0.489488 0.949509 -0.082884
C96   C     C_R   0.881777 0.501713 0.048911 -0.088766
C97   C     C_R   0.381949 0.994411 0.950745 -0.087552
C98   C     C_R   0.616637 0.011558 0.051781 -0.105185
C99   C     C_R   0.618022 0.003489 0.951423 -0.089825
C100  C     C_R   0.383793 0.986935 0.051244 -0.092887
C101  C     C_2   0.302404 0.614066 0.678957 0.799191
O17   O     O_2   0.311591 0.563947 0.642291 -0.544056
O18   O     O_R   0.302594 0.620453 0.778692 -0.726353
H17   H     H_    0.310724 0.580141 0.812758 0.370376
C102  C     C_2   0.680303 0.397799 0.638446 0.874247
O19   O     O_2   0.712498 0.423206 0.700318 -0.578615
O20   O     O_R   0.621684 0.423452 0.608135 -0.710584
H18   H     H_    0.609955 0.462003 0.644737 0.352922
C103  C     C_2   0.680732 0.595166 0.618142 0.835574
O21   O     O_2   0.680497 0.549775 0.566682 -0.568770
O22   O     O_R   0.666731 0.590191 0.715724 -0.739765
H19   H     H_    0.658282 0.546400 0.736094 0.361241
C104  C     C_2   0.320039 0.403399 0.617078 0.859020
O23   O     O_2   0.324335 0.447173 0.562964 -0.518913
O24   O     O_R   0.331075 0.410482 0.715349 -0.741161
H20   H     H_    0.341921 0.454269 0.733513 0.369095
C105  C     C_2   0.815825 0.105957 0.347997 0.823959
O25   O     O_2   0.778809 0.078476 0.294938 -0.551804
O26   O     O_R   0.878254 0.083141 0.363576 -0.748180
H21   H     H_    0.887227 0.044319 0.325849 0.368154
C106  C     C_2   0.195212 0.888397 0.327709 0.820815
O27   O     O_2   0.198139 0.938937 0.365277 -0.566103
O28   O     O_R   0.179699 0.883155 0.230407 -0.738691
H22   H     H_    0.171847 0.924418 0.199084 0.378223
C107  C     C_2   0.176967 0.095663 0.383281 0.873252
O29   O     O_2   0.203276 0.073053 0.313307 -0.548119
O30   O     O_R   0.127115 0.064586 0.429792 -0.716860
H23   H     H_    0.115277 0.024702 0.397000 0.370012
C108  C     C_2   0.823441 0.909740 0.415202 0.833791
O31   O     O_2   0.836797 0.924616 0.333214 -0.555503
O32   O     O_R   0.822835 0.953159 0.488933 -0.733265
H24   H     H_    0.834075 0.995747 0.466144 0.355965
C109  C     C_3   0.894171 0.214588 0.312610 -0.757454
H25   H     H_    0.889936 0.177358 0.258905 0.256690
H26   H     H_    0.893868 0.257619 0.270188 0.234416
H27   H     H_    0.941064 0.209777 0.350447 0.232858
C110  C     C_3   0.094719 0.794104 0.336560 -0.771290
H28   H     H_    0.085242 0.841159 0.310713 0.260175
H29   H     H_    0.091512 0.762130 0.274763 0.257556
H30   H     H_    0.054973 0.784714 0.387236 0.203516
C111  C     C_3   0.084648 0.196409 0.364340 -0.783450
H31   H     H_    0.079345 0.151893 0.327071 0.256635
H32   H     H_    0.045778 0.199715 0.418697 0.233153
H33   H     H_    0.077283 0.231872 0.308318 0.233190
C112  C     C_3   0.921485 0.811953 0.403388 -0.810043
H34   H     H_    0.931028 0.860539 0.386262 0.260329
H35   H     H_    0.954878 0.799802 0.462900 0.221668
H36   H     H_    0.933567 0.784771 0.338518 0.243296
C113  C     C_3   0.399528 0.711171 0.680087 -0.767359
H37   H     H_    0.405991 0.666540 0.716367 0.258304
H38   H     H_    0.442396 0.716498 0.633490 0.206844
H39   H     H_    0.399759 0.747330 0.736177 0.257340
C114  C     C_3   0.600872 0.290451 0.675968 -0.773710
H40   H     H_    0.601515 0.330907 0.723996 0.252144
H41   H     H_    0.555077 0.291203 0.634767 0.229132
H42   H     H_    0.601732 0.249961 0.724102 0.244450
C115  C     C_3   0.579348 0.689169 0.608470 -0.796871
H43   H     H_    0.570589 0.640868 0.628495 0.257422
H44   H     H_    0.567622 0.717962 0.671778 0.243071
H45   H     H_    0.544990 0.699360 0.549236 0.219841
C116  C     C_3   0.419200 0.307563 0.613363 -0.793543
H46   H     H_    0.428206 0.355370 0.636170 0.261478
H47   H     H_    0.429968 0.277672 0.675783 0.240782
H48   H     H_    0.453995 0.298037 0.554797 0.222017
C117  C     C_2   0.114564 0.529541 0.749774 0.881030
O33   O     O_2   0.146461 0.498902 0.693874 -0.593941
O34   O     O_R   0.135223 0.587679 0.778541 -0.738367
H49   H     H_    0.179059 0.598807 0.752506 0.346699
C118  C     C_2   0.884132 0.524728 0.257618 0.905245
O35   O     O_2   0.853117 0.487550 0.303751 -0.561801
O36   O     O_R   0.862568 0.585323 0.249644 -0.737576
H50   H     H_    0.821484 0.593153 0.287175 0.350434
C119  C     C_2   0.885904 0.469239 0.747600 0.905866
O37   O     O_2   0.852749 0.499962 0.693171 -0.584372
O38   O     O_R   0.868347 0.409307 0.771086 -0.737538
H51   H     H_    0.827093 0.395558 0.738841 0.364064
C120  C     C_2   0.115905 0.475298 0.258837 0.904822
O39   O     O_2   0.147107 0.512714 0.304773 -0.557705
O40   O     O_R   0.137378 0.414632 0.251531 -0.741439
H52   H     H_    0.178570 0.406973 0.289335 0.350799
C121  C     C_2   0.615841 0.024079 0.742379 0.904671
O41   O     O_2   0.647090 0.986462 0.696950 -0.555821
O42   O     O_R   0.637240 0.084660 0.749762 -0.747609
H53   H     H_    0.678513 0.092056 0.712627 0.348169
C122  C     C_2   0.384791 0.029167 0.250604 0.902190
O43   O     O_2   0.353744 0.998447 0.306887 -0.584124
O44   O     O_R   0.363470 0.087665 0.224469 -0.734885
H54   H     H_    0.322020 0.100006 0.257703 0.364085
C123  C     C_2   0.383792 0.977132 0.740551 0.904564
O45   O     O_2   0.352706 0.015869 0.697049 -0.560964
O46   O     O_R   0.361665 0.916697 0.745182 -0.746200
H55   H     H_    0.319992 0.910449 0.707982 0.350770
C124  C     C_2   0.616500 0.974426 0.253429 0.901825
O47   O     O_2   0.646571 0.007881 0.307455 -0.576159
O48   O     O_R   0.640482 0.916252 0.230709 -0.735550
H56   H     H_    0.683319 0.907147 0.263240 0.349575
C125  C     C_2   0.822637 0.529614 0.898714 0.906127
O49   O     O_2   0.773921 0.497969 0.899599 -0.514429
O50   O     O_R   0.822978 0.585286 0.849274 -0.718425
H57   H     H_    0.779961 0.594632 0.817459 0.373081
C126  C     C_2   0.181448 0.510411 0.095615 0.904528
O51   O     O_2   0.222906 0.470475 0.101381 -0.530512
O52   O     O_R   0.193344 0.569164 0.131488 -0.707032
H58   H     H_    0.238031 0.573026 0.160932 0.361655
C127  C     C_2   0.176440 0.467115 0.900561 0.899198
O53   O     O_2   0.226291 0.497088 0.903202 -0.553732
O54   O     O_R   0.174244 0.411983 0.849479 -0.719500
H59   H     H_    0.217004 0.401557 0.818140 0.371670
C128  C     C_2   0.818587 0.488058 0.094057 0.899471
O55   O     O_2   0.776623 0.527569 0.098526 -0.530162
O56   O     O_R   0.807446 0.429552 0.131021 -0.714132
H60   H     H_    0.762828 0.425492 0.160084 0.360683
C129  C     C_2   0.317643 0.005463 0.906583 0.903616
O57   O     O_2   0.278519 0.963729 0.899759 -0.528745
O58   O     O_R   0.302011 0.064138 0.873661 -0.706190
H61   H     H_    0.256947 0.066323 0.845026 0.360797
C130  C     C_2   0.673402 0.040024 0.099258 0.920641
O59   O     O_2   0.725019 0.012716 0.104247 -0.497983
O60   O     O_R   0.667028 0.099038 0.137195 -0.717183
H62   H     H_    0.709498 0.116457 0.160772 0.374564
C131  C     C_2   0.681796 0.990402 0.907397 0.896877
O61   O     O_2   0.722868 0.030498 0.902612 -0.533770
O62   O     O_R   0.694483 0.931740 0.871644 -0.705729
H63   H     H_    0.739342 0.928097 0.843161 0.363689
C132  C     C_2   0.327597 0.959178 0.100695 0.903370
O63   O     O_2   0.274533 0.984012 0.099053 -0.524838
O64   O     O_R   0.336991 0.904688 0.151494 -0.729650
H64   H     H_    0.296330 0.889665 0.183584 0.364100

loop_
_geom_bond_atom_site_label_1
_geom_bond_atom_site_label_2
_geom_bond_distance
_ccdc_geom_bond_type
C63   C67   1.413801 A    
O32   H24   1.010608 S    
C127  O54   1.398021 S    
C105  O25   1.220947 D    
C8    C21   1.455869 S    
O5    Cu2   1.965340 S    
C75   C81   1.436355 A    
C108  O32   1.397526 S    
C116  H46   1.106168 S    
C95   C127  1.489311 S    
O20   H18   1.012758 S    
C14   C22   1.387641 A    
C28   C36   1.403225 A    
C2    C19   1.448514 S    
C44   C52   1.421203 A    
C23   C31   1.389260 A    
C74   N2    1.380340 A    
C101  O18   1.398448 S    
C102  O19   1.221581 D    
C112  H34   1.105533 S    
C29   C37   1.406368 A    
O56   H60   1.013802 S    
C12   C52   1.404501 A    
C68   C112  1.518615 S    
C119  O37   1.221251 D    
O10   C6    1.303282 A    
C115  H45   1.110317 S    
C26   H10   1.078773 S    
C57   C69   1.413429 A    
C128  O55   1.223370 D    
C107  O29   1.222353 D    
C7    C22   1.455145 S    
C87   C99   1.432275 A    
C32   C40   1.402343 A    
O12   Cu4   1.958691 S    
C97   C129  1.483120 S    
C54   C69   1.417989 A    
C19   C27   1.386978 A    
C39   C63   1.418175 A    
C53   C70   1.416354 A    
C126  O51   1.223381 D    
C103  O22   1.397709 S    
C131  O61   1.223309 D    
C111  H33   1.110537 S    
O6    Cu1   1.965337 S    
O2    C2    1.302847 A    
C76   C120  1.473148 S    
C41   C49   1.421584 A    
O52   H58   1.013797 S    
C46   C54   1.422156 A    
C45   C53   1.420934 A    
O13   C7    1.304631 A    
O3    C2    1.302797 A    
C113  H38   1.108191 S    
C130  O59   1.223070 D    
C108  O31   1.222611 D    
O14   C8    1.303353 A    
C115  H44   1.110405 S    
O44   H54   1.012072 S    
C82   C94   1.432240 A    
C16   C56   1.406371 A    
C58   C102  1.486430 S    
C74   C84   1.439464 A    
C77   N3    1.380305 A    
C33   C41   1.420171 A    
C41   C46   1.403744 A    
C38   C46   1.420264 A    
O50   H57   1.013235 S    
C114  H41   1.106262 S    
C35   C43   1.419575 A    
C80   C124  1.473483 S    
C93   C96   1.413473 A    
C65   C109  1.521649 S    
O48   H56   1.013330 S    
C36   C44   1.420173 A    
O13   Cu4   1.965340 S    
C126  O52   1.397554 S    
O11   Cu3   1.958691 S    
O14   Cu3   1.965337 S    
C104  O24   1.397664 S    
C15   C23   1.386212 A    
C124  O47   1.218713 D    
C10   C50   1.402661 A    
C120  O40   1.398679 S    
C59   C71   1.414346 A    
C59   C103  1.482947 S    
C10   H2    1.082644 S    
C39   C47   1.421566 A    
C114  H42   1.110667 S    
O16   Cu3   1.963714 S    
C119  O38   1.397912 S    
O62   H63   1.013813 S    
C98   C130  1.483294 S    
C25   C33   1.404588 A    
C105  O26   1.399040 S    
C109  H25   1.107739 S    
C125  O49   1.223329 D    
C83   C89   1.408911 A    
O1    Cu1   1.959365 S    
O8    Cu1   1.963714 S    
C116  H47   1.110406 S    
C42   C50   1.419175 A    
C113  H37   1.105741 S    
C93   C125  1.488421 S    
C31   H15   1.081306 S    
C15   H7    1.082193 S    
C88   C92   1.405749 A    
C21   C29   1.391359 A    
C102  O20   1.398343 S    
C122  O43   1.219305 D    
C9    C49   1.404554 A    
C117  O34   1.397469 S    
C97   C100  1.412428 A    
C5    C24   1.446120 S    
O4    Cu2   1.958691 S    
C128  O56   1.397601 S    
O8    C3    1.307156 A    
C61   C105  1.491052 S    
C78   C88   1.434348 A    
C84   C96   1.432029 A    
C73   N1    1.378291 A    
O34   H49   1.008656 S    
C30   C38   1.403769 A    
C44   C47   1.404384 A    
Cu2   N2    2.042744 S    
O3    Cu1   1.958691 S    
C27   H11   1.080921 S    
C38   C62   1.420384 A    
O42   H53   1.013953 S    
O2    Cu2   1.959365 S    
C64   C108  1.481497 S    
Cu4   N4    2.042744 S    
C111  H32   1.109701 S    
C37   C45   1.423890 A    
O30   H23   1.012765 S    
C131  O62   1.397530 S    
C127  O53   1.223083 D    
C73   C83   1.435610 A    
C112  H36   1.110340 S    
C106  O28   1.398519 S    
C34   C42   1.422945 A    
C110  H29   1.110212 S    
Cu1   Cu2   2.718819 S    
C111  H31   1.106523 S    
O12   C5    1.304002 A    
O7    C4    1.302050 A    
C66   C110  1.521297 S    
C58   C70   1.412500 A    
C80   N4    1.381842 A    
C83   C95   1.421126 A    
C9    C17   1.387376 A    
C130  O60   1.397491 S    
C1    C20   1.446947 S    
C60   C72   1.411927 A    
C113  H39   1.110442 S    
C33   C57   1.419164 A    
O38   H51   1.009315 S    
O36   H50   1.013996 S    
C76   C82   1.439335 A    
C123  O45   1.221378 D    
C3    C18   1.454487 S    
C79   C123  1.472297 S    
C76   N2    1.380567 A    
C121  O41   1.221457 D    
C35   C59   1.416925 A    
C85   C91   1.418426 A    
C129  O58   1.397431 S    
O26   H21   1.013682 S    
C86   C92   1.407086 A    
O22   H19   1.013128 S    
C110  H30   1.106372 S    
C15   C55   1.403260 A    
C26   C34   1.406159 A    
C118  O35   1.221435 D    
C84   C90   1.417468 A    
C16   H8    1.082147 S    
C78   N4    1.378150 A    
C73   C117  1.466032 S    
C63   C107  1.483506 S    
C77   C121  1.472934 S    
C109  H26   1.110685 S    
C25   H9    1.076879 S    
C55   C72   1.418365 A    
C22   C30   1.389396 A    
C77   C87   1.439345 A    
O4    C1    1.301795 A    
C13   C53   1.403218 A    
O15   C8    1.306097 A    
C12   H4    1.082044 S    
C43   C51   1.422612 A    
C110  H28   1.105460 S    
O16   C7    1.304340 A    
C79   N3    1.382434 A    
C125  O50   1.397910 S    
O40   H52   1.013994 S    
C123  O46   1.398678 S    
C116  H48   1.110163 S    
C37   C61   1.423046 A    
C96   C128  1.484484 S    
C16   C24   1.388843 A    
C74   C118  1.473183 S    
C47   C55   1.422283 A    
C17   C25   1.388392 A    
O58   H61   1.013798 S    
O46   H55   1.013948 S    
C52   C67   1.417534 A    
O9    Cu3   1.959365 S    
C27   C35   1.403755 A    
C89   C90   1.435822 A    
C132  O63   1.222918 D    
C109  H27   1.107383 S    
O10   Cu4   1.959365 S    
C20   C28   1.386634 A    
C117  O33   1.220917 D    
C43   C48   1.403985 A    
C86   C98   1.417050 A    
C69   C113  1.522691 S    
C42   C45   1.406209 A    
C64   C68   1.413265 A    
C81   C89   1.409424 A    
C91   C92   1.436357 A    
Cu1   N1    2.042744 S    
C24   C32   1.384030 A    
C67   C111  1.521518 S    
C94   C126  1.484293 S    
C29   H13   1.075242 S    
O64   H64   1.010186 S    
C94   C95   1.412794 A    
O5    C3    1.301707 A    
C62   C106  1.488182 S    
Cu3   N3    2.042744 S    
C48   C56   1.421815 A    
O6    C4    1.306826 A    
O11   C6    1.302268 A    
O1    C1    1.303086 A    
C36   C60   1.415154 A    
C75   N1    1.379468 A    
C85   C97   1.435611 A    
C14   H6    1.081646 S    
C87   C91   1.417808 A    
C99   C131  1.484302 S    
O18   H17   1.013744 S    
C120  O39   1.221455 D    
C13   C21   1.386824 A    
C121  O42   1.398639 S    
C132  O64   1.397815 S    
C62   C66   1.414520 A    
C101  O17   1.221277 D    
C78   C122  1.472444 S    
C9    H1    1.081793 S    
C4    C17   1.454884 S    
C40   C64   1.413245 A    
O9    C5    1.300530 A    
O15   Cu4   1.963711 S    
C129  O57   1.223318 D    
C70   C114  1.520970 S    
C106  O27   1.221773 D    
C60   C104  1.481106 S    
C11   H3    1.082160 S    
C79   C85   1.440909 A    
C11   C51   1.405620 A    
C122  O44   1.397675 S    
C34   C58   1.419074 A    
C11   C19   1.387967 A    
C13   H5    1.082254 S    
C12   C20   1.387142 A    
C88   C100  1.414530 A    
C115  H43   1.106303 S    
C57   C101  1.483090 S    
C18   C26   1.391405 A    
O28   H22   1.013807 S    
C112  H35   1.110043 S    
C98   C99   1.411544 A    
C49   C66   1.418300 A    
C56   C71   1.418810 A    
C51   C68   1.419510 A    
C71   C115  1.520609 S    
C14   C54   1.403915 A    
C75   C119  1.466339 S    
C31   C39   1.404579 A    
C40   C48   1.418587 A    
C107  O30   1.398260 S    
C114  H40   1.107527 S    
C124  O48   1.397872 S    
O24   H20   1.013547 S    
C30   H14   1.076095 S    
C118  O36   1.398565 S    
C100  C132  1.485280 S    
C32   H16   1.082824 S    
C80   C86   1.436398 A    
C10   C18   1.387541 A    
C81   C93   1.421563 A    
C104  O23   1.222105 D    
C103  O21   1.222394 D    
C50   C65   1.415216 A    
O7    Cu2   1.963711 S    
C82   C90   1.417862 A    
C6    C23   1.448029 S    
C61   C65   1.413855 A    
C72   C116  1.520286 S    
O60   H62   1.011814 S    
O54   H59   1.013424 S    
Cu3   Cu4   2.718819 S    
C28   H12   1.081612 S    
