data_mof_unit_1516.cif
_audit_creation_date              2012-12-10T20:50:10-0500
_audit_creation_method            fapswitch 2.2
_symmetry_space_group_name_H-M    P1
_symmetry_Int_Tables_number       1
_space_group_crystal_system       triclinic
_cell_length_a                    19.187988
_cell_length_b                    8.893331
_cell_length_c                    8.090964
_cell_angle_alpha                 90.067463
_cell_angle_beta                  89.860039
_cell_angle_gamma                 89.939506
_cell_volume                      1380.6777413

loop_
_atom_site_label
_atom_site_type_symbol
_atom_type_description
_atom_site_fract_x
_atom_site_fract_y
_atom_site_fract_z
_atom_type_partial_charge
C1    C     C_R   0.499903 0.217996 0.499930 0.915397
C2    C     C_R   0.251852 0.553921 0.366724 0.461991
C3    C     C_R   0.180997 0.416243 0.633027 -0.085727
C4    C     C_R   0.816322 0.390157 0.365125 -0.167908
C5    C     C_R   0.820849 0.508304 0.641224 -0.087976
C6    C     C_R   0.180069 0.527496 0.353472 -0.160773
C7    C     C_R   0.144651 0.463754 0.490061 -0.174627
C8    C     C_R   0.854422 0.440226 0.504099 -0.163632
C9    C     C_R   0.289072 0.492222 0.500606 -0.309307
C10   C     C_R   0.710613 0.482042 0.498338 -0.305332
C11   C     C_R   0.929750 0.443534 0.495750 0.389207
C12   C     C_R   0.499761 0.782013 0.500076 0.904725
C13   C     C_R   0.069325 0.455103 0.486679 0.383703
C14   C     C_3   0.308538 0.218655 0.745019 0.069491
C15   C     C_3   0.350468 0.164889 0.893864 -0.289593
C16   C     C_3   0.369364 0.998671 0.879030 -0.934589
C17   C     C_3   0.689500 0.192300 0.271845 0.136490
C18   C     C_3   0.646999 0.128246 0.128817 -0.293568
C19   C     C_3   0.635817 0.959232 0.147875 -0.944139
C20   C     C_3   0.704200 0.773506 0.694458 0.089466
C21   C     C_3   0.759395 0.883570 0.757782 -0.368192
C22   C     C_3   0.745812 0.043023 0.696079 -0.913043
C23   C     C_R   0.365038 0.499272 0.500360 0.906893
C24   C     C_3   0.302095 0.782370 0.307113 0.121781
C25   C     C_3   0.246763 0.896292 0.253028 -0.291395
C26   C     C_3   0.262188 0.052650 0.321576 -1.012585
C27   C     C_2   0.145088 0.364232 0.786936 0.527496
C28   C     C_2   0.852818 0.329891 0.215072 0.456207
C29   C     C_2   0.858352 0.547783 0.797090 0.519335
C30   C     C_2   0.142065 0.564385 0.197181 0.455249
C31   C     C_R   0.634926 0.497393 0.499551 0.914270
C32   C     C_1   0.499717 0.065288 0.499875 -0.215250
C33   C     C_1   0.499627 0.934759 0.500129 -0.242123
C34   C     C_R   0.253891 0.421350 0.632283 0.346321
C35   C     C_R   0.743332 0.402489 0.368656 0.431569
C36   C     C_R   0.749758 0.541074 0.630335 0.357838
H1    H     H_    0.341031 0.204266 0.631692 0.134341
H2    H     H_    0.595592 0.185695 0.123456 0.234177
H3    H     H_    0.674939 0.149732 0.010904 0.249473
H4    H     H_    0.686595 0.899242 0.147638 0.262970
H5    H     H_    0.603896 0.916679 0.043550 0.273805
H6    H     H_    0.608335 0.934770 0.265434 0.268653
H7    H     H_    0.652597 0.808521 0.743942 0.178241
H8    H     H_    0.700400 0.781939 0.556970 0.107714
H9    H     H_    0.759281 0.883281 0.895047 0.235966
H10   H     H_    0.811763 0.847695 0.714137 0.215772
H11   H     H_    0.754340 0.048067 0.560696 0.240525
H12   H     H_    0.260803 0.148156 0.734615 0.110981
H13   H     H_    0.782447 0.122417 0.756482 0.302722
H14   H     H_    0.691563 0.078470 0.724365 0.251528
H15   H     H_    0.353008 0.816303 0.253262 0.165846
H16   H     H_    0.308667 0.787343 0.444142 0.093459
H17   H     H_    0.245187 0.901336 0.115947 0.249219
H18   H     H_    0.194724 0.860369 0.298499 0.231269
H19   H     H_    0.256376 0.051909 0.457860 0.257023
H20   H     H_    0.224771 0.135292 0.269628 0.278261
H21   H     H_    0.316013 0.088049 0.289318 0.264113
H22   H     H_    0.173226 0.298827 0.878120 0.077371
H23   H     H_    0.399061 0.232142 0.904131 0.242527
H24   H     H_    0.908383 0.308699 0.215913 0.083436
H25   H     H_    0.833554 0.618607 0.889278 0.097032
H26   H     H_    0.086566 0.544407 0.186360 0.088267
H27   H     H_    0.319203 0.182545 0.007885 0.229644
H28   H     H_    0.321543 0.929001 0.869715 0.270625
H29   H     H_    0.399091 0.963121 0.989909 0.267549
H30   H     H_    0.402102 0.979272 0.767895 0.272448
H31   H     H_    0.658834 0.179880 0.388228 0.098557
H32   H     H_    0.738798 0.126665 0.281657 0.139770
N1    N     N_1   0.500000 0.500000 0.073640 -0.022611
N2    N     N_1   0.500000 0.500000 0.926360 -0.024411
N3    N     N_R   0.036544 0.320424 0.495368 -0.143504
N4    N     N_R   0.962599 0.577814 0.486707 -0.153131
N5    N     N_R   0.967414 0.314687 0.500168 -0.151124
N6    N     N_R   0.031560 0.583574 0.482702 -0.155940
O1    O     O_R   0.500000 0.285350 0.636850 -0.629780
O2    O     O_3   0.703846 0.345328 0.239960 -0.564410
O3    O     O_3   0.718066 0.626138 0.753426 -0.620474
O4    O     O_3   0.285992 0.636808 0.245884 -0.566136
O5    O     O_2   0.084938 0.398981 0.818421 -0.519673
O6    O     O_2   0.821688 0.305505 0.086387 -0.530085
O7    O     O_2   0.915957 0.497118 0.828615 -0.517569
O8    O     O_2   0.172292 0.613965 0.076037 -0.512709
O9    O     O_R   0.500000 0.714650 0.363150 -0.622624
O10   O     O_R   0.500000 0.714650 0.636850 -0.621020
O11   O     O_R   0.500000 0.285350 0.363150 -0.630374
O12   O     O_R   0.398140 0.500000 0.636920 -0.568726
O13   O     O_R   0.601860 0.500000 0.363080 -0.576405
O14   O     O_R   0.601860 0.500000 0.636920 -0.581970
O15   O     O_R   0.398140 0.500000 0.363080 -0.591083
O16   O     O_3   0.290486 0.371155 0.768998 -0.599834
Zn1   Zn    Zn3+2 0.500000 0.500000 0.682780 1.003166
Zn2   Zn    Zn3+2 0.500000 0.500000 0.317220 0.999474

loop_
_geom_bond_atom_site_label_1
_geom_bond_atom_site_label_2
_ccdc_geom_bond_type
C24   H16   S    
N2    Zn1   S    
C4    C8    A    
C26   H19   S    
O9    Zn2   S    
C20   O3    S    
C25   H17   S    
C3    C7    A    
O12   Zn1   S    
C15   C16   S    
C5    C36   A    
C12   O10   A    
C18   C19   S    
C14   O16   S    
C20   H8    S    
C10   C31   S    
C23   O12   A    
C17   O2    S    
C23   O15   A    
C10   C35   A    
O10   Zn1   S    
N1    Zn2   S    
C21   H9    S    
C19   H6    S    
O1    Zn1   S    
C22   H14   S    
C24   H15   S    
C22   H11   S    
C4    C35   A    
C21   C22   S    
C2    C6    A    
C4    C28   S    
O11   Zn2   S    
C5    C29   S    
C28   H24   S    
C1    O11   A    
C29   H25   S    
C35   O2    S    
C17   H31   S    
C31   O13   A    
C1    O1    A    
C25   H18   S    
N4    N6    A    
C11   N5    A    
N3    N5    A    
C11   N4    A    
C9    C23   S    
C14   H12   S    
C13   N3    A    
C3    C34   A    
C25   C26   S    
C1    C32   S    
C12   O9    A    
C30   O8    D    
C18   H3    S    
C34   O16   S    
C29   O7    D    
C2    O4    S    
O14   Zn1   S    
C17   C18   S    
C24   C25   S    
O15   Zn2   S    
C22   H13   S    
C24   O4    S    
C6    C30   S    
C30   H26   S    
C9    C34   A    
C16   H30   S    
C20   H7    S    
C21   H10   S    
C17   H32   S    
C31   O14   A    
C15   H23   S    
C27   H22   S    
C26   H20   S    
C5    C8    A    
C6    C7    A    
C27   O5    D    
C36   O3    S    
C32   C33   T    
C3    C27   S    
C18   H2    S    
C14   H1    S    
C8    C11   S    
N1    N2    T    
C28   O6    D    
C26   H21   S    
C19   H4    S    
C7    C13   S    
C20   C21   S    
C15   H27   S    
C14   C15   S    
C10   C36   A    
C16   H29   S    
C16   H28   S    
C12   C33   S    
O13   Zn2   S    
C2    C9    A    
C19   H5    S    
C13   N6    A    
