data_mof_unit_2287.cif
_audit_creation_date              2012-12-10T17:49:34-0500
_audit_creation_method            fapswitch 2.2
_symmetry_space_group_name_H-M    P1
_symmetry_Int_Tables_number       1
_space_group_crystal_system       triclinic
_cell_length_a                    10.533031
_cell_length_b                    10.72514
_cell_length_c                    9.930397
_cell_angle_alpha                 88.281911
_cell_angle_beta                  89.76078
_cell_angle_gamma                 92.586602
_cell_volume                      1120.15545366

loop_
_atom_site_label
_atom_site_type_symbol
_atom_type_description
_atom_site_fract_x
_atom_site_fract_y
_atom_site_fract_z
_atom_type_partial_charge
C1    C     C_R   0.511018 0.260354 0.502303 0.957131
C2    C     C_3   0.963864 0.606855 0.437340 -0.232235
C3    C     C_3   0.041418 0.505756 0.370758 -0.218671
C4    C     C_3   0.123043 0.499855 0.498464 -0.139283
C5    C     C_R   0.510471 0.102892 0.760704 -0.110119
C6    C     C_R   0.459219 0.036979 0.872946 -0.126506
C7    C     C_R   0.390970 0.924701 0.856495 -0.146788
C8    C     C_R   0.386182 0.872023 0.730085 -0.108526
C9    C     C_R   0.449689 0.932401 0.618396 0.107506
C10   C     C_R   0.494609 0.056287 0.629228 0.048057
C11   C     C_R   0.523246 0.126322 0.507867 -0.201325
C12   C     C_R   0.257678 0.499411 0.499816 0.935038
C13   C     C_R   0.541002 0.064517 0.386062 0.427897
C14   C     C_R   0.518552 0.938050 0.383451 -0.248570
C15   C     C_R   0.475707 0.871467 0.498063 -0.180147
C16   C     C_R   0.332585 0.334809 0.146021 -0.167439
C17   C     C_R   0.253878 0.249789 0.079047 0.392065
C18   C     C_R   0.255497 0.248773 0.939684 -0.245683
C19   C     C_R   0.334896 0.333352 0.866430 -0.220809
C20   C     C_R   0.417658 0.418737 0.930963 0.128719
C21   C     C_R   0.417207 0.419007 0.075341 0.098253
C22   C     C_R   0.581123 0.577600 0.066278 0.219103
C23   C     C_R   0.487862 0.738702 0.498851 0.890507
C24   C     C_R   0.580796 0.575111 0.923493 -0.111759
C25   C     C_R   0.742492 0.501742 0.500182 0.934017
C26   C     C_3   0.036599 0.396149 0.561821 0.341578
C27   C     C_3   0.953264 0.402544 0.435868 0.392238
C28   C     C_3   0.877546 0.502388 0.501726 -0.193260
C29   C     C_3   0.960709 0.496827 0.628169 0.096235
C30   C     C_3   0.048622 0.601635 0.564472 -0.188828
H1    H     H_    0.346050 0.876081 0.942445 0.156573
H2    H     H_    0.333883 0.783507 0.720802 0.147342
H3    H     H_    0.538888 0.891100 0.291854 0.197912
H4    H     H_    0.325508 0.330987 0.252925 0.228141
H5    H     H_    0.195116 0.181789 0.887778 0.242902
H6    H     H_    0.330688 0.328246 0.759587 0.259544
H7    H     H_    0.646450 0.634808 0.864351 0.155043
H8    H     H_    0.092299 0.683146 0.616276 0.161670
H9    H     H_    0.929771 0.692650 0.386624 0.183741
H10   H     H_    0.077730 0.508317 0.265505 0.183740
H11   H     H_    0.566758 0.186961 0.780095 0.183126
H12   H     H_    0.470255 0.074457 0.972374 0.199885
N1    N     N_R   0.498800 0.498800 0.142780 -0.126154
N2    N     N_R   0.498760 0.498720 0.857170 -0.138112
O1    O     O_R   0.500000 0.316780 0.614690 -0.664358
O2    O     O_R   0.499990 0.316750 0.385360 -0.571725
O3    O     O_R   0.313960 0.499980 0.614650 -0.637601
O4    O     O_R   0.313940 0.499960 0.385310 -0.648766
O5    O     O_R   0.500010 0.683250 0.614640 -0.628046
O6    O     O_R   0.500000 0.683220 0.385310 -0.640860
O7    O     O_R   0.686060 0.500040 0.614690 -0.641464
O8    O     O_R   0.686040 0.500020 0.385350 -0.606104
Zn1   Zn    Zn3+2 0.500010 0.500020 0.653130 0.926145
Zn2   Zn    Zn3+2 0.499990 0.499980 0.346870 0.978698
Cl1   Cl    Cl    0.887275 0.271392 0.350443 -0.448191
C31   C     C_3   0.678288 0.666329 0.128547 -0.408629
C32   C     C_3   0.668808 0.800910 0.074559 -0.853074
H13   H     H_    0.708777 0.812269 0.971134 0.262225
H14   H     H_    0.568287 0.827854 0.073005 0.262920
H15   H     H_    0.724443 0.865358 0.139746 0.291133
H16   H     H_    0.668540 0.668003 0.237866 0.268538
H17   H     H_    0.775062 0.634564 0.106780 0.203858
Cl2   Cl    Cl    0.153985 0.142634 0.170840 -0.525749
Cl3   Cl    Cl    0.085708 0.252663 0.634792 -0.615900
C33   C     C_3   0.914098 0.495576 0.774620 -0.335328
C34   C     C_3   0.023953 0.501238 0.873950 -0.806227
H18   H     H_    0.082359 0.418959 0.863559 0.298789
H19   H     H_    0.084546 0.587616 0.855974 0.245699
H20   H     H_    0.985996 0.500933 0.978475 0.251403
H21   H     H_    0.856097 0.578024 0.789039 0.205869
H22   H     H_    0.853927 0.409420 0.795790 0.241025
Cl4   Cl    Cl    0.601109 0.136617 0.234847 -0.568022

loop_
_geom_bond_atom_site_label_1
_geom_bond_atom_site_label_2
_ccdc_geom_bond_type
C34   H19   S    
C16   C21   A    
C19   C20   A    
C1    C11   S    
C12   O4    A    
C14   H3    S    
C7    C8    A    
C25   C28   S    
O4    Zn2   S    
C26   C27   S    
O6    Zn2   S    
C28   C29   S    
C19   H6    S    
C5    C6    A    
C27   Cl1   S    
C1    O2    A    
C32   H14   S    
C34   H20   S    
C33   H21   S    
C31   C32   S    
C30   H8    S    
C18   C19   A    
C26   Cl3   S    
C16   H4    S    
C21   N1    A    
C2    H9    S    
C8    C9    A    
C4    C12   S    
C18   H5    S    
O3    Zn1   S    
C15   C23   S    
C34   H18   S    
O1    Zn1   S    
C13   C14   A    
C12   O3    A    
N2    Zn1   S    
C20   N2    A    
O8    Zn2   S    
C17   C18   A    
C7    H1    S    
C8    H2    S    
C16   C17   A    
C32   H15   S    
C22   C31   S    
C33   H22   S    
O7    Zn1   S    
C25   O7    A    
C29   C30   S    
N1    Zn2   S    
C22   N1    A    
O2    Zn2   S    
C24   H7    S    
C29   C33   S    
C3    H10   S    
C24   N2    A    
C31   H17   S    
C3    C4    S    
C9    C10   A    
C5    H11   S    
C14   C15   A    
C23   O6    A    
C4    C26   S    
C6    C7    A    
C13   Cl4   S    
C2    C30   S    
C3    C27   S    
C2    C3    S    
C9    C15   A    
C25   O8    A    
C5    C10   A    
C17   Cl2   S    
C11   C13   A    
C1    O1    A    
C32   H13   S    
O5    Zn1   S    
C22   C24   A    
C23   O5    A    
C10   C11   A    
C20   C21   A    
C26   C29   S    
C33   C34   S    
C6    H12   S    
C27   C28   S    
C31   H16   S    
C2    C28   S    
C4    C30   S    
