data_mof_unit_3076.cif
_audit_creation_date              2012-12-10T17:25:31-0500
_audit_creation_method            fapswitch 2.2
_symmetry_space_group_name_H-M    P1
_symmetry_Int_Tables_number       1
_space_group_crystal_system       triclinic
_cell_length_a                    10.374312
_cell_length_b                    10.887816
_cell_length_c                    23.279047
_cell_angle_alpha                 92.740819
_cell_angle_beta                  81.315841
_cell_angle_gamma                 95.578619
_cell_volume                      2585.52822319

loop_
_atom_site_label
_atom_site_type_symbol
_atom_type_description
_atom_site_fract_x
_atom_site_fract_y
_atom_site_fract_z
_atom_type_partial_charge
C1    C     C_R   0.555654 0.731528 0.497206 0.780945
C2    C     C_R   0.444347 0.268470 0.502821 0.780830
C3    C     C_R   0.500547 0.366823 0.754562 0.235045
C4    C     C_R   0.499560 0.633316 0.245459 0.234998
C5    C     C_R   0.473056 0.379026 0.697847 0.081296
C6    C     C_R   0.527061 0.621034 0.302166 0.081215
C7    C     C_R   0.502830 0.494901 0.671844 -0.119602
C8    C     C_R   0.497183 0.505151 0.328156 -0.119627
C9    C     C_R   0.569762 0.593267 0.700330 0.127728
C10   C     C_R   0.430169 0.406856 0.299660 0.127784
C11   C     C_R   0.591903 0.577859 0.757541 0.225833
C12   C     C_R   0.408032 0.422335 0.242455 0.225842
C13   C     C_R   0.525356 0.475687 0.788490 0.104577
C14   C     C_R   0.474646 0.524496 0.211519 0.104583
C15   C     C_2   0.588358 0.863364 0.495884 0.350369
C16   C     C_2   0.411668 0.136632 0.504248 0.350464
C17   C     C_2   0.489267 0.934961 0.504492 -0.262480
C18   C     C_2   0.510789 0.065069 0.495812 -0.262303
C19   C     C_2   0.927846 0.510602 0.505276 0.334815
C20   C     C_2   0.072155 0.489390 0.494726 0.334832
C21   C     C_R   0.500171 0.500421 0.609963 0.896551
C22   C     C_R   0.499830 0.499582 0.390037 0.896601
C23   C     C_R   0.516734 0.403907 0.119214 0.575979
C24   C     C_R   0.483238 0.596289 0.880792 0.575967
C25   C     C_R   0.555761 0.618080 0.115848 0.565287
C26   C     C_R   0.444210 0.382119 0.884159 0.565307
C27   C     C_R   0.534862 0.618549 0.057612 -0.065340
C28   C     C_R   0.465093 0.381649 0.942397 -0.065357
C29   C     C_R   0.508147 0.503099 0.029441 -0.121859
C30   C     C_R   0.491811 0.497099 0.970568 -0.121853
C31   C     C_R   0.502357 0.393399 0.060008 -0.161849
C32   C     C_R   0.497603 0.606799 0.940000 -0.161841
C33   C     C_R   0.536806 0.729393 0.027641 0.036443
C34   C     C_R   0.463138 0.270805 0.972368 0.036439
C35   C     C_R   0.522119 0.722817 0.968277 0.549452
C36   C     C_R   0.477828 0.277381 0.031732 0.549464
H1    H     H_    0.610947 0.103520 0.482923 0.192266
H2    H     H_    0.389132 0.896519 0.517451 0.192223
N1    N     N_R   0.512578 0.516519 0.148206 -0.332045
N2    N     N_R   0.487411 0.483677 0.851801 -0.332046
N3    N     N_2   0.842710 0.448880 0.476480 0.068338
N4    N     N_2   0.157290 0.551120 0.523520 0.068344
O1    O     O_R   0.431060 0.692470 0.504730 -0.666792
O2    O     O_R   0.568940 0.307530 0.495270 -0.666835
O3    O     O_R   0.651120 0.659650 0.489640 -0.589031
O4    O     O_R   0.348880 0.340350 0.510360 -0.589017
O5    O     O_R   0.389950 0.516450 0.591390 -0.585282
O6    O     O_R   0.610050 0.483550 0.408610 -0.585280
O7    O     O_R   0.610020 0.483630 0.576300 -0.628449
O8    O     O_R   0.389980 0.516370 0.423700 -0.628415
O9    O     O_2   0.539487 0.304089 0.146984 -0.499737
O10   O     O_2   0.460469 0.696102 0.853023 -0.499742
O11   O     O_2   0.630280 0.711753 0.137508 -0.563697
O12   O     O_2   0.369698 0.288448 0.862492 -0.563671
Zn1   Zn    Zn3+2 0.353060 0.521920 0.510080 0.967120
Zn2   Zn    Zn3+2 0.646940 0.478080 0.489920 0.967082
C37   C     C_3   0.543612 0.854392 0.059171 -0.722949
H3    H     H_    0.473733 0.852064 0.100293 0.232160
H4    H     H_    0.644639 0.881119 0.068344 0.267925
H5    H     H_    0.515756 0.928099 0.033671 0.265835
C38   C     C_3   0.456316 0.145804 0.940840 -0.722967
H6    H     H_    0.526202 0.148120 0.899721 0.232170
H7    H     H_    0.484151 0.072091 0.966344 0.265837
H8    H     H_    0.355288 0.119092 0.931664 0.267925
O13   O     O_3   0.114253 0.588165 0.578490 -0.555254
C39   C     C_3   0.176332 0.706706 0.587808 -0.122393
H9    H     H_    0.181491 0.766221 0.549739 0.130952
H10   H     H_    0.274876 0.701536 0.599640 0.194006
H11   H     H_    0.117728 0.752433 0.625131 0.138827
O14   O     O_3   0.885749 0.411820 0.421512 -0.555297
C40   C     C_3   0.823657 0.293283 0.412198 -0.122293
H12   H     H_    0.725121 0.298461 0.400360 0.194037
H13   H     H_    0.818479 0.233775 0.450271 0.130950
H14   H     H_    0.882264 0.247542 0.374881 0.138799
O15   O     O_3   0.530154 0.830334 0.937931 -0.576936
C41   C     C_3   0.663359 0.867961 0.919112 -0.285015
H15   H     H_    0.713584 0.903963 0.956195 0.167008
H16   H     H_    0.716223 0.792112 0.895559 0.156021
H17   H     H_    0.669030 0.944016 0.888529 0.195860
O16   O     O_3   0.469779 0.169865 0.062080 -0.576932
C42   C     C_3   0.336570 0.132251 0.080898 -0.285033
H18   H     H_    0.283710 0.208110 0.104445 0.156021
H19   H     H_    0.286347 0.096242 0.043816 0.167012
H20   H     H_    0.330889 0.056205 0.111487 0.195862
C43   C     C_3   0.550229 0.246916 0.768622 -0.807378
H21   H     H_    0.604847 0.258911 0.806292 0.224144
H22   H     H_    0.468896 0.173078 0.777193 0.275575
H23   H     H_    0.620595 0.215482 0.731267 0.220234
C44   C     C_3   0.449935 0.753278 0.231436 -0.807270
H24   H     H_    0.531305 0.827081 0.222867 0.275576
H25   H     H_    0.395282 0.741356 0.193775 0.224175
H26   H     H_    0.379616 0.784716 0.268807 0.220196
C45   C     C_3   0.423396 0.267550 0.663184 -0.826614
H27   H     H_    0.336571 0.288977 0.644171 0.259875
H28   H     H_    0.501354 0.242519 0.627618 0.226130
H29   H     H_    0.391952 0.185997 0.690279 0.247799
C46   C     C_3   0.576830 0.732447 0.336838 -0.826483
H30   H     H_    0.663637 0.710927 0.355839 0.259929
H31   H     H_    0.608338 0.814003 0.309751 0.247764
H32   H     H_    0.498911 0.757519 0.372413 0.226119
C47   C     C_3   0.619443 0.713467 0.670614 -0.912498
H33   H     H_    0.583202 0.721487 0.628660 0.207339
H34   H     H_    0.585445 0.792439 0.698921 0.259854
H35   H     H_    0.728045 0.722570 0.662303 0.241988
C48   C     C_3   0.380417 0.286651 0.329358 -0.912511
H36   H     H_    0.416642 0.278572 0.371310 0.207364
H37   H     H_    0.271815 0.277599 0.337665 0.242016
H38   H     H_    0.414374 0.207680 0.301039 0.259852
C49   C     C_3   0.700095 0.658399 0.781586 -0.833211
H39   H     H_    0.675298 0.755429 0.788185 0.270466
H40   H     H_    0.721015 0.623655 0.822927 0.215671
H41   H     H_    0.792361 0.656367 0.750546 0.228728
C50   C     C_3   0.299812 0.341863 0.218396 -0.833296
H42   H     H_    0.278924 0.376649 0.177058 0.215673
H43   H     H_    0.324563 0.244820 0.211786 0.270452
H44   H     H_    0.207545 0.343917 0.249433 0.228757
O17   O     O_3   0.282934 0.089267 0.520156 -0.595609
C51   C     C_3   0.226049 0.062895 0.469118 -0.325929
H45   H     H_    0.274494 0.988894 0.441830 0.168559
H46   H     H_    0.229194 0.146728 0.443283 0.160177
H47   H     H_    0.121721 0.029089 0.481627 0.189016
O18   O     O_3   0.717071 0.910715 0.479897 -0.595624
C52   C     C_3   0.774163 0.937018 0.530886 -0.325845
H48   H     H_    0.771032 0.853172 0.556710 0.160173
H49   H     H_    0.725866 0.011050 0.558211 0.168518
H50   H     H_    0.878493 0.970743 0.518311 0.189024
C53   C     C_3   0.119802 0.398380 0.447015 -0.820711
H51   H     H_    0.218221 0.374671 0.447076 0.271331
H52   H     H_    0.118606 0.436110 0.403650 0.257003
H53   H     H_    0.059913 0.308572 0.452668 0.215970
C54   C     C_3   0.880198 0.601607 0.552989 -0.820751
H54   H     H_    0.881388 0.563872 0.596353 0.257021
H55   H     H_    0.940091 0.691412 0.547338 0.215940
H56   H     H_    0.781782 0.625320 0.552925 0.271319

loop_
_geom_bond_atom_site_label_1
_geom_bond_atom_site_label_2
_ccdc_geom_bond_type
C24   O10   S    
C39   H10   S    
C45   H27   S    
C15   O18   S    
C3    C43   S    
C32   C35   A    
C22   O6    A    
C19   C20   S    
C41   H17   S    
C54   H56   S    
C26   N2    A    
C46   H32   S    
C21   O7    A    
C42   H18   S    
C52   H48   S    
C43   H21   S    
C27   C33   A    
C48   H37   S    
C35   O15   S    
C47   H33   S    
C18   H1    S    
C25   O11   S    
C4    C44   S    
C49   H40   S    
C37   H4    S    
C39   H11   S    
C11   C49   S    
C27   C29   A    
O6    Zn2   S    
C38   H7    S    
C51   H45   S    
C13   N2    S    
C46   H31   S    
C14   N1    S    
C1    O1    A    
O3    Zn2   S    
C2    O2    A    
O4    Zn1   S    
N4    O13   S    
C8    C22   S    
O14   C40   S    
C1    C15   S    
C44   H25   S    
C2    C16   S    
C3    C13   A    
C22   O8    A    
C50   H44   S    
C5    C45   S    
C39   H9    S    
C28   C34   A    
C45   H28   S    
C53   H52   S    
C26   O12   S    
C42   H19   S    
C46   H30   S    
C43   H22   S    
C19   C54   S    
C48   H38   S    
C6    C46   S    
C41   H15   S    
C20   C53   S    
C4    C6    A    
C36   O16   S    
C49   H41   S    
C16   O17   S    
C5    C7    A    
C52   H50   S    
C6    C8    A    
C54   H55   S    
C7    C21   S    
C34   C38   S    
C2    O4    A    
C51   H47   S    
C23   C31   A    
C38   H8    S    
O15   C41   S    
C24   C32   A    
N3    Zn2   S    
C29   C30   A    
N4    Zn1   S    
O2    Zn2   S    
C23   O9    S    
C17   C18   S    
C16   C18   D    
C44   H26   S    
C9    C11   A    
C10   C12   A    
O1    Zn1   S    
C12   C14   A    
C45   H29   S    
C54   H54   S    
C42   H20   S    
O5    Zn1   S    
C50   H42   S    
C47   H34   S    
C43   H23   S    
C15   C17   D    
C24   N2    A    
C33   C37   S    
C8    C10   A    
C41   H16   S    
O16   C42   S    
C3    C5    A    
C40   H14   S    
C20   N4    D    
C53   H51   S    
C25   C27   A    
O7    Zn2   S    
C48   H36   S    
C26   C28   A    
O8    Zn1   S    
C28   C30   A    
C44   H24   S    
C53   H53   S    
C40   H12   S    
C29   C31   A    
O17   C51   S    
C25   N1    A    
C30   C32   A    
C11   C13   A    
C1    O3    A    
C37   H3    S    
C23   N1    A    
C33   C35   A    
C12   C50   S    
C34   C36   A    
C17   H2    S    
C4    C14   A    
C38   H6    S    
C51   H46   S    
C52   H49   S    
C7    C9    A    
C37   H5    S    
C9    C47   S    
O13   C39   S    
C40   H13   S    
C31   C36   A    
C10   C48   S    
C47   H35   S    
C50   H43   S    
O18   C52   S    
C49   H39   S    
C19   N3    D    
N3    O14   S    
C21   O5    A    
