data_mof_unit_1355.cif
_audit_creation_date              2012-12-11T14:43:34-0500
_audit_creation_method            fapswitch 2.2
_symmetry_space_group_name_H-M    P1
_symmetry_Int_Tables_number       1
_space_group_crystal_system       triclinic
_cell_length_a                    20.790028
_cell_length_b                    7.1041
_cell_length_c                    16.338596
_cell_angle_alpha                 89.996878
_cell_angle_beta                  92.550478
_cell_angle_gamma                 90.002216
_cell_volume                      2410.7293227

loop_
_atom_site_label
_atom_site_type_symbol
_atom_type_description
_atom_site_fract_x
_atom_site_fract_y
_atom_site_fract_z
_atom_type_partial_charge
O1    O     O_R   0.564840 0.505290 0.579830 -0.532508
O2    O     O_R   0.435160 0.005290 0.420170 -0.532502
O3    O     O_R   0.556720 0.179930 0.409350 -0.543142
O4    O     O_R   0.443280 0.679930 0.590650 -0.543135
C1    C     C_R   0.570401 0.345443 0.380849 0.711155
C2    C     C_R   0.429597 0.845431 0.619148 0.711117
O5    O     O_R   0.572280 0.175810 0.578530 -0.542294
O6    O     O_R   0.427720 0.675810 0.421470 -0.542292
O7    O     O_R   0.450830 0.001920 0.590540 -0.530672
O8    O     O_R   0.549170 0.501920 0.409460 -0.530682
C3    C     C_R   0.590059 0.345231 0.604861 0.700690
C4    C     C_R   0.409940 0.845231 0.395141 0.700641
O9    O     O_3   0.460130 0.338030 0.503750 -0.369040
O10   O     O_3   0.539870 0.838030 0.496250 -0.369052
V1    V     V_3+5 0.507400 0.064560 0.499310 1.461610
V2    V     V_3+5 0.492600 0.564560 0.500690 1.461621
C5    C     C_R   0.141984 0.904385 0.169751 -0.059876
C6    C     C_R   0.858015 0.404399 0.830246 -0.060049
C7    C     C_R   0.357399 0.863730 0.331005 -0.062777
C8    C     C_R   0.642600 0.363739 0.668997 -0.062814
C9    C     C_R   0.315352 0.024766 0.207720 -0.174513
C10   C     C_R   0.684659 0.524865 0.792249 -0.174509
C11   C     C_R   0.365977 0.985806 0.264532 -0.162734
C12   C     C_R   0.634033 0.485887 0.735442 -0.162715
C13   C     C_R   0.296683 0.780917 0.339919 -0.176744
C14   C     C_R   0.703308 0.280877 0.660103 -0.176722
C15   C     C_R   0.244916 0.823142 0.283902 0.129899
C16   C     C_R   0.755079 0.323128 0.716110 0.129878
C17   C     C_R   0.254348 0.945742 0.217032 0.160882
C18   C     C_R   0.745656 0.445788 0.782956 0.160924
C19   C     C_R   0.202786 0.986188 0.160467 -0.257255
C20   C     C_R   0.797220 0.486241 0.839516 -0.257329
C21   C     C_R   0.132803 0.787879 0.237769 -0.062699
C22   C     C_R   0.867190 0.287878 0.762239 -0.062513
C23   C     C_R   0.183560 0.747218 0.294127 -0.127253
C24   C     C_R   0.816430 0.247183 0.705893 -0.127229
H1    H     H_    0.210470 0.075450 0.107966 0.108920
H2    H     H_    0.789543 0.575549 0.892000 0.108930
H3    H     H_    0.085945 0.727431 0.247038 0.198019
H4    H     H_    0.914049 0.227458 0.752965 0.198140
H5    H     H_    0.323715 0.119065 0.157157 0.112677
H6    H     H_    0.676305 0.619224 0.842788 0.112671
H7    H     H_    0.174861 0.655316 0.345401 0.176452
H8    H     H_    0.825124 0.155249 0.654632 0.176456
H9    H     H_    0.412135 0.053004 0.257038 0.113341
H10   H     H_    0.587883 0.553130 0.742919 0.113351
H11   H     H_    0.289140 0.690214 0.391992 0.141299
H12   H     H_    0.710843 0.190118 0.608050 0.141355
C25   C     C_R   0.379246 0.952856 0.832132 -0.165547
C26   C     C_R   0.620776 0.453419 0.167923 -0.165566
H13   H     H_    0.469021 0.934064 0.773107 0.105599
H14   H     H_    0.531000 0.434712 0.226951 0.105630
H15   H     H_    0.298598 0.002063 0.951052 0.113861
H16   H     H_    0.701434 0.502809 0.049024 0.113857
H17   H     H_    0.402637 0.990013 0.890519 0.112682
H18   H     H_    0.597395 0.490870 0.109564 0.112682
C27   C     C_R   0.388969 0.861330 0.690672 -0.068694
C28   C     C_R   0.611029 0.361394 0.309323 -0.068742
C29   C     C_R   0.075258 0.871218 0.729562 0.376790
C30   C     C_R   0.924754 0.371040 0.270440 0.376700
C31   C     C_R   0.109985 0.876447 0.658545 -0.138290
C32   C     C_R   0.890021 0.376035 0.341455 -0.138156
C33   C     C_R   0.176505 0.902727 0.661189 0.311239
C34   C     C_R   0.823501 0.402293 0.338821 0.311226
C35   C     C_R   0.211954 0.906100 0.737814 -0.007280
C36   C     C_R   0.788055 0.405943 0.262198 -0.007299
C37   C     C_R   0.175843 0.922840 0.810368 -0.032035
C38   C     C_R   0.824171 0.422867 0.189653 -0.032024
C39   C     C_R   0.281224 0.900086 0.745966 0.115367
C40   C     C_R   0.718784 0.400065 0.254041 0.115369
C41   C     C_R   0.311860 0.942693 0.823280 0.134446
C42   C     C_R   0.688158 0.443029 0.176759 0.134455
C43   C     C_R   0.275331 0.972078 0.891771 -0.194790
C44   C     C_R   0.724694 0.472562 0.108284 -0.194798
C45   C     C_R   0.208769 0.956398 0.886090 -0.134564
C46   C     C_R   0.791251 0.456716 0.113951 -0.134608
C47   C     C_R   0.321566 0.845333 0.681899 -0.152670
C48   C     C_R   0.678426 0.345158 0.318073 -0.152696
C49   C     C_R   0.417247 0.918187 0.765740 -0.171923
C50   C     C_R   0.582767 0.418627 0.234298 -0.171905
C51   C     C_R   0.107393 0.905932 0.806046 -0.242753
C52   C     C_R   0.892620 0.405888 0.193964 -0.242868
H19   H     H_    0.302271 0.786187 0.625397 0.171147
H20   H     H_    0.697704 0.285748 0.374533 0.171181
H21   H     H_    0.084546 0.864681 0.599440 0.227297
H22   H     H_    0.915459 0.364122 0.400555 0.227300
H23   H     H_    0.183252 0.973397 0.941937 0.087914
H24   H     H_    0.816771 0.473859 0.058114 0.087983
O11   O     O_R   0.950790 0.256670 0.090520 -0.518989
O12   O     O_R   0.049210 0.756670 0.909480 -0.518980
O13   O     O_R   0.927720 0.590370 0.921470 -0.527546
O14   O     O_R   0.072280 0.090370 0.078530 -0.527396
C53   C     C_R   0.910353 0.420919 0.894687 0.711416
C54   C     C_R   0.089647 0.920916 0.105312 0.711362
O15   O     O_R   0.943270 0.586180 0.090640 -0.539649
O16   O     O_R   0.056730 0.086180 0.909360 -0.539620
O17   O     O_R   0.064850 0.759970 0.079840 -0.536754
O18   O     O_R   0.935150 0.259970 0.920160 -0.536696
C55   C     C_R   0.930556 0.417210 0.119390 0.809486
C56   C     C_R   0.069451 0.917218 0.880616 0.809450
O19   O     O_3   0.039850 0.428050 0.996240 -0.372748
O20   O     O_3   0.960150 0.928050 0.003760 -0.372819
V3    V     V_3+5 0.992610 0.701540 0.000700 1.538808
V4    V     V_3+5 0.007390 0.201540 0.999300 1.539014
S1    S     S_3+6 0.991686 0.818614 0.718268 0.013046
O21   O     O_2   0.964434 0.903894 0.639961 -0.304152
O22   O     O_2   0.984426 0.608379 0.713492 -0.324432
O23   O     O_3   0.949680 0.898891 0.796599 -0.527206
H25   H     H_    0.905214 0.852458 0.785459 0.348600
S2    S     S_3+6 0.008344 0.318685 0.281761 0.012995
O24   O     O_2   0.035572 0.404515 0.359961 -0.304331
O25   O     O_2   0.015664 0.108500 0.286801 -0.324207
O26   O     O_3   0.050332 0.398570 0.203334 -0.527095
H26   H     H_    0.094857 0.352835 0.214676 0.348543
Cl1   Cl    Cl    0.208151 0.966693 0.566536 -0.631256
Cl2   Cl    Cl    0.791857 0.465905 0.433516 -0.631336

loop_
_geom_bond_atom_site_label_1
_geom_bond_atom_site_label_2
_ccdc_geom_bond_type
C36   C38   A    
C33   C35   A    
C34   Cl2   S    
C40   C48   A    
C52   C55   S    
C27   C49   A    
C39   C47   A    
O1    C3    A    
O2    C4    A    
C2    O7    A    
C10   H6    S    
O5    C3    A    
S1    O22   D    
C21   H3    S    
C44   C46   A    
C1    C28   S    
O11   C55   A    
C11   H9    S    
O15   C55   A    
C15   C17   A    
C47   H19   S    
O23   H25   S    
C30   C32   A    
C39   C41   A    
C26   C42   A    
S2    O24   D    
C32   C34   A    
H16   C44   S    
C30   C52   A    
C8    C12   A    
C35   C37   A    
C20   H2    S    
C23   H7    S    
C13   H11   S    
C22   C24   A    
C14   H12   S    
C33   Cl1   S    
O5    V1    S    
O19   V3    S    
C43   C45   A    
C2    C27   S    
C5    C21   A    
O12   C56   A    
O15   V3    S    
H13   C49   S    
S1    O23   S    
C3    C8    S    
C29   C31   A    
C27   C47   A    
C42   C44   A    
C41   C43   A    
O14   V4    S    
C54   O17   A    
C15   C23   A    
C25   H17   S    
C9    C17   A    
C26   H18   S    
C25   C49   A    
C34   C36   A    
O4    V2    S    
C7    C11   A    
C48   H20   S    
O13   C53   A    
C32   H22   S    
O6    C4    A    
O14   C54   A    
O1    V2    S    
C29   S1    S    
O20   V4    S    
O2    V1    S    
C6    C22   A    
S2    O26   S    
O17   V3    S    
C31   H21   S    
C9    H5    S    
O4    C2    A    
C37   C51   A    
O19   V4    S    
C9    C11   A    
O11   V4    S    
C13   C15   A    
C5    C19   A    
C22   H4    S    
C24   H8    S    
C37   C45   A    
O3    V1    S    
O26   H26   S    
C45   H23   S    
C46   H24   S    
C10   C18   A    
C31   C33   A    
H15   C43   S    
C29   C51   A    
O13   V3    S    
O3    C1    A    
C26   C50   A    
C51   C56   S    
C28   C50   A    
C38   C46   A    
S1    O21   D    
C14   C16   A    
C38   C52   A    
O16   V4    S    
O7    V1    S    
C12   H10   S    
C1    O8    A    
C17   C19   A    
O8    V2    S    
C18   C20   A    
C36   C40   A    
C8    C14   A    
C35   C39   A    
O16   C56   A    
C4    C7    S    
C16   C18   A    
C21   C23   A    
C10   C12   A    
O20   V3    S    
C7    C13   A    
S2    O25   D    
O12   V3    S    
C30   S2    S    
C28   C48   A    
C19   H1    S    
C6    C20   A    
C16   C24   A    
O6    V2    S    
C25   C41   A    
O9    V2    S    
C6    C53   S    
O10   V1    S    
C40   C42   A    
C5    C54   S    
H14   C50   S    
C53   O18   A    
O18   V4    S    
