data_mof_unit_1848.cif
_audit_creation_date              2012-12-11T19:58:17-0500
_audit_creation_method            fapswitch 2.2
_symmetry_space_group_name_H-M    P1
_symmetry_Int_Tables_number       1
_space_group_crystal_system       triclinic
_cell_length_a                    8.240535
_cell_length_b                    16.283708
_cell_length_c                    22.880767
_cell_angle_alpha                 108.371247
_cell_angle_beta                  89.29255
_cell_angle_gamma                 83.839174
_cell_volume                      2893.51085092

loop_
_atom_site_label
_atom_site_type_symbol
_atom_type_description
_atom_site_fract_x
_atom_site_fract_y
_atom_site_fract_z
_atom_type_partial_charge
Ba1   Ba    Ba6+2 0.335320 0.541410 0.478120 1.637647
Ba2   Ba    Ba6+2 0.854470 0.458670 0.521900 1.647981
C1    C     C_3   0.010507 0.859903 0.372412 -0.365618
C2    C     C_3   0.024685 0.769849 0.379758 0.345933
C3    C     C_3   0.060102 0.334418 0.325593 0.292360
C4    C     C_3   0.050592 0.311026 0.256003 -0.362844
C5    C     C_3   0.598417 0.248257 0.647931 0.349322
C6    C     C_3   0.558840 0.189416 0.684956 -0.342681
C7    C     C_3   0.096159 0.237948 0.645208 0.365439
C8    C     C_3   0.071820 0.164675 0.671204 -0.348734
C9    C     C_R   0.829311 0.524888 0.336017 -0.299643
C10   C     C_R   0.564861 0.567573 0.950646 -0.024567
C11   C     C_R   0.521390 0.563681 0.889970 0.593991
C12   C     C_3   0.512304 0.726721 0.345863 0.319750
C13   C     C_R   0.537581 0.408170 0.860754 0.589382
C14   C     C_R   0.575339 0.410425 0.921601 -0.045246
C15   C     C_R   0.589538 0.490296 0.966771 -0.052014
C16   C     C_R   0.583019 0.647277 0.995750 -0.076160
C17   C     C_R   0.624929 0.650412 0.055278 -0.075732
C18   C     C_R   0.648209 0.574093 0.072258 -0.015672
C19   C     C_R   0.629475 0.493129 0.027997 -0.058912
C20   C     C_R   0.599010 0.333754 0.937649 -0.063518
C21   C     C_R   0.635297 0.334043 0.998015 0.048945
C22   C     C_R   0.651739 0.415644 0.044645 -0.048803
C23   C     C_3   0.476588 0.750993 0.288016 -0.306884
C24   C     C_R   0.690410 0.423251 0.107178 0.579175
C25   C     C_R   0.690176 0.577861 0.132653 0.577261
C26   C     C_2   0.332447 0.434374 0.758109 -0.098353
C27   C     C_3   0.306970 0.411763 0.689685 -0.070102
C28   C     C_1   0.499980 0.515950 0.687201 0.032917
C29   C     C_2   0.544524 0.522592 0.744362 -0.088006
C30   C     C_2   0.456013 0.480500 0.783435 0.214430
C31   C     C_R   0.887439 0.549034 0.238976 -0.098045
C32   C     C_R   0.926861 0.556391 0.299765 -0.016574
C33   C     C_R   0.696997 0.481335 0.311774 0.034831
C34   C     C_3   0.614149 0.727003 0.631775 0.312597
C35   C     C_R   0.655299 0.474085 0.250570 -0.094827
C36   C     C_R   0.748901 0.509364 0.213583 0.213336
C37   C     C_2   0.385994 0.468228 0.659624 -0.263950
C38   C     C_2   0.403891 0.240742 0.482579 -0.282178
C39   C     C_R   0.800672 0.750467 0.512653 -0.307133
C40   C     C_2   0.248965 0.123270 0.424072 -0.129493
C41   C     C_2   0.265256 0.208590 0.445371 0.047803
C42   C     C_2   0.514330 0.185989 0.498122 0.000293
C43   C     C_3   0.469688 0.096477 0.493007 -0.050620
C44   C     C_3   0.375811 0.057134 0.435283 0.026876
C45   C     C_3   0.589370 0.825264 0.662622 -0.383086
C46   C     C_2   0.608090 0.033018 0.498399 -0.076232
C47   C     C_2   0.574590 0.966118 0.516371 -0.074948
C48   C     C_R   0.844258 0.926756 0.552421 -0.003845
C49   C     C_R   0.703081 0.899974 0.522062 -0.040506
C50   C     C_R   0.959962 0.866212 0.564689 -0.132600
C51   C     C_R   0.935611 0.778243 0.546126 0.068634
C52   C     C_R   0.680809 0.811053 0.502434 0.008418
C53   C     C_3   0.584675 0.272442 0.368777 0.310906
C54   C     C_3   0.624861 0.174382 0.339367 -0.376939
C55   C     C_3   0.137135 0.653174 0.667954 0.297894
C56   C     C_3   0.143553 0.676276 0.737615 -0.350484
H1    H     H_    0.086694 0.773404 0.423213 0.078417
H2    H     H_    0.667696 0.843804 0.702779 0.129692
H3    H     H_    0.622069 0.859015 0.629852 0.057127
H4    H     H_    0.459321 0.846859 0.678578 0.125032
H5    H     H_    0.453393 0.287995 0.382145 -0.005809
H6    H     H_    0.658525 0.293713 0.409936 0.067041
H7    H     H_    0.547331 0.150557 0.299548 0.126809
H8    H     H_    0.602690 0.140422 0.373193 0.057860
H9    H     H_    0.755575 0.158476 0.323187 0.127443
H10   H     H_    0.263019 0.635092 0.647337 0.007819
H11   H     H_    0.066173 0.596922 0.650785 0.087607
H12   H     H_    0.133642 0.881381 0.371391 0.135878
H13   H     H_    0.219829 0.730208 0.755719 0.130744
H14   H     H_    0.197171 0.618916 0.750009 0.077265
H15   H     H_    0.018204 0.696784 0.759310 0.134459
H16   H     H_    0.899117 0.751989 0.382955 -0.050021
H17   H     H_    0.935940 0.907274 0.411856 0.070560
H18   H     H_    0.934652 0.354178 0.346928 0.017291
H19   H     H_    0.134183 0.389665 0.341938 0.061656
H20   H     H_    0.972615 0.257686 0.238656 0.139452
H21   H     H_    0.997269 0.368389 0.243623 0.071019
H22   H     H_    0.174933 0.289525 0.233513 0.126955
H23   H     H_    0.950582 0.858647 0.328978 0.125004
H24   H     H_    0.479815 0.690862 0.247961 0.126859
H25   H     H_    0.635086 0.309803 0.679633 0.082065
H26   H     H_    0.484864 0.263795 0.626106 -0.078000
H27   H     H_    0.663682 0.178479 0.712631 0.135894
H28   H     H_    0.450588 0.220257 0.716652 0.118527
H29   H     H_    0.530700 0.125751 0.653366 0.096607
H30   H     H_    0.229446 0.241352 0.642972 -0.085073
H31   H     H_    0.051700 0.221583 0.597732 0.086513
H32   H     H_    0.139081 0.102682 0.641035 0.062063
H33   H     H_    0.940639 0.156364 0.673724 0.149786
H34   H     H_    0.443303 0.671580 0.344844 0.108471
H35   H     H_    0.119356 0.179577 0.718171 0.111795
H36   H     H_    0.587268 0.273136 0.902003 0.127002
H37   H     H_    0.638109 0.713455 0.088302 0.121667
H38   H     H_    0.965149 0.573503 0.211349 0.109075
H39   H     H_    0.565419 0.707819 0.985120 0.122817
H40   H     H_    0.648180 0.556774 0.762609 0.121595
H41   H     H_    0.264662 0.403517 0.784680 0.102074
H42   H     H_    0.551552 0.440803 0.231779 0.118071
H43   H     H_    0.861996 0.530215 0.382617 0.081223
H44   H     H_    0.645322 0.705967 0.345626 -0.035242
H45   H     H_    0.366126 0.456796 0.611043 0.079024
H46   H     H_    0.151537 0.100385 0.393807 0.077304
H47   H     H_    0.064722 0.888396 0.590554 0.091892
H48   H     H_    0.422591 0.308677 0.492636 0.058972
H49   H     H_    0.783502 0.682127 0.498294 0.073692
H50   H     H_    0.732162 0.038130 0.484539 0.097219
H51   H     H_    0.448272 0.959423 0.526151 0.103316
H52   H     H_    0.353008 0.787573 0.292420 0.141642
H53   H     H_    0.568495 0.792017 0.280140 0.124956
H54   H     H_    0.744172 0.706323 0.616997 0.005268
H55   H     H_    0.536865 0.710252 0.591233 0.061420
N1    N     N_R   0.506440 0.484437 0.845594 -0.420913
N2    N     N_R   0.707010 0.503490 0.150283 -0.418080
O1    O     O_2   0.414630 0.451750 0.353890 -0.461155
O2    O     O_3   0.062763 0.725544 0.653733 -0.634439
O3    O     O_3   0.462098 0.798968 0.397741 -0.603544
O4    O     O_2   0.775060 0.548280 0.646150 -0.452130
O5    O     O_3   0.534950 0.547420 0.574950 -0.502153
O6    O     O_3   0.073530 0.388570 0.588510 -0.472943
O7    O     O_3   0.570521 0.687547 0.674761 -0.628110
O8    O     O_3   0.168220 0.394330 0.455930 -0.481257
O9    O     O_3   0.678190 0.343400 0.553390 -0.475957
O10   O     O_2   0.854529 0.189588 0.496528 -0.489831
O11   O     O_3   0.728659 0.206118 0.605074 -0.598892
O12   O     O_3   0.654720 0.452660 0.425060 -0.497918
O13   O     O_3   0.021450 0.605740 0.544090 -0.492576
O14   O     O_2   0.953100 0.285520 0.441860 -0.456480
O15   O     O_3   0.132598 0.261357 0.339478 -0.640315
O16   O     O_2   0.978819 0.485477 0.704596 -0.485407
O17   O     O_3   0.009555 0.316477 0.683071 -0.575505
O18   O     O_2   0.494809 0.631046 0.877061 -0.595461
O19   O     O_2   0.533936 0.337788 0.821030 -0.623877
O20   O     O_2   0.712513 0.358446 0.123221 -0.620075
O21   O     O_2   0.711817 0.647973 0.169725 -0.619221
O22   O     O_3   0.116150 0.611500 0.411510 -0.487456
O23   O     O_2   0.266683 0.550840 0.299689 -0.500477
O24   O     O_3   0.619686 0.312473 0.325250 -0.629163
O25   O     O_3   0.116586 0.709751 0.329106 -0.602215
O26   O     O_2   0.236590 0.714510 0.558180 -0.459960
O27   O     O_3   0.511480 0.656670 0.446630 -0.496898
O28   O     O_2   0.342331 0.810743 0.506116 -0.492534
P1    P     P_3+3 0.594550 0.425840 0.359090 0.990112
P2    P     P_3+3 0.065650 0.701630 0.573510 0.983175
P3    P     P_3+3 0.497715 0.769791 0.464206 0.938626
P4    P     P_3+3 0.595130 0.574230 0.640920 0.990070
P5    P     P_3+3 0.695928 0.230246 0.536644 0.960722
P6    P     P_3+3 0.108068 0.605138 0.333904 0.942814
P7    P     P_3+3 0.133281 0.286032 0.419611 0.951836
P8    P     P_3+3 0.090984 0.402639 0.667338 0.965042
C57   C     C_3   0.656459 0.247847 0.012368 -0.168277
C58   C     C_3   0.633786 0.164918 0.959665 -0.472992
H56   H     H_    0.508266 0.168728 0.942785 0.142614
H57   H     H_    0.726090 0.153917 0.921362 0.142239
H58   H     H_    0.651178 0.108034 0.976784 0.144131
H59   H     H_    0.781888 0.238159 0.028210 0.158756
H60   H     H_    0.565975 0.252059 0.049923 0.157109

loop_
_geom_bond_atom_site_label_1
_geom_bond_atom_site_label_2
_ccdc_geom_bond_type
O28   P3    D    
C5    H25   S    
C53   C54   S    
C34   H54   S    
C45   H3    S    
O27   P3    S    
Ba1   P2    S    
C17   C18   A    
Ba1   O13   S    
C21   C57   S    
C45   H4    S    
C4    H21   S    
Ba1   O22   S    
C5    C6    S    
C13   O19   D    
C43   C44   S    
C42   C43   S    
O9    P5    S    
C3    C4    S    
C25   O21   D    
C47   H51   S    
C26   C27   S    
C33   C35   A    
C22   C24   A    
C6    H27   S    
C7    H30   S    
O11   P5    S    
C28   C29   D    
C56   H13   S    
C12   H44   S    
C27   P8    S    
O4    P4    D    
C54   H7    S    
Ba2   O14   S    
C53   O24   S    
C34   C45   S    
O2    P2    S    
Ba1   Ba2   S    
C40   C44   S    
C29   H40   S    
C24   N2    Am   
C24   O20   D    
C45   H2    S    
O1    P1    D    
O16   P8    D    
C38   C41   S    
C14   C15   A    
C47   C49   S    
C53   H5    S    
C10   C15   A    
O15   P7    S    
C48   C50   A    
C21   C22   A    
Ba1   O27   S    
Ba1   O1    S    
C58   H57   S    
C1    H17   S    
C7    C8    S    
C2    H16   S    
C11   N1    Am   
O26   P2    D    
C33   P1    S    
C52   P3    S    
Ba2   O12   S    
C5    H26   S    
O8    P7    S    
C5    O11   S    
C20   H36   S    
O22   P6    S    
C34   H55   S    
C32   P6    S    
C48   C49   A    
O23   P6    D    
C39   C52   A    
C57   H60   S    
O3    P3    S    
C1    H12   S    
Ba1   O26   S    
C7    H31   S    
Ba2   O5    S    
C16   C17   A    
C7    O17   S    
C8    H35   S    
C12   O3    S    
Ba2   P4    S    
Ba2   O8    S    
C15   C19   A    
O6    P8    S    
Ba1   O5    S    
C34   O7    S    
Ba1   O8    S    
C1    H23   S    
C35   C36   A    
C2    O25   S    
C28   P4    S    
O24   P1    S    
C4    H22   S    
C29   C30   S    
C26   C30   D    
C12   H34   S    
C53   H6    S    
C27   C37   S    
C51   P2    S    
C31   C32   A    
C13   N1    Am   
C9    H43   S    
O7    P4    S    
C18   C19   A    
C58   H58   S    
C39   C51   A    
C41   P7    S    
C23   H52   S    
C26   H41   S    
C3    O15   S    
C16   H39   S    
C8    H33   S    
C23   H24   S    
Ba2   O6    S    
C40   C41   D    
C55   H10   S    
C3    H19   S    
C1    C2    S    
C31   H38   S    
C17   H37   S    
C50   C51   A    
C38   H48   S    
C43   C46   S    
C57   H59   S    
C46   C47   D    
C14   C20   A    
C39   H49   S    
C11   O18   D    
C9    C32   A    
Ba1   O12   S    
O10   P5    D    
C40   H46   S    
C50   H47   S    
Ba2   O4    S    
C37   H45   S    
C18   C25   A    
Ba2   O9    S    
C54   H9    S    
C31   C36   A    
C49   C52   A    
C55   H11   S    
C6    H29   S    
C3    H18   S    
C9    C33   A    
O14   P7    D    
Ba1   P1    S    
C36   N2    S    
C56   H14   S    
C55   C56   S    
C46   H50   S    
C54   H8    S    
C2    H1    S    
C42   P5    S    
C28   C37   D    
C6    H28   S    
O12   P1    S    
C12   C23   S    
O13   P2    S    
C55   O2    S    
C4    H20   S    
C23   H53   S    
C38   C42   D    
C10   C11   A    
C8    H32   S    
O5    P4    S    
C19   C22   A    
C10   C16   A    
O17   P8    S    
C20   C21   A    
C57   C58   S    
C30   N1    S    
C58   H56   S    
O25   P6    S    
C35   H42   S    
C13   C14   A    
C56   H15   S    
Ba2   O13   S    
C25   N2    Am   
