data_mof_unit_866.cif
_audit_creation_date              2012-12-10T17:31:22-0500
_audit_creation_method            fapswitch 2.2
_symmetry_space_group_name_H-M    P1
_symmetry_Int_Tables_number       1
_space_group_crystal_system       triclinic
_cell_length_a                    18.847038
_cell_length_b                    18.43878
_cell_length_c                    12.367459
_cell_angle_alpha                 90.244057
_cell_angle_beta                  129.143251
_cell_angle_gamma                 89.801999
_cell_volume                      3333.28675812

loop_
_atom_site_label
_atom_site_type_symbol
_atom_type_description
_atom_site_fract_x
_atom_site_fract_y
_atom_site_fract_z
_atom_type_partial_charge
C1    C     C_R   0.611204 0.897053 0.650929 0.785724
C2    C     C_R   0.613560 0.101124 0.654263 0.782584
C3    C     C_R   0.111204 0.397053 0.650930 0.785711
C4    C     C_R   0.113560 0.601124 0.654264 0.782578
C5    C     C_R   0.238660 0.779462 0.031424 0.033941
C6    C     C_R   0.241490 0.225199 0.036874 0.030138
C7    C     C_R   0.738674 0.279445 0.031447 0.033937
C8    C     C_R   0.741521 0.725223 0.036915 0.030149
C9    C     C_R   0.653183 0.280863 0.004183 0.107224
C10   C     C_R   0.667260 0.741377 0.035730 0.110867
C11   C     C_R   0.153160 0.780899 0.004132 0.107222
C12   C     C_R   0.167223 0.241345 0.035677 0.110874
C13   C     C_R   0.576524 0.250046 0.880345 -0.224367
C14   C     C_R   0.587607 0.771386 0.915127 -0.225182
C15   C     C_R   0.076505 0.750079 0.880292 -0.224372
C16   C     C_R   0.087570 0.271347 0.915061 -0.225148
C17   C     C_R   0.584832 0.213278 0.791441 -0.205343
C18   C     C_R   0.586507 0.795843 0.808861 -0.202750
C19   C     C_R   0.084823 0.713293 0.791412 -0.205338
C20   C     C_R   0.086485 0.295824 0.808817 -0.202757
C21   C     C_R   0.313593 0.813362 0.152549 -0.310915
C22   C     C_R   0.313531 0.183484 0.146402 -0.308998
C23   C     C_R   0.813605 0.313354 0.152560 -0.310919
C24   C     C_R   0.813556 0.683501 0.146435 -0.308995
C25   C     C_R   0.217623 0.859251 0.206065 0.173060
C26   C     C_R   0.241845 0.176481 0.255135 0.158860
C27   C     C_R   0.717649 0.359203 0.206126 0.173069
C28   C     C_R   0.741847 0.676476 0.255136 0.158881
C29   C     C_R   0.681361 0.157611 0.744226 -0.107188
C30   C     C_R   0.673071 0.835614 0.732205 -0.109723
C31   C     C_R   0.181362 0.657610 0.744229 -0.107187
C32   C     C_R   0.173069 0.335611 0.732204 -0.109722
C33   C     C_R   0.685886 0.998111 0.286602 -0.295333
C34   C     C_R   0.185886 0.498111 0.286602 -0.295341
C35   C     C_R   0.342953 0.000617 0.628384 0.059632
C36   C     C_R   0.842952 0.500615 0.628384 0.059620
C37   C     C_R   0.308143 0.001028 0.699712 -0.246862
C38   C     C_R   0.808143 0.501026 0.699712 -0.246859
C39   C     C_R   0.383635 0.099767 0.342921 0.808264
C40   C     C_R   0.381317 0.903125 0.339165 0.814298
C41   C     C_R   0.883636 0.599766 0.342922 0.808287
C42   C     C_R   0.881321 0.403120 0.339171 0.814294
C43   C     C_R   0.367165 0.000697 0.844907 -0.191804
C44   C     C_R   0.867165 0.500696 0.844907 -0.191808
C45   C     C_R   0.462581 0.999979 0.921425 -0.010616
C46   C     C_R   0.962581 0.499979 0.921425 -0.010618
C47   C     C_R   0.495211 0.999746 0.843072 0.285256
C48   C     C_R   0.995211 0.499746 0.843072 0.285265
C49   C     C_R   0.526627 0.999617 0.072175 -0.044087
C50   C     C_R   0.026627 0.499617 0.072175 -0.044069
C51   C     C_R   0.621482 0.998654 0.140519 0.172525
C52   C     C_R   0.121482 0.498654 0.140519 0.172559
C53   C     C_R   0.651886 0.998517 0.063062 -0.270074
C54   C     C_R   0.151886 0.498518 0.063062 -0.270068
C55   C     C_R   0.590460 0.999375 0.918309 -0.169101
C56   C     C_R   0.090460 0.499376 0.918309 -0.169103
C57   C     C_R   0.501406 0.000241 0.159421 0.016744
C58   C     C_R   0.001406 0.500241 0.159421 0.016739
C59   C     C_R   0.656771 0.998823 0.365704 0.066202
C60   C     C_R   0.156771 0.498823 0.365704 0.066195
C61   C     C_R   0.645055 0.315228 0.098605 0.186657
C62   C     C_R   0.672315 0.724267 0.151946 0.188635
C63   C     C_R   0.145023 0.815283 0.098531 0.186630
C64   C     C_R   0.172284 0.224245 0.151905 0.188666
C65   C     C_R   0.303398 0.856171 0.234999 -0.106678
C66   C     C_R   0.311907 0.154474 0.248933 -0.115680
C67   C     C_R   0.803413 0.356153 0.235022 -0.106696
C68   C     C_R   0.811919 0.654480 0.248947 -0.115674
C69   C     C_R   0.762655 0.159501 0.762423 -0.185899
C70   C     C_R   0.745021 0.821489 0.729378 -0.194054
C71   C     C_R   0.262662 0.659492 0.762444 -0.185891
C72   C     C_R   0.245026 0.321489 0.729392 -0.194055
C73   C     C_R   0.334277 0.704024 0.863417 -0.155107
C74   C     C_R   0.312427 0.271589 0.820566 -0.154977
C75   C     C_R   0.834269 0.204034 0.863392 -0.155103
C76   C     C_R   0.812434 0.771600 0.820566 -0.154975
C77   C     C_R   0.327651 0.744417 0.952063 -0.187056
C78   C     C_R   0.312719 0.238784 0.921982 -0.174312
C79   C     C_R   0.827650 0.244420 0.952052 -0.187048
C80   C     C_R   0.812740 0.738807 0.922006 -0.174308
C81   C     C_R   0.746855 0.242988 0.937907 0.109139
C82   C     C_R   0.741362 0.752162 0.928694 0.104517
C83   C     C_R   0.246849 0.742994 0.937900 0.109144
C84   C     C_R   0.241339 0.252141 0.928664 0.104522
C85   C     C_R   0.670569 0.204057 0.824211 0.083867
C86   C     C_R   0.666480 0.795172 0.822656 0.082210
C87   C     C_R   0.170564 0.704063 0.824201 0.083869
C88   C     C_R   0.166465 0.295160 0.822632 0.082214
Cu1   Cu    Cu3+1 0.526340 0.000000 0.421010 0.929865
Cu2   Cu    Cu3+1 0.026340 0.500000 0.421010 0.929863
Cu3   Cu    Cu3+1 0.473640 0.000000 0.578990 0.911629
Cu4   Cu    Cu3+1 0.973640 0.500000 0.578990 0.911632
H1    H     H_    0.724534 0.998025 0.115177 0.152939
H2    H     H_    0.224534 0.498026 0.115177 0.152934
H3    H     H_    0.758609 0.997245 0.339507 0.136846
H4    H     H_    0.258609 0.497245 0.339507 0.136843
H5    H     H_    0.430720 0.000900 0.115994 0.124580
H6    H     H_    0.930720 0.500900 0.115994 0.124579
H7    H     H_    0.296431 0.000841 0.516610 0.126183
H8    H     H_    0.796431 0.500838 0.516610 0.126193
H9    H     H_    0.336367 0.000995 0.894491 0.137812
H10   H     H_    0.836367 0.500993 0.894491 0.137813
H11   H     H_    0.234867 0.001585 0.641930 0.147145
H12   H     H_    0.734867 0.501582 0.641930 0.147148
H13   H     H_    0.621091 0.999877 0.869554 0.206762
H14   H     H_    0.121090 0.499878 0.869554 0.206759
H15   H     H_    0.508688 0.255017 0.849078 0.149195
H16   H     H_    0.524475 0.774822 0.899720 0.151487
H17   H     H_    0.008666 0.755061 0.849006 0.149190
H18   H     H_    0.024428 0.274767 0.899622 0.151438
H19   H     H_    0.381246 0.809245 0.183635 0.164135
H20   H     H_    0.371297 0.170578 0.151843 0.171456
H21   H     H_    0.881254 0.309254 0.183626 0.164143
H22   H     H_    0.871320 0.670587 0.151869 0.171454
H23   H     H_    0.771865 0.124982 0.701009 0.148080
H24   H     H_    0.750418 0.850147 0.658565 0.151600
H25   H     H_    0.271877 0.624968 0.701041 0.148074
H26   H     H_    0.250434 0.350156 0.658598 0.151595
H27   H     H_    0.386233 0.777265 0.028283 0.132737
H28   H     H_    0.369499 0.203117 0.992100 0.128568
H29   H     H_    0.886234 0.277268 0.028269 0.132739
H30   H     H_    0.869535 0.703155 0.992139 0.128565
H31   H     H_    0.396585 0.705489 0.876109 0.139828
H32   H     H_    0.366926 0.260384 0.816191 0.135236
H33   H     H_    0.896573 0.205504 0.876071 0.139844
H34   H     H_    0.866930 0.760396 0.816184 0.135231
H35   H     H_    0.522420 0.193397 0.694941 0.166777
H36   H     H_    0.521767 0.814981 0.715546 0.176358
H37   H     H_    0.022414 0.693407 0.694911 0.166778
H38   H     H_    0.021751 0.314969 0.715502 0.176349
H39   H     H_    0.706517 0.998369 0.478327 0.116422
H40   H     H_    0.206517 0.498369 0.478326 0.116423
N1    N     N_R   0.566260 0.000000 0.302220 -0.175602
N2    N     N_R   0.066260 0.500000 0.302220 -0.175603
N3    N     N_R   0.434410 0.000000 0.697680 -0.202864
N4    N     N_R   0.934410 0.500000 0.697680 -0.202862
O1    O     O_R   0.608610 0.924520 0.551740 -0.580077
O2    O     O_R   0.608610 0.075480 0.551740 -0.575576
O3    O     O_R   0.108610 0.424520 0.551740 -0.580076
O4    O     O_R   0.108610 0.575480 0.551740 -0.575575
O5    O     O_R   0.564110 0.924510 0.685150 -0.599715
O6    O     O_R   0.564110 0.075490 0.685150 -0.597003
O7    O     O_R   0.064110 0.424510 0.685150 -0.599710
O8    O     O_R   0.064110 0.575490 0.685150 -0.596998
O9    O     O_R   0.435880 0.075470 0.314850 -0.584616
O10   O     O_R   0.435880 0.924530 0.314850 -0.583232
O11   O     O_R   0.935880 0.575470 0.314850 -0.584623
O12   O     O_R   0.935880 0.424530 0.314850 -0.583234
O13   O     O_R   0.391380 0.075460 0.448260 -0.587841
O14   O     O_R   0.391380 0.924540 0.448260 -0.582075
O15   O     O_R   0.891380 0.575460 0.448260 -0.587827
O16   O     O_R   0.891380 0.424540 0.448260 -0.582086
C89   C     C_3   0.201211 0.913420 0.280280 -0.864905
H41   H     H_    0.229423 0.966895 0.284104 0.221097
H42   H     H_    0.127716 0.924076 0.224866 0.232688
H43   H     H_    0.233331 0.893507 0.386726 0.239394
C90   C     C_3   0.239129 0.147433 0.366951 -0.832690
H44   H     H_    0.302314 0.162946 0.471927 0.241118
H45   H     H_    0.180704 0.166419 0.360018 0.229213
H46   H     H_    0.231296 0.087924 0.355639 0.221379
C91   C     C_3   0.701241 0.413352 0.280374 -0.864934
H47   H     H_    0.729406 0.466837 0.284142 0.221082
H48   H     H_    0.627753 0.423975 0.225024 0.232697
H49   H     H_    0.733410 0.393447 0.386836 0.239426
C92   C     C_3   0.739070 0.647372 0.366859 -0.832706
H50   H     H_    0.802202 0.662909 0.471874 0.241126
H51   H     H_    0.680563 0.666283 0.359783 0.229211
H52   H     H_    0.731305 0.587862 0.355541 0.221364
C93   C     C_3   0.560383 0.303718 0.086083 -0.902321
H53   H     H_    0.536591 0.246682 0.056905 0.228315
H54   H     H_    0.574498 0.311811 0.186998 0.248046
H55   H     H_    0.505116 0.341068 0.006818 0.233675
C94   C     C_3   0.607003 0.759417 0.169547 -0.903814
H56   H     H_    0.572537 0.808345 0.104229 0.233207
H57   H     H_    0.554543 0.719673 0.145182 0.230178
H58   H     H_    0.645543 0.779843 0.277870 0.244102
C95   C     C_3   0.060336 0.803802 0.085975 -0.902224
H59   H     H_    0.036524 0.746769 0.056787 0.228292
H60   H     H_    0.074445 0.811903 0.186896 0.248029
H61   H     H_    0.005082 0.841166 0.006695 0.233659
C96   C     C_3   0.106956 0.259378 0.169492 -0.903792
H62   H     H_    0.072356 0.308233 0.104011 0.233145
H63   H     H_    0.054602 0.219587 0.145360 0.230218
H64   H     H_    0.145510 0.279910 0.277748 0.244081

loop_
_geom_bond_atom_site_label_1
_geom_bond_atom_site_label_2
_ccdc_geom_bond_type
C19   H37   S    
C74   H32   S    
C24   H22   S    
C92   H50   S    
C76   H34   S    
C93   H53   S    
C14   C18   A    
C53   C55   A    
C83   C87   A    
C58   H6    S    
C13   H15   S    
C42   O12   A    
C60   H40   S    
Cu3   N3    S    
Cu2   O3    S    
C16   H18   S    
C32   C72   A    
C80   H30   S    
C96   H62   S    
C58   N2    A    
Cu1   O9    S    
C79   H29   S    
C40   O14   A    
C59   H39   S    
C18   C86   A    
C55   H13   S    
C2    C29   S    
C9    C61   A    
C28   C68   A    
C34   H4    S    
C5    C11   A    
C19   C87   A    
C6    C12   A    
Cu2   N2    S    
C96   H64   S    
C4    O4    A    
C77   C83   A    
C6    C22   A    
C33   H3    S    
C49   C57   A    
C26   C90   S    
C48   C56   A    
C25   C63   A    
C23   C67   A    
Cu4   O7    S    
C9    C13   A    
C22   C66   A    
C38   H12   S    
C27   C61   A    
C18   H36   S    
C11   C15   A    
C90   H44   S    
C12   C16   A    
C52   C54   A    
C95   H60   S    
Cu4   O16   S    
C50   C52   A    
C30   C86   A    
C42   O16   A    
C30   C70   A    
C29   C85   A    
Cu3   O6    S    
C21   C65   A    
C31   C71   A    
C33   C59   A    
C34   C60   A    
C93   H54   S    
C57   N1    A    
C10   C62   A    
C35   H7    S    
C36   N4    A    
C91   H48   S    
C44   C46   A    
C46   C50   A    
C91   H47   S    
C41   C68   S    
C54   C56   A    
C45   C47   A    
Cu1   O10   S    
C46   C48   A    
C14   H16   S    
Cu1   N1    S    
C71   H25   S    
C25   C89   S    
C2    O2    A    
C93   H55   S    
C84   C88   A    
C6    C84   A    
C72   C74   A    
C10   C14   A    
C96   H63   S    
C35   N3    A    
C71   C73   A    
C44   H10   S    
C17   H35   S    
C49   C51   A    
C94   H56   S    
C62   C94   S    
C53   H1    S    
C59   N1    A    
C75   H33   S    
C5    C21   A    
C26   C66   A    
C37   C43   A    
C15   C19   A    
C43   H9    S    
C38   C44   A    
Cu2   O11   S    
C23   H21   S    
C21   H19   S    
Cu2   Cu4   S    
C41   O11   A    
C45   C49   A    
C16   C20   A    
C95   H61   S    
C57   H5    S    
C39   O9    A    
Cu4   O15   S    
C50   C58   A    
C3    O7    A    
C36   H8    S    
Cu4   N4    S    
C89   H43   S    
C43   C45   A    
C56   H14   S    
C89   H42   S    
C94   H57   S    
C28   C92   S    
C64   C96   S    
C80   C82   A    
C92   H52   S    
C7    C81   A    
C95   H59   S    
C90   H46   S    
Cu1   O1    S    
C40   C65   S    
C70   C76   A    
C42   C67   S    
C2    O6    A    
C39   C66   S    
C17   C85   A    
C31   C87   A    
C3    O3    A    
Cu2   O12   S    
C72   H26   S    
C60   N2    A    
C91   H49   S    
C1    O1    A    
C35   C37   A    
C47   C55   A    
C94   H58   S    
C7    C9    A    
C12   C64   A    
C78   H28   S    
C69   H23   S    
C47   N3    A    
C34   C52   A    
C48   N4    A    
C8    C10   A    
C76   C80   A    
C20   H38   S    
C77   H27   S    
C4    O8    A    
Cu3   O14   S    
C90   H45   S    
C5    C83   A    
C41   O15   A    
C26   C64   A    
C33   C51   A    
C39   O13   A    
C79   C81   A    
C63   C95   S    
C40   O10   A    
C70   H24   S    
C36   C38   A    
C73   H31   S    
C82   C86   A    
C27   C91   S    
C15   H17   S    
C1    O5    A    
C7    C23   A    
C20   C88   A    
Cu1   Cu3   S    
C1    C30   S    
C8    C24   A    
C69   C75   A    
C37   H11   S    
C3    C32   S    
Cu4   O8    S    
C54   H2    S    
C4    C31   S    
C27   C67   A    
C24   C68   A    
C13   C17   A    
C78   C84   A    
C8    C82   A    
C61   C93   S    
C92   H51   S    
Cu1   O2    S    
C74   C78   A    
Cu3   O13   S    
C25   C65   A    
C73   C77   A    
C29   C69   A    
Cu2   O4    S    
C51   C53   A    
C89   H41   S    
C11   C63   A    
C75   C79   A    
C81   C85   A    
C22   H20   S    
C28   C62   A    
Cu3   O5    S    
C32   C88   A    
