data_mof_unit_93.cif
_audit_creation_date              2012-10-26T18:43:51-0400
_audit_creation_method            fapswitch 2.2
_symmetry_space_group_name_H-M    P1
_symmetry_Int_Tables_number       1
_space_group_crystal_system       triclinic
_cell_length_a                    9.575102
_cell_length_b                    10.841829
_cell_length_c                    17.193859
_cell_angle_alpha                 91.196599
_cell_angle_beta                  85.850897
_cell_angle_gamma                 90.710288
_cell_volume                      1779.75002024

loop_
_atom_site_label
_atom_site_type_symbol
_atom_type_description
_atom_site_fract_x
_atom_site_fract_y
_atom_site_fract_z
_atom_type_partial_charge
C1    C     C_R   0.500390 0.737739 0.500700 0.532712
C2    C     C_R   0.530981 0.515770 0.266545 -0.000541
C3    C     C_R   0.377004 0.935453 0.496930 0.059783
C4    C     C_R   0.481417 0.500817 0.649996 0.552517
C5    C     C_R   0.499039 0.871308 0.507949 -0.074904
C6    C     C_R   0.614495 0.937097 0.534280 -0.176566
C7    C     C_R   0.614902 0.067608 0.537578 0.254375
C8    C     C_R   0.497008 0.129852 0.513286 0.015040
C9    C     C_R   0.376430 0.062129 0.499557 -0.067739
C10   C     C_3   0.280612 0.069881 0.435441 -0.234398
C11   C     C_3   0.282192 0.929185 0.431409 0.171357
C12   C     C_R   0.372537 0.586445 0.775054 0.110478
C13   C     C_R   0.929927 0.407125 0.463453 0.170500
C14   C     C_R   0.921425 0.580068 0.547395 0.231592
C15   C     C_R   0.071276 0.579534 0.546248 0.023779
C16   C     C_R   0.499081 0.262640 0.503330 0.567971
C17   C     C_R   0.076008 0.409660 0.461634 0.124374
C18   C     C_3   0.088128 0.364834 0.378128 0.009901
C19   C     C_3   0.927253 0.356650 0.382000 0.149804
C20   C     C_R   0.518579 0.502433 0.350351 0.539247
C21   C     C_R   0.470637 0.506600 0.735281 0.044848
C22   C     C_R   0.561460 0.435418 0.777196 0.095012
C23   C     C_R   0.486886 0.634384 0.152726 0.165216
C24   C     C_R   0.556001 0.449838 0.858631 -0.091877
C25   C     C_R   0.461355 0.531629 0.897676 -0.019808
C26   C     C_R   0.367181 0.596171 0.856213 -0.120884
C27   C     C_3   0.758977 0.286196 0.776541 -0.301378
C28   C     C_3   0.856121 0.090253 0.546594 -0.076835
C29   C     C_3   0.061427 0.879537 0.394967 -0.167101
C30   C     C_3   0.906348 0.772000 0.626649 -0.359281
C31   C     C_3   0.108321 0.581362 0.326904 -0.283724
C32   C     C_3   0.891007 0.180588 0.307634 -0.159280
C33   C     C_3   0.288408 0.769655 0.136687 -0.327648
C34   C     C_R   0.469528 0.616511 0.233351 -0.085033
C35   C     C_3   0.344122 0.774642 0.705893 -0.291583
C36   C     C_R   0.613490 0.433829 0.220406 -0.154591
C37   C     C_R   0.630993 0.449419 0.140455 -0.147964
C38   C     C_R   0.566008 0.547225 0.105983 0.039542
C39   C     C_2   0.457410 0.548864 0.982538 -0.144341
C40   C     C_2   0.574288 0.547954 0.020729 -0.148917
Cu1   Cu    Cu3+1 0.359330 0.500020 0.500000 0.964146
Cu2   Cu    Cu3+1 0.640670 0.499980 0.500000 1.000800
H1    H     H_    0.691747 0.382658 0.104984 0.103640
H2    H     H_    0.661652 0.356612 0.246314 0.113343
H3    H     H_    0.675665 0.532823 0.989634 0.113569
H4    H     H_    0.293146 0.658312 0.886773 0.103011
H5    H     H_    0.356375 0.562907 0.014287 0.135614
H6    H     H_    0.622276 0.395331 0.892464 0.111611
H7    H     H_    0.608554 0.295357 0.694233 0.281523
H8    H     H_    0.827955 0.233344 0.733481 0.164256
H9    H     H_    0.708685 0.220541 0.818997 0.128691
H10   H     H_    0.825163 0.354381 0.806547 0.142470
H11   H     H_    0.932575 0.167964 0.545784 0.153518
H12   H     H_    0.703902 0.887155 0.550732 0.145767
H13   H     H_    0.863668 0.046531 0.487363 0.147817
H14   H     H_    0.886752 0.025482 0.591021 0.096900
H15   H     H_    0.109698 0.839910 0.339366 0.089917
H16   H     H_    0.029155 0.975675 0.385525 0.125221
H17   H     H_    0.965593 0.824792 0.411548 0.142015
H18   H     H_    0.803461 0.608614 0.650008 0.275500
H19   H     H_    0.987819 0.754870 0.667846 0.121468
H20   H     H_    0.825261 0.830293 0.658075 0.137907
H21   H     H_    0.952860 0.821823 0.575145 0.183161
H22   H     H_    0.145353 0.417077 0.264239 0.236669
H23   H     H_    0.178103 0.109246 0.457130 0.148865
H24   H     H_    0.150939 0.629281 0.273899 0.112965
H25   H     H_    0.155322 0.625880 0.377426 0.215356
H26   H     H_    0.993347 0.593857 0.332001 0.110378
H27   H     H_    0.001544 0.154284 0.292634 0.098526
H28   H     H_    0.855467 0.241944 0.262229 0.100457
H29   H     H_    0.826340 0.095036 0.306725 0.136887
H30   H     H_    0.473598 0.764165 0.064444 0.257724
H31   H     H_    0.259510 0.850546 0.102910 0.133742
H32   H     H_    0.265503 0.792962 0.199370 0.134918
H33   H     H_    0.223705 0.689065 0.119710 0.134825
H34   H     H_    0.331221 0.113187 0.382364 0.088763
H35   H     H_    0.184651 0.673173 0.762390 0.235447
H36   H     H_    0.364472 0.837079 0.756001 0.127894
H37   H     H_    0.271446 0.820659 0.668498 0.147366
H38   H     H_    0.444077 0.757530 0.670685 0.162040
H39   H     H_    0.334423 0.887824 0.377072 0.092397
H40   H     H_    0.127069 0.642513 0.582640 0.160258
H41   H     H_    0.413374 0.683455 0.270912 0.105965
H42   H     H_    0.141076 0.274478 0.371740 0.122914
H43   H     H_    0.873290 0.417537 0.342819 0.135166
N1    N     N_R   0.852130 0.499070 0.499500 -0.244636
N2    N     N_R   0.148040 0.499110 0.499500 -0.264673
N3    N     N_2   0.653512 0.348655 0.736313 -0.495493
N4    N     N_2   0.842838 0.657031 0.602313 -0.472914
N5    N     N_2   0.145659 0.452107 0.320458 -0.505462
N6    N     N_2   0.435796 0.744115 0.120444 -0.525713
N7    N     N_2   0.281801 0.659973 0.733594 -0.511081
O1    O     O_R   0.381190 0.680360 0.500000 -0.486625
O2    O     O_3   0.152079 0.874826 0.455962 -0.569098
O3    O     O_3   0.875377 0.234119 0.383235 -0.576911
O4    O     O_R   0.618770 0.680320 0.499990 -0.487377
O5    O     O_R   0.367430 0.500040 0.613600 -0.483403
O6    O     O_R   0.605020 0.500000 0.613590 -0.494671
O7    O     O_R   0.381230 0.319680 0.500010 -0.520656
O8    O     O_R   0.618810 0.319640 0.500000 -0.420063
O9    O     O_R   0.394980 0.500000 0.386410 -0.470594
O10   O     O_R   0.632570 0.499960 0.386400 -0.521748
O11   O     O_3   0.721974 0.136995 0.568519 -0.553923

loop_
_geom_bond_atom_site_label_1
_geom_bond_atom_site_label_2
_ccdc_geom_bond_type
C31   H24   S    
H35   N7    S    
C23   N6    S    
C4    O6    A    
Cu1   Cu2   S    
H22   N5    S    
C28   H14   S    
C7    C8    A    
H18   N4    S    
C11   H39   S    
C31   H25   S    
Cu2   O4    S    
C39   H5    S    
C36   C37   A    
Cu2   O6    S    
C29   O2    S    
C20   O10   A    
C35   H38   S    
C18   C19   S    
Cu1   O5    S    
C10   H34   S    
C33   H33   S    
Cu1   O1    S    
C29   H17   S    
C8    C9    A    
C13   N1    A    
C18   H42   S    
Cu1   O7    S    
Cu2   N1    S    
C22   N3    S    
C15   H40   S    
C9    C10   S    
C27   H8    S    
C35   N7    S    
C2    C34   A    
C8    C16   S    
C7    O11   S    
C4    O5    A    
H7    N3    S    
C31   H26   S    
C6    H12   S    
C30   N4    S    
C30   H21   S    
Cu2   O10   S    
C28   H13   S    
C27   H9    S    
C32   H29   S    
C40   H3    S    
Cu1   N2    S    
C13   C19   S    
C2    C20   S    
C24   H6    S    
C24   C25   A    
C14   N1    A    
C39   C40   D    
H30   N6    S    
C16   O8    A    
C32   H28   S    
C20   O9    A    
C3    C5    A    
C25   C26   A    
C12   C21   A    
C12   C26   A    
C18   N5    S    
C37   H1    S    
C14   N4    S    
C37   C38   A    
C3    C9    A    
Cu2   O8    S    
C31   N5    S    
C17   C18   S    
C32   H27   S    
C11   O2    S    
C33   H31   S    
C29   H15   S    
C30   H20   S    
C1    C5    S    
C36   H2    S    
C34   H41   S    
C19   O3    S    
C27   H10   S    
C15   N2    A    
C10   H23   S    
C2    C36   A    
C23   C34   A    
C17   N2    A    
C12   N7    S    
C19   H43   S    
C28   H11   S    
C16   O7    A    
C6    C7    A    
C23   C38   A    
C35   H36   S    
C13   C17   A    
C33   N6    S    
C25   C39   S    
C38   C40   S    
C4    C21   S    
C28   O11   S    
C5    C6    A    
C1    O4    A    
C35   H37   S    
Cu1   O9    S    
C22   C24   A    
C27   N3    S    
C3    C11   S    
C10   C11   S    
C26   H4    S    
C33   H32   S    
C32   O3    S    
C29   H16   S    
C1    O1    A    
C30   H19   S    
C14   C15   A    
C21   C22   A    
