data_mof_unit_4228.cif
_audit_creation_date              2012-12-10T17:09:56-0500
_audit_creation_method            fapswitch 2.2
_symmetry_space_group_name_H-M    P1
_symmetry_Int_Tables_number       1
_space_group_crystal_system       triclinic
_cell_length_a                    10.780803
_cell_length_b                    12.979667
_cell_length_c                    11.786683
_cell_angle_alpha                 99.744346
_cell_angle_beta                  92.781868
_cell_angle_gamma                 93.352832
_cell_volume                      1619.88316745

loop_
_atom_site_label
_atom_site_type_symbol
_atom_type_description
_atom_site_fract_x
_atom_site_fract_y
_atom_site_fract_z
_atom_type_partial_charge
C1    C     C_R   0.496390 0.299446 0.478401 0.848212
C2    C     C_R   0.078905 0.597646 0.560295 0.030521
C3    C     C_R   0.129925 0.506075 0.504642 -0.041837
C4    C     C_R   0.053822 0.421946 0.444791 -0.193415
C5    C     C_R   0.925984 0.425500 0.443356 -0.224058
C6    C     C_R   0.872574 0.515514 0.496028 -0.071013
C7    C     C_R   0.492590 0.814038 0.538266 -0.232225
C8    C     C_R   0.485345 0.185611 0.466027 -0.252742
C9    C     C_R   0.359827 0.023374 0.395779 0.416446
C10   C     C_R   0.390957 0.128644 0.390057 0.320369
C11   C     C_R   0.558983 0.135097 0.538856 0.079456
C12   C     C_R   0.262806 0.499301 0.501104 0.759211
C13   C     C_R   0.527498 0.029643 0.544523 -0.035946
C14   C     C_R   0.432589 0.971144 0.468263 -0.053341
C15   C     C_R   0.416224 0.861750 0.464513 0.039943
C16   C     C_R   0.566747 0.876224 0.628848 0.477396
C17   C     C_R   0.588448 0.982334 0.627679 -0.271973
C18   C     C_R   0.371792 0.407032 0.026906 -0.297029
C19   C     C_R   0.387216 0.413860 0.146975 -0.055919
C20   C     C_R   0.551407 0.545039 0.156242 0.697715
C21   C     C_R   0.546448 0.532824 0.033125 -0.129573
C22   C     C_R   0.452387 0.466744 0.968257 0.035411
C23   C     C_R   0.496019 0.700229 0.522078 0.887692
C24   C     C_R   0.438509 0.464160 0.847074 0.245644
C25   C     C_R   0.622827 0.576140 0.852496 0.669351
C26   C     C_R   0.631965 0.586309 0.974400 -0.439218
C27   C     C_R   0.737704 0.508319 0.499574 0.881137
C28   C     C_R   0.155022 0.682311 0.623595 -0.284076
C29   C     C_R   0.104637 0.774282 0.671896 -0.241060
C30   C     C_R   0.979243 0.788146 0.651371 0.132336
C31   C     C_R   0.901913 0.706015 0.583529 0.491299
C32   C     C_R   0.948910 0.606151 0.548019 -0.062274
Cu1   Cu    Cu3+1 0.509250 0.507730 0.615930 0.993852
Cu2   Cu    Cu3+1 0.490750 0.492270 0.384070 0.989409
H1    H     H_    0.093724 0.352083 0.401759 0.157885
H2    H     H_    0.654153 0.026965 0.692626 0.179170
H3    H     H_    0.297509 0.354372 0.980806 0.180926
H4    H     H_    0.707967 0.634476 0.023015 0.187471
H5    H     H_    0.324682 0.367892 0.190647 0.175578
H6    H     H_    0.254409 0.679444 0.636393 0.171562
H7    H     H_    0.165070 0.837469 0.721149 0.170041
H8    H     H_    0.868099 0.357137 0.401703 0.134868
N1    N     N_R   0.523180 0.519350 0.790130 -0.234614
N2    N     N_R   0.476820 0.480650 0.209890 -0.219034
O1    O     O_R   0.506570 0.354460 0.582000 -0.598495
O2    O     O_R   0.490940 0.341410 0.386200 -0.562575
O3    O     O_R   0.327470 0.506530 0.597920 -0.622756
O4    O     O_R   0.311840 0.493480 0.402120 -0.581526
O5    O     O_R   0.509060 0.658590 0.613800 -0.514218
O6    O     O_R   0.493430 0.645540 0.418000 -0.568624
O7    O     O_R   0.688160 0.506520 0.597880 -0.533272
O8    O     O_R   0.672530 0.493470 0.402080 -0.558588
O9    O     O_3   0.320059 0.178429 0.317397 -0.569019
C33   C     C_3   0.358748 0.150595 0.204123 -0.264497
H9    H     H_    0.353978 0.064313 0.174572 0.180351
H10   H     H_    0.454678 0.184497 0.197059 0.158588
H11   H     H_    0.295172 0.182805 0.144265 0.163493
N3    N     N_3   0.668372 0.188094 0.604304 -0.562438
H12   H     H_    0.693580 0.258899 0.578208 0.216881
H13   H     H_    0.743727 0.143052 0.582196 0.203271
N4    N     N_3   0.330434 0.406562 0.787584 -0.608786
H14   H     H_    0.265119 0.458828 0.770013 0.239793
H15   H     H_    0.352931 0.357281 0.713606 0.266020
O10   O     O_3   0.710464 0.627033 0.794886 -0.513628
C34   C     C_3   0.832963 0.619934 0.840950 -0.301653
H16   H     H_    0.846546 0.543847 0.870325 0.143957
H17   H     H_    0.858615 0.687017 0.911736 0.150181
H18   H     H_    0.899197 0.624739 0.773531 0.186326
O11   O     O_3   0.629763 0.622394 0.223592 -0.566743
C35   C     C_3   0.596775 0.723345 0.206245 -0.387428
H19   H     H_    0.571354 0.768940 0.288376 0.195806
H20   H     H_    0.516648 0.724361 0.142932 0.148187
H21   H     H_    0.678849 0.766243 0.178611 0.162653
N5    N     N_3   0.934356 0.888218 0.695763 -0.600606
H22   H     H_    0.843769 0.894466 0.664022 0.283449
H23   H     H_    0.931546 0.893631 0.785099 0.226081
O12   O     O_3   0.785702 0.726857 0.543097 -0.560393
C36   C     C_3   0.801019 0.773448 0.444190 -0.328869
H24   H     H_    0.812974 0.712300 0.368134 0.217514
H25   H     H_    0.880477 0.833883 0.453856 0.137484
H26   H     H_    0.717370 0.815280 0.428695 0.180612
N6    N     N_3   0.321058 0.800283 0.388242 -0.518885
H27   H     H_    0.267641 0.754230 0.434803 0.213178
H28   H     H_    0.361119 0.751986 0.322087 0.241044
O13   O     O_3   0.629673 0.831611 0.711391 -0.519691
C37   C     C_3   0.572069 0.856225 0.816642 -0.267054
H29   H     H_    0.472504 0.826260 0.807896 0.145821
H30   H     H_    0.580430 0.941953 0.849968 0.130063
H31   H     H_    0.619912 0.817581 0.881805 0.193785
O14   O     O_3   0.258364 0.972587 0.328470 -0.546182
C38   C     C_3   0.150721 0.989458 0.390814 -0.240901
H32   H     H_    0.131533 0.073838 0.406982 0.167223
H33   H     H_    0.158108 0.959326 0.473777 0.161312
H34   H     H_    0.069855 0.945885 0.338648 0.170202

loop_
_geom_bond_atom_site_label_1
_geom_bond_atom_site_label_2
_ccdc_geom_bond_type
C6    C32   A    
C21   C26   A    
C24   N4    S    
C1    C8    S    
Cu1   O1    S    
C12   O4    A    
C25   N1    A    
O12   C36   S    
C27   O8    A    
N5    H23   S    
C28   C29   A    
C18   H3    S    
O13   C37   S    
C30   C31   A    
C30   N5    S    
C37   H30   S    
C1    O2    A    
C23   O5    A    
C28   H6    S    
Cu1   O5    S    
C11   C13   A    
C2    C32   A    
C18   C19   A    
N4    H15   S    
C10   O9    S    
C3    C12   S    
C31   C32   A    
C16   C17   A    
C34   H17   S    
C35   H19   S    
Cu2   O2    S    
C17   H2    S    
C11   N3    S    
C9    C10   A    
C7    C15   A    
C4    H1    S    
C13   C14   A    
N4    H14   S    
C12   O3    A    
C20   N2    A    
C27   O7    A    
C31   O12   S    
C15   N6    S    
C33   H10   S    
Cu2   O6    S    
N5    H22   S    
Cu1   N1    S    
Cu2   N2    S    
C38   H32   S    
C37   H29   S    
C26   H4    S    
C23   O6    A    
N3    H12   S    
O9    C33   S    
C25   O10   S    
C9    C14   A    
C29   C30   A    
C38   H33   S    
C6    C27   S    
C34   H18   S    
C35   H21   S    
Cu1   Cu2   S    
C19   H5    S    
C7    C16   A    
C34   H16   S    
N6    H28   S    
C16   O13   S    
Cu1   O3    S    
C22   C24   A    
C20   O11   S    
Cu2   O4    S    
C3    C4    A    
C19   N2    A    
C5    H8    S    
C33   H9    S    
C29   H7    S    
C18   C22   A    
C4    C5    A    
C37   H31   S    
C9    O14   S    
C35   H20   S    
Cu1   O7    S    
Cu2   O8    S    
C13   C17   A    
O10   C34   S    
C2    C3    A    
C25   C26   A    
C38   H34   S    
C36   H24   S    
C36   H26   S    
C1    O1    A    
O14   C38   S    
C5    C6    A    
C8    C11   A    
C7    C23   S    
C36   H25   S    
O11   C35   S    
C20   C21   A    
C8    C10   A    
N6    H27   S    
C24   N1    A    
C14   C15   A    
C2    C28   A    
C21   C22   A    
N3    H13   S    
C33   H11   S    
