data_mof_unit_1310.cif
_audit_creation_date              2012-10-26T18:27:52-0400
_audit_creation_method            fapswitch 2.2
_symmetry_space_group_name_H-M    P1
_symmetry_Int_Tables_number       1
_space_group_crystal_system       triclinic
_cell_length_a                    15.891178
_cell_length_b                    10.878063
_cell_length_c                    9.889254
_cell_angle_alpha                 111.465185
_cell_angle_beta                  98.775182
_cell_angle_gamma                 90.239552
_cell_volume                      1568.96427522

loop_
_atom_site_label
_atom_site_type_symbol
_atom_type_description
_atom_site_fract_x
_atom_site_fract_y
_atom_site_fract_z
_atom_type_partial_charge
C1    C     C_R   0.490404 0.252951 0.440371 0.544633
C2    C     C_2   0.445457 0.071991 0.505710 -0.142875
C3    C     C_2   0.489163 0.892383 0.590863 -0.019665
C4    C     C_R   0.340502 0.501255 0.501040 0.537708
C5    C     C_2   0.440341 0.930818 0.487529 -0.010526
C6    C     C_2   0.494250 0.528101 0.086877 -0.018180
C7    C     C_2   0.482310 0.508975 0.922064 -0.010763
C8    C     C_R   0.500745 0.748258 0.559826 0.552770
C9    C     C_R   0.659660 0.499085 0.499160 0.545377
C10   C     C_3   0.059668 0.423328 0.601273 -0.207429
C11   C     C_3   0.036867 0.404399 0.328280 0.079806
C12   C     C_3   0.964715 0.437578 0.621375 -0.067716
C13   C     C_3   0.937362 0.383794 0.335680 -0.036509
C14   C     C_1   0.748921 0.491584 0.496391 -0.067181
C15   C     C_3   0.082938 0.489710 0.494119 0.086324
C16   C     C_3   0.928269 0.318018 0.650611 -0.293987
C17   C     C_3   0.851694 0.347722 0.732271 -0.445717
C18   C     C_3   0.380681 0.834897 0.353583 -0.237138
C19   C     C_3   0.302237 0.898183 0.303006 -0.462917
C20   C     C_3   0.530222 0.002029 0.736358 -0.274789
C21   C     C_3   0.584347 0.960781 0.852123 -0.301537
C22   C     C_3   0.618958 0.081195 0.989541 -0.466931
C23   C     C_3   0.916275 0.475499 0.493001 0.075723
C24   C     C_3   0.606224 0.646395 0.968285 -0.119122
C25   C     C_3   0.682144 0.675569 0.905772 -0.367310
C26   C     C_3   0.399748 0.343173 0.030177 -0.113699
C27   C     C_3   0.368453 0.235123 0.077911 -0.360707
C28   C     C_3   0.042015 0.486495 0.225090 -0.288802
C29   C     C_3   0.014058 0.410239 0.058741 -0.470263
C30   C     C_3   0.085250 0.273797 0.251826 -0.237197
C31   C     C_3   0.119985 0.183043 0.332296 -0.461949
C32   C     C_3   0.903723 0.235491 0.273741 -0.280825
C33   C     C_3   0.808236 0.209056 0.264996 -0.452924
C34   C     C_3   0.950090 0.620872 0.525889 -0.237497
C35   C     C_3   0.094853 0.739918 0.694998 -0.252909
C36   C     C_3   0.071154 0.743010 0.841848 -0.291545
C37   C     C_3   0.115245 0.863887 0.970531 -0.467926
C38   C     C_3   0.049240 0.633149 0.545600 -0.096291
C39   C     C_1   0.824149 0.482700 0.494750 -0.064878
C40   C     C_1   0.175764 0.498133 0.501257 -0.083731
C41   C     C_1   0.251271 0.501097 0.502585 -0.064680
C42   C     C_2   0.475452 0.111422 0.407688 -0.146983
Cu1   Cu    Cu3+1 0.514650 0.521810 0.644910 0.904808
Cu2   Cu    Cu3+1 0.485350 0.478190 0.355090 0.898751
H1    H     H_    0.102275 0.463957 0.709072 0.093246
H2    H     H_    0.065335 0.678591 0.468391 0.100897
H3    H     H_    0.926732 0.691408 0.623621 0.115252
H4    H     H_    0.860808 0.446635 0.822651 0.136374
H5    H     H_    0.791859 0.341509 0.655767 0.165243
H6    H     H_    0.843971 0.272216 0.781313 0.128130
H7    H     H_    0.911425 0.229278 0.549914 0.150275
H8    H     H_    0.979219 0.289978 0.722383 0.129785
H9    H     H_    0.268391 0.948937 0.396808 0.148126
H10   H     H_    0.320571 0.970101 0.255156 0.150954
H11   H     H_    0.257698 0.820017 0.216540 0.128792
H12   H     H_    0.963997 0.523074 0.725619 0.133561
H13   H     H_    0.416532 0.792610 0.260603 0.150023
H14   H     H_    0.355076 0.753270 0.380979 0.170986
H15   H     H_    0.665718 0.142448 0.964186 0.152511
H16   H     H_    0.566465 0.142729 0.033043 0.170716
H17   H     H_    0.650822 0.046979 0.076007 0.135707
H18   H     H_    0.545075 0.896792 0.887016 0.191541
H19   H     H_    0.639131 0.909181 0.804969 0.157180
H20   H     H_    0.571672 0.070280 0.710345 0.155870
H21   H     H_    0.477982 0.058754 0.788415 0.132521
H22   H     H_    0.717528 0.585288 0.862779 0.158174
H23   H     H_    0.922041 0.652018 0.434248 0.086356
H24   H     H_    0.662847 0.718674 0.822118 0.184211
H25   H     H_    0.727019 0.750245 0.995939 0.073892
H26   H     H_    0.579698 0.741865 0.028447 0.099997
H27   H     H_    0.636350 0.603618 0.048832 0.107496
H28   H     H_    0.419886 0.168742 0.087305 0.150800
H29   H     H_    0.339739 0.274891 0.178883 0.189802
H30   H     H_    0.317150 0.172023 0.989953 0.069693
H31   H     H_    0.342649 0.391993 0.998888 0.105317
H32   H     H_    0.427390 0.287948 0.929761 0.093465
H33   H     H_    0.063295 0.343356 0.010874 0.132913
H34   H     H_    0.431345 0.145118 0.607570 0.126444
H35   H     H_    0.952493 0.352097 0.035514 0.144100
H36   H     H_    0.005973 0.481619 0.001847 0.134890
H37   H     H_    0.000509 0.570694 0.251864 0.122182
H38   H     H_    0.108280 0.528984 0.241774 0.141872
H39   H     H_    0.170717 0.235057 0.427194 0.148493
H40   H     H_    0.069767 0.135618 0.366018 0.125818
H41   H     H_    0.150929 0.101261 0.255523 0.127159
H42   H     H_    0.046803 0.209030 0.146181 0.129758
H43   H     H_    0.143037 0.305277 0.218618 0.145895
H44   H     H_    0.791811 0.225540 0.374870 0.160335
H45   H     H_    0.487998 0.039718 0.303794 0.094793
H46   H     H_    0.770625 0.271122 0.213609 0.158001
H47   H     H_    0.790589 0.103347 0.196119 0.123878
H48   H     H_    0.914221 0.190667 0.157873 0.131540
H49   H     H_    0.939017 0.179297 0.333552 0.146824
H50   H     H_    0.185625 0.862823 0.976897 0.149258
H51   H     H_    0.093673 0.956572 0.957602 0.143213
H52   H     H_    0.099000 0.862582 0.075341 0.134439
H53   H     H_    0.001632 0.748864 0.841847 0.145569
H54   H     H_    0.091944 0.655195 0.865208 0.152649
H55   H     H_    0.165054 0.734418 0.701551 0.149606
H56   H     H_    0.427302 0.449993 0.847692 0.128594
H57   H     H_    0.081145 0.838368 0.689177 0.127648
H58   H     H_    0.532947 0.612738 0.167505 0.128613
H59   H     H_    0.071288 0.318033 0.562675 0.119658
H60   H     H_    0.899048 0.422680 0.257831 0.123103
N1    N     N_2   0.463320 0.445430 0.137380 -0.214399
N2    N     N_2   0.536720 0.554500 0.862620 -0.213958
O1    O     O_R   0.507820 0.332330 0.577400 -0.487073
O2    O     O_R   0.483070 0.295500 0.332660 -0.498756
O3    O     O_R   0.391820 0.518430 0.622420 -0.500640
O4    O     O_R   0.367070 0.481600 0.377680 -0.505796
O5    O     O_R   0.516930 0.704500 0.667340 -0.498482
O6    O     O_R   0.492180 0.667670 0.422600 -0.513462
O7    O     O_R   0.632930 0.518400 0.622320 -0.500653
O8    O     O_R   0.608180 0.481570 0.377580 -0.483720

loop_
_geom_bond_atom_site_label_1
_geom_bond_atom_site_label_2
_ccdc_geom_bond_type
C4    O3    A    
C31   H41   S    
C13   C32   S    
C35   C36   S    
C17   H4    S    
Cu1   Cu2   S    
C24   H26   S    
Cu2   N1    S    
C12   C23   S    
C28   C29   S    
C26   C27   S    
C34   H23   S    
C9    O8    A    
C10   H59   S    
C33   H44   S    
C10   C15   S    
C33   H47   S    
C22   H16   S    
C30   C31   S    
C4    C41   S    
C31   H39   S    
C13   C23   S    
C18   C19   S    
C14   C39   T    
C11   C15   S    
C18   H14   S    
C12   C16   S    
C11   C30   S    
C16   C17   S    
C26   H32   S    
C16   H7    S    
C36   H53   S    
C30   H42   S    
C27   H30   S    
C19   H9    S    
C32   H49   S    
Cu2   O8    S    
C21   C22   S    
C25   H24   S    
Cu1   O5    S    
C35   H55   S    
C26   N1    S    
Cu2   O2    S    
C21   H19   S    
C7    H56   S    
C28   H38   S    
C20   H21   S    
C35   C38   S    
C24   C25   S    
C3    C8    S    
C8    O5    A    
C17   H5    S    
C22   H15   S    
C5    C18   S    
C35   H57   S    
C31   H40   S    
C37   H52   S    
Cu1   N2    S    
C20   H20   S    
C9    C14   S    
C15   C38   S    
C2    H34   S    
C18   H13   S    
C29   H35   S    
C23   C34   S    
C10   H1    S    
C26   H31   S    
C7    N2    D    
C29   H33   S    
C3    C20   S    
Cu1   O1    S    
C13   H60   S    
C21   H18   S    
C12   H12   S    
C10   C12   S    
C1    O1    A    
Cu2   O6    S    
C19   H10   S    
C40   C41   T    
C2    C5    S    
C24   N2    S    
C19   H11   S    
C4    O4    A    
C36   C37   S    
C28   H37   S    
C34   C38   S    
C25   H22   S    
C16   H8    S    
C3    C5    D    
C17   H6    S    
C6    C7    S    
C42   H45   S    
C9    O7    A    
C32   C33   S    
C8    O6    A    
C33   H46   S    
Cu1   O7    S    
C22   H17   S    
C11   C13   S    
C32   H48   S    
C29   H36   S    
C11   C28   S    
C2    C42   D    
C23   C39   S    
C6    N1    D    
C37   H50   S    
C6    H58   S    
C15   C40   S    
C38   H2    S    
C37   H51   S    
C1    O2    A    
C1    C42   S    
C25   H25   S    
C20   C21   S    
C36   H54   S    
C34   H3    S    
Cu1   O3    S    
C30   H43   S    
C27   H29   S    
C27   H28   S    
C24   H27   S    
Cu2   O4    S    
