data_mof_unit_2907.cif
_audit_creation_date              2012-12-10T18:05:44-0500
_audit_creation_method            fapswitch 2.2
_symmetry_space_group_name_H-M    P1
_symmetry_Int_Tables_number       1
_space_group_crystal_system       triclinic
_cell_length_a                    10.89828
_cell_length_b                    10.827445
_cell_length_c                    9.570848
_cell_angle_alpha                 90.240168
_cell_angle_beta                  91.044837
_cell_angle_gamma                 90.502103
_cell_volume                      1129.12328

loop_
_atom_site_label
_atom_site_type_symbol
_atom_type_description
_atom_site_fract_x
_atom_site_fract_y
_atom_site_fract_z
_atom_type_partial_charge
C1    C     C_R   0.500872 0.262297 0.499601 0.895791
C2    C     C_R   0.499128 0.737703 0.500399 0.895791
C3    C     C_R   0.871720 0.498408 0.504184 -0.075871
C4    C     C_R   0.128280 0.501592 0.495816 -0.075871
C5    C     C_R   0.941682 0.478440 0.627426 0.081393
C6    C     C_R   0.058318 0.521560 0.372573 0.081393
C7    C     C_R   0.535731 0.062661 0.379368 0.652479
C8    C     C_R   0.464269 0.937339 0.620632 0.652479
C9    C     C_R   0.534141 0.934902 0.380723 -0.273204
C10   C     C_R   0.465859 0.065098 0.619277 -0.273204
C11   C     C_R   0.498817 0.871617 0.500999 -0.233032
C12   C     C_R   0.501183 0.128383 0.499000 -0.233032
C13   C     C_R   0.467287 0.396604 0.072920 0.005444
C14   C     C_R   0.532713 0.603396 0.927080 0.005444
C15   C     C_R   0.467630 0.396545 0.924782 0.036961
C16   C     C_R   0.532370 0.603455 0.075218 0.036961
C17   C     C_R   0.262283 0.501020 0.498439 0.827373
C18   C     C_R   0.737717 0.498980 0.501561 0.827373
C19   C     C_R   0.203223 0.674829 0.060319 -0.221124
C20   C     C_R   0.796777 0.325171 0.939681 -0.221124
C21   C     C_R   0.154016 0.659437 0.193168 0.455235
C22   C     C_R   0.845984 0.340563 0.806832 0.455235
C23   C     C_R   0.112368 0.541840 0.234504 -0.035042
C24   C     C_R   0.887632 0.458160 0.765496 -0.035042
C25   C     C_R   0.120577 0.441363 0.142543 -0.254250
C26   C     C_R   0.879423 0.558637 0.857457 -0.254250
C27   C     C_R   0.170834 0.457135 0.011004 0.612172
C28   C     C_R   0.829166 0.542864 0.988995 0.612172
C29   C     C_R   0.211442 0.574065 0.969470 -0.290078
C30   C     C_R   0.788558 0.425935 0.030530 -0.290078
C31   C     C_R   0.931498 0.519504 0.378661 -0.171291
C32   C     C_R   0.068502 0.480496 0.621339 -0.171291
Cu1   Cu    Cu3+1 0.500000 0.500020 0.640660 1.000405
Cu2   Cu    Cu3+1 0.500000 0.499980 0.359340 1.000405
H1    H     H_    0.250905 0.586867 0.867755 0.205707
H2    H     H_    0.749095 0.413133 0.132245 0.205707
H3    H     H_    0.440087 0.313506 0.869319 0.168467
H4    H     H_    0.559913 0.686494 0.130681 0.168467
H5    H     H_    0.235931 0.764685 0.027641 0.218284
H6    H     H_    0.764068 0.235315 0.972359 0.218284
H7    H     H_    0.089027 0.350541 0.173603 0.192054
H8    H     H_    0.910973 0.649459 0.826397 0.192054
H9    H     H_    0.879346 0.535784 0.284124 0.214670
H10   H     H_    0.120654 0.464216 0.715876 0.214670
H11   H     H_    0.562146 0.885651 0.288021 0.203776
H12   H     H_    0.437854 0.114349 0.711979 0.203776
H13   H     H_    0.439356 0.313697 0.126521 0.189365
H14   H     H_    0.560644 0.686303 0.873479 0.189365
N1    N     N_R   0.500030 0.500030 0.852070 -0.199793
N2    N     N_R   0.499970 0.499970 0.147930 -0.199793
O1    O     O_R   0.499990 0.319660 0.618740 -0.598795
O2    O     O_R   0.500010 0.680340 0.381260 -0.598794
O3    O     O_R   0.499990 0.319630 0.381170 -0.546519
O4    O     O_R   0.500010 0.680370 0.618830 -0.546519
O5    O     O_R   0.319650 0.500020 0.618780 -0.582504
O6    O     O_R   0.680350 0.499980 0.381220 -0.582504
O7    O     O_R   0.319640 0.500000 0.381210 -0.585138
O8    O     O_R   0.680360 0.500000 0.618790 -0.585139
Cl1   Cl    Cl    0.146622 0.787977 0.305738 -0.564133
Cl2   Cl    Cl    0.853378 0.212023 0.694262 -0.564133
F1    F     F_    0.182334 0.357976 0.925498 -0.675253
F2    F     F_    0.817666 0.642024 0.074502 -0.675253
F3    F     F_    0.573379 0.121128 0.262217 -0.653553
F4    F     F_    0.426621 0.878872 0.737783 -0.653553

loop_
_geom_bond_atom_site_label_1
_geom_bond_atom_site_label_2
_ccdc_geom_bond_type
C17   O7    A    
Cu1   O5    S    
Cu2   O7    S    
C28   F2    S    
C9    H11   S    
Cu1   O8    S    
C14   C16   A    
C18   O6    A    
Cu1   O1    S    
C9    C11   A    
C29   H1    S    
C26   C28   A    
C13   C15   A    
C30   H2    S    
Cu2   O6    S    
C5    C32   A    
C1    O3    A    
C28   C30   A    
Cu1   Cu2   S    
C32   H10   S    
C20   C30   A    
C15   N1    A    
C3    C31   A    
C1    O1    A    
C7    F3    S    
C4    C32   A    
C1    C12   S    
C2    O2    A    
C8    F4    S    
C8    C11   A    
C2    C11   S    
C19   H5    S    
C8    C10   A    
C3    C18   S    
C19   C21   A    
C20   C22   A    
C21   Cl1   S    
C10   C12   A    
C23   C25   A    
C21   C23   A    
C22   Cl2   S    
C7    C12   A    
C20   H6    S    
C22   C24   A    
Cu2   N2    S    
C14   N1    A    
C27   C29   A    
C4    C17   S    
Cu1   N1    S    
C13   N2    A    
C6    C31   A    
C7    C9    A    
C10   H12   S    
C26   H8    S    
Cu2   O3    S    
C4    C6    A    
C2    O4    A    
C25   H7    S    
Cu1   O4    S    
C13   H13   S    
C17   O5    A    
C5    C24   S    
C14   H14   S    
C27   F1    S    
C16   H4    S    
C6    C23   S    
Cu2   O2    S    
C18   O8    A    
C31   H9    S    
C15   H3    S    
C24   C26   A    
C16   N2    A    
C3    C5    A    
C25   C27   A    
C19   C29   A    
