data_mof_unit_3509.cif
_audit_creation_date              2012-12-11T14:42:18-0500
_audit_creation_method            fapswitch 2.2
_symmetry_space_group_name_H-M    P1
_symmetry_Int_Tables_number       1
_space_group_crystal_system       triclinic
_cell_length_a                    19.041603
_cell_length_b                    10.845243
_cell_length_c                    18.835184
_cell_angle_alpha                 89.80422
_cell_angle_beta                  90.678586
_cell_angle_gamma                 89.432732
_cell_volume                      3889.18141588

loop_
_atom_site_label
_atom_site_type_symbol
_atom_type_description
_atom_site_fract_x
_atom_site_fract_y
_atom_site_fract_z
_atom_type_partial_charge
C1    C     C_R   0.725259 0.959890 0.855462 0.547698
C2    C     C_R   0.248197 0.415578 0.923921 0.031602
C3    C     C_R   0.262251 0.934833 0.069815 0.032889
C4    C     C_R   0.737639 0.934632 0.930144 0.033941
C5    C     C_R   0.821293 0.409218 0.027721 -0.130630
C6    C     C_R   0.209375 0.323309 0.956221 -0.135019
C7    C     C_R   0.320581 0.904402 0.028322 -0.133803
C8    C     C_R   0.679354 0.905328 0.971603 -0.129585
C9    C     C_R   0.814417 0.401251 0.955146 -0.127016
C10   C     C_R   0.212941 0.309186 0.028639 -0.127558
C11   C     C_R   0.314107 0.897416 0.955734 -0.130681
C12   C     C_R   0.274702 0.959863 0.144458 0.548044
C13   C     C_R   0.685646 0.898706 0.044211 -0.127330
C14   C     C_R   0.748206 0.414753 0.923197 0.033098
C15   C     C_R   0.256954 0.384788 0.069907 0.029827
C16   C     C_R   0.248350 0.914375 0.923291 0.032994
C17   C     C_R   0.751253 0.914533 0.076669 0.031359
C18   C     C_R   0.546753 0.286962 0.524350 -0.132885
C19   C     C_R   0.527263 0.285619 0.454036 -0.126068
C20   C     C_R   0.046751 0.786963 0.524351 -0.132868
C21   C     C_R   0.027260 0.785621 0.454038 -0.126018
C22   C     C_R   0.516521 0.172993 0.418970 0.024759
C23   C     C_R   0.227395 0.455739 0.853425 0.547865
C24   C     C_R   0.556975 0.176117 0.561139 0.012997
C25   C     C_R   0.016519 0.672994 0.418971 0.024897
C26   C     C_R   0.056976 0.676117 0.561139 0.013156
C27   C     C_R   0.539317 0.063359 0.451712 -0.109732
C28   C     C_R   0.558125 0.064348 0.523628 -0.130597
C29   C     C_R   0.039315 0.563360 0.451713 -0.109537
C30   C     C_R   0.058126 0.564349 0.523628 -0.130608
C31   C     C_R   0.821035 0.399678 0.550939 -0.120856
C32   C     C_R   0.202738 0.325455 0.467969 -0.144759
C33   C     C_R   0.321036 0.899684 0.550940 -0.120866
C34   C     C_R   0.774843 0.460223 0.144347 0.549132
C35   C     C_R   0.702721 0.825498 0.467958 -0.144622
C36   C     C_R   0.831965 0.409452 0.478815 0.034790
C37   C     C_R   0.202217 0.327052 0.541241 0.035290
C38   C     C_R   0.331965 0.909456 0.478816 0.034890
C39   C     C_R   0.702201 0.827078 0.541231 0.034940
C40   C     C_R   0.559098 0.181561 0.858500 0.560539
C41   C     C_R   0.441382 0.182286 0.141464 0.558324
C42   C     C_R   0.060228 0.681745 0.858305 0.564899
C43   C     C_R   0.942709 0.682016 0.141301 0.556812
C44   C     C_R   0.779084 0.468743 0.435822 -0.011942
C45   C     C_R   0.697167 0.459252 0.037447 -0.135042
C46   C     C_R   0.247162 0.409712 0.577393 -0.000883
C47   C     C_R   0.279082 0.968739 0.435821 -0.012044
C48   C     C_R   0.747155 0.909717 0.577389 -0.001256
C49   C     C_R   0.714650 0.501827 0.466564 -0.160099
C50   C     C_R   0.298299 0.474527 0.539254 -0.141493
C51   C     C_R   0.214646 0.001810 0.466562 -0.160115
C52   C     C_R   0.798299 0.974518 0.539254 -0.141724
C53   C     C_R   0.701737 0.473479 0.537056 -0.115269
C54   C     C_R   0.302089 0.463198 0.465814 -0.127179
C55   C     C_R   0.201733 0.973464 0.537054 -0.115179
C56   C     C_R   0.295797 0.486335 0.964114 -0.132259
C57   C     C_R   0.802091 0.963194 0.465813 -0.127044
C58   C     C_R   0.755000 0.422572 0.579482 0.019197
C59   C     C_R   0.253062 0.390878 0.429687 -0.005886
C60   C     C_R   0.255000 0.922571 0.579482 0.019093
C61   C     C_R   0.753057 0.890899 0.429682 -0.005314
C62   C     C_R   0.738231 0.365200 0.852458 0.549497
C63   C     C_R   0.263184 0.357561 0.144985 0.545914
C64   C     C_R   0.238260 0.865210 0.852462 0.548596
C65   C     C_R   0.761587 0.864983 0.147561 0.544631
C66   C     C_R   0.728135 0.953269 0.648036 0.555062
C67   C     C_R   0.197296 0.961043 0.037243 -0.146853
C68   C     C_R   0.289944 0.997625 0.360695 0.566501
C69   C     C_R   0.228137 0.453269 0.648037 0.553698
C70   C     C_R   0.789944 0.497626 0.360695 0.565868
C71   C     C_R   0.566027 0.181042 0.637987 0.564674
C72   C     C_R   0.473722 0.176278 0.353754 0.557709
C73   C     C_R   0.066028 0.681043 0.637987 0.564912
C74   C     C_R   0.973721 0.676279 0.353755 0.558084
C75   C     C_R   0.739846 0.365347 0.647368 0.561078
C76   C     C_R   0.261480 0.359010 0.355149 0.548007
C77   C     C_R   0.239846 0.865348 0.647369 0.561266
C78   C     C_R   0.802334 0.960100 0.962711 -0.134204
C79   C     C_R   0.761478 0.859018 0.355146 0.545564
C80   C     C_2   0.536590 0.177079 0.932029 -0.097809
C81   C     C_2   0.464265 0.177973 0.068070 -0.097241
C82   C     C_2   0.039439 0.677723 0.932367 -0.100404
C83   C     C_2   0.967631 0.677260 0.068626 -0.099290
C84   C     C_2   0.487355 0.074519 0.036712 -0.162689
C85   C     C_2   0.512454 0.074506 0.963078 -0.160190
C86   C     C_2   0.993978 0.574641 0.038826 -0.157696
C87   C     C_2   0.020220 0.573801 0.965511 -0.153201
C88   C     C_R   0.689772 0.447644 0.964220 -0.138405
C89   C     C_R   0.762651 0.436090 0.069593 0.032678
C90   C     C_R   0.300377 0.470430 0.037206 -0.145677
C91   C     C_R   0.190157 0.949903 0.963946 -0.147716
C92   C     C_R   0.809357 0.948985 0.036021 -0.139480
C93   C     C_2   0.894337 0.338898 0.453290 0.584666
C94   C     C_2   0.153002 0.242374 0.577393 0.567844
C95   C     C_2   0.394337 0.838903 0.453290 0.584733
C96   C     C_2   0.652976 0.742400 0.577372 0.567836
Cr1   Cr    Cr6+3 0.769270 0.163730 0.750710 1.023006
Cr2   Cr    Cr6+3 0.385840 0.322500 0.252290 1.020148
Cr3   Cr    Cr6+3 0.114160 0.822500 0.747710 1.033958
Cr4   Cr    Cr6+3 0.885840 0.822500 0.252290 1.019467
Cr5   Cr    Cr6+3 0.230730 0.163730 0.249290 1.016824
Cr6   Cr    Cr6+3 0.269270 0.663730 0.750710 1.020593
Cr7   Cr    Cr6+3 0.730730 0.663730 0.249290 1.019116
Cr8   Cr    Cr6+3 0.612620 0.009790 0.748780 1.049873
Cr9   Cr    Cr6+3 0.387380 0.009790 0.251220 1.058628
Cr10  Cr    Cr6+3 0.112620 0.509790 0.748780 1.050275
Cr11  Cr    Cr6+3 0.887380 0.509790 0.251220 1.062063
Cr12  Cr    Cr6+3 0.614160 0.322500 0.747710 1.036911
H1    H     H_    0.487156 0.987045 0.064895 0.138434
H2    H     H_    0.342651 0.511314 0.437334 0.167927
H3    H     H_    0.149769 0.988104 0.557825 0.155081
H4    H     H_    0.842662 0.011292 0.437337 0.167976
H5    H     H_    0.460687 0.264508 0.039202 0.105128
H6    H     H_    0.541087 0.262731 0.961163 0.095805
H7    H     H_    0.962656 0.762852 0.039080 0.095422
H8    H     H_    0.040716 0.765216 0.959954 0.096168
H9    H     H_    0.637965 0.457753 0.940424 0.128908
H10   H     H_    0.336339 0.526185 0.068064 0.127506
H11   H     H_    0.138691 0.962722 0.939784 0.126140
H12   H     H_    0.511604 0.987692 0.934572 0.139495
H13   H     H_    0.860727 0.960860 0.060204 0.129005
H14   H     H_    0.651961 0.484210 0.068880 0.128013
H15   H     H_    0.326364 0.558554 0.939881 0.140065
H16   H     H_    0.152332 0.988501 0.068362 0.123393
H17   H     H_    0.847221 0.986745 0.931583 0.129441
H18   H     H_    0.873165 0.395846 0.050802 0.131808
H19   H     H_    0.173150 0.266751 0.926122 0.135492
H20   H     H_    0.372010 0.887639 0.051680 0.129267
H21   H     H_    0.628088 0.889253 0.948215 0.131725
H22   H     H_    0.860340 0.377098 0.924504 0.135210
H23   H     H_    0.995187 0.488053 0.067947 0.145321
H24   H     H_    0.181097 0.237919 0.052070 0.141388
H25   H     H_    0.359901 0.871030 0.925480 0.132722
H26   H     H_    0.639911 0.873306 0.074489 0.133886
H27   H     H_    0.548623 0.375177 0.550905 0.131314
H28   H     H_    0.514877 0.373707 0.429382 0.144446
H29   H     H_    0.048620 0.875177 0.550906 0.131311
H30   H     H_    0.014873 0.873708 0.429385 0.144529
H31   H     H_    0.540794 0.977769 0.422847 0.186159
H32   H     H_    0.570721 0.978301 0.550271 0.172197
H33   H     H_    0.040791 0.477770 0.422849 0.186426
H34   H     H_    0.023632 0.485481 0.938698 0.148531
H35   H     H_    0.070724 0.478302 0.550270 0.172255
H36   H     H_    0.862681 0.360051 0.583873 0.175234
H37   H     H_    0.165895 0.265719 0.441019 0.169435
H38   H     H_    0.362683 0.860062 0.583875 0.175269
H39   H     H_    0.665871 0.765785 0.441004 0.169476
H40   H     H_    0.954223 0.184745 0.463441 0.344746
H41   H     H_    0.058572 0.159267 0.576155 0.334950
H42   H     H_    0.454218 0.684742 0.463434 0.344670
H43   H     H_    0.558556 0.659265 0.576102 0.335081
H44   H     H_    0.672544 0.543168 0.435261 0.147773
H45   H     H_    0.333450 0.537938 0.565729 0.177698
H46   H     H_    0.172536 0.043138 0.435257 0.147823
H47   H     H_    0.833458 0.037912 0.565733 0.177559
H48   H     H_    0.649775 0.488127 0.557828 0.155049
O1    O     O_R   0.784320 0.290430 0.830510 -0.517180
O2    O     O_R   0.456080 0.282180 0.333210 -0.527028
O3    O     O_R   0.043920 0.782180 0.666790 -0.507571
O4    O     O_R   0.956080 0.782180 0.333210 -0.526754
O5    O     O_R   0.679040 0.374160 0.674430 -0.505213
O6    O     O_R   0.320960 0.374160 0.325570 -0.496573
O7    O     O_R   0.179040 0.874160 0.674430 -0.505443
O8    O     O_R   0.820960 0.874160 0.325570 -0.497464
O9    O     O_3   0.665350 0.165340 0.749070 -0.301204
O10   O     O_3   0.334650 0.165340 0.250930 -0.291382
O11   O     O_3   0.165350 0.665340 0.749070 -0.300096
O12   O     O_R   0.215680 0.290430 0.169490 -0.520234
O13   O     O_3   0.834650 0.665340 0.250930 -0.288999
O14   O     O_R   0.762640 0.040960 0.825200 -0.500136
O15   O     O_R   0.237360 0.040960 0.174800 -0.503093
O16   O     O_R   0.262640 0.540960 0.825200 -0.504834
O17   O     O_R   0.737360 0.540960 0.174800 -0.496762
O18   O     O_R   0.667400 0.923970 0.829950 -0.521689
O19   O     O_R   0.332600 0.923970 0.170050 -0.527912
O20   O     O_R   0.167400 0.423970 0.829950 -0.521469
O21   O     O_R   0.832600 0.423970 0.170050 -0.527020
O22   O     O_R   0.553960 0.081340 0.821780 -0.490066
O23   O     O_R   0.284320 0.790430 0.830510 -0.521041
O24   O     O_R   0.446040 0.081340 0.178220 -0.500927
O25   O     O_R   0.053960 0.581340 0.821780 -0.486228
O26   O     O_R   0.946040 0.581340 0.178220 -0.499516
O27   O     O_R   0.543180 0.283240 0.826740 -0.502731
O28   O     O_R   0.456820 0.283240 0.173260 -0.510405
O29   O     O_R   0.043180 0.783240 0.826740 -0.506506
O30   O     O_R   0.956820 0.783240 0.173260 -0.511632
O31   O     O_R   0.678360 0.375140 0.822710 -0.514559
O32   O     O_R   0.321640 0.375140 0.177290 -0.513864
O33   O     O_R   0.178360 0.875140 0.822710 -0.515475
O34   O     O_R   0.715680 0.790430 0.169490 -0.516809
O35   O     O_R   0.821640 0.875140 0.177290 -0.516400
O36   O     O_R   0.785050 0.289380 0.670560 -0.521433
O37   O     O_R   0.214950 0.289380 0.329440 -0.527481
O38   O     O_R   0.285050 0.789380 0.670560 -0.520805
O39   O     O_R   0.714950 0.789380 0.329440 -0.529851
O40   O     O_R   0.763320 0.039990 0.676930 -0.507432
O41   O     O_R   0.236680 0.039990 0.323070 -0.506886
O42   O     O_R   0.263320 0.539990 0.676930 -0.507482
O43   O     O_R   0.736680 0.539990 0.323070 -0.507710
O44   O     O_R   0.668130 0.922920 0.670000 -0.484981
O45   O     O_R   0.554640 0.080370 0.673500 -0.488344
O46   O     O_R   0.331870 0.922920 0.330000 -0.459962
O47   O     O_R   0.168130 0.422920 0.670000 -0.486407
O48   O     O_R   0.831870 0.422920 0.330000 -0.460279
O49   O     O_2   0.932690 0.380055 0.408069 -0.506473
O50   O     O_R   0.910605 0.224375 0.484140 -0.732087
O51   O     O_2   0.170371 0.191970 0.633213 -0.503113
O52   O     O_R   0.087383 0.217977 0.546605 -0.740065
O53   O     O_2   0.432692 0.880063 0.408072 -0.506677
O54   O     O_R   0.410600 0.724374 0.484134 -0.732032
O55   O     O_2   0.670326 0.692006 0.633198 -0.501423
O56   O     O_R   0.445360 0.080370 0.326500 -0.464872
O57   O     O_R   0.587373 0.717977 0.546560 -0.740214
O58   O     O_R   0.054640 0.580370 0.673500 -0.488511
O59   O     O_R   0.945360 0.580370 0.326500 -0.464730
O60   O     O_R   0.543920 0.282180 0.666790 -0.507278

loop_
_geom_bond_atom_site_label_1
_geom_bond_atom_site_label_2
_ccdc_geom_bond_type
C44   C49   A    
C77   O7    A    
Cr12  O9    S    
C51   H46   S    
Cr6   O11   S    
Cr3   O3    S    
C74   O59   A    
C85   H12   S    
C43   C83   S    
C13   H26   S    
Cr12  O31   S    
C76   O6    A    
C28   H32   S    
Cr8   O18   S    
C79   O8    A    
C4    C8    A    
C93   O49   D    
C67   H16   S    
C64   O33   A    
C72   O2    A    
Cr1   O9    S    
C72   O56   A    
C9    H22   S    
C52   H47   S    
C7    C11   A    
Cr12  O60   S    
C29   C30   A    
Cr9   O56   S    
C18   C24   A    
H42   O54   S    
Cr1   O40   S    
C6    H19   S    
C18   C19   A    
C3    C7    A    
C10   C15   A    
C11   H25   S    
C35   C39   A    
Cr5   O41   S    
C86   H23   S    
C57   H4    S    
C50   H45   S    
C71   O60   A    
C14   C62   S    
C1    O14   A    
Cr7   O17   S    
C26   C73   S    
C79   O39   A    
Cr9   O10   S    
C54   H2    S    
C25   C74   S    
C31   H36   S    
C46   C69   S    
Cr2   O32   S    
C3    C12   S    
C41   O24   A    
Cr10  O47   S    
C36   C93   S    
Cr1   O36   S    
Cr8   O22   S    
C23   O16   A    
Cr2   O2    S    
C42   C82   S    
C5    H18   S    
C40   C80   S    
C41   O28   A    
C44   C70   S    
C7    H20   S    
C45   C89   A    
C49   H44   S    
H40   O50   S    
C40   O27   A    
C46   C50   A    
C56   C90   A    
Cr8   O9    S    
C41   C81   S    
C96   O55   D    
C55   C60   A    
Cr11  O21   S    
C25   C29   A    
Cr6   O23   S    
Cr8   O44   S    
C2    C6    A    
C17   C92   A    
Cr7   O39   S    
C21   H30   S    
C93   O50   S    
Cr6   O38   S    
H41   O52   S    
C22   C72   S    
Cr2   O6    S    
Cr5   O37   S    
C58   C75   S    
C12   O15   A    
Cr3   O11   S    
C54   C59   A    
C42   O25   A    
Cr6   O16   S    
Cr10  O58   S    
C1    O18   A    
Cr11  O26   S    
C68   O46   A    
C95   O53   D    
C56   H15   S    
C65   O35   A    
C19   C22   A    
C94   O52   S    
C84   C85   S    
Cr4   O8    S    
C76   O37   A    
C60   C77   S    
Cr3   O33   S    
C64   O23   A    
C86   C87   S    
Cr7   O43   S    
C23   O20   A    
C43   O30   A    
C78   C92   A    
C19   H28   S    
C27   H31   S    
Cr1   O14   S    
C68   O41   A    
Cr1   O1    S    
C20   H29   S    
C38   C95   S    
Cr5   O12   S    
Cr4   O30   S    
C9    C14   A    
Cr10  O25   S    
C5    C9    A    
C80   C85   D    
C83   H7    S    
C11   C16   A    
Cr4   O4    S    
C66   O40   A    
C29   H33   S    
C45   C88   A    
C67   C91   A    
C62   O1    A    
C18   H27   S    
C35   C61   A    
Cr7   O34   S    
C35   H39   S    
C32   C37   A    
C65   O34   A    
C38   C47   A    
Cr2   O10   S    
C53   H48   S    
C12   O19   A    
Cr3   O7    S    
C42   O29   A    
C63   O12   A    
C80   H6    S    
C69   O47   A    
C33   C60   A    
C22   C27   A    
Cr9   O19   S    
C69   O42   A    
C91   H11   S    
C73   O58   A    
C36   C44   A    
Cr4   O35   S    
Cr9   O24   S    
C52   C57   A    
C90   H10   S    
C47   C68   S    
Cr3   O29   S    
C81   C84   D    
C31   C58   A    
Cr7   O13   S    
Cr11  O13   S    
C71   O45   A    
C21   C25   A    
Cr10  O20   S    
Cr12  O27   S    
C55   H3    S    
Cr4   O13   S    
C95   O54   S    
C3    C67   A    
C94   O51   D    
C24   C28   A    
C34   O21   A    
C5    C89   A    
C6    C10   A    
C47   C51   A    
C53   C58   A    
C57   C61   A    
C32   H37   S    
C74   O4    A    
C45   H14   S    
C4    C78   A    
Cr12  O5    S    
C73   O3    A    
C43   O26   A    
C17   C65   S    
C84   H1    S    
C13   C17   A    
C75   O5    A    
C1    C4    S    
Cr10  O11   S    
Cr6   O42   S    
C75   O36   A    
C37   C46   A    
C34   C89   S    
C14   C88   A    
Cr11  O48   S    
C50   C54   A    
C77   O38   A    
C2    C56   A    
C92   H13   S    
Cr8   O45   S    
C15   C90   A    
Cr9   O46   S    
C40   O22   A    
C20   C26   A    
C61   C79   S    
C49   C53   A    
C37   C94   S    
Cr5   O15   S    
C51   C55   A    
C87   H34   S    
Cr2   O28   S    
Cr5   O10   S    
C10   H24   S    
C39   C96   S    
C8    H21   S    
C33   H38   S    
C96   O57   S    
C82   H8    S    
C8    C13   A    
C16   C91   A    
C48   C52   A    
C83   C86   D    
Cr11  O59   S    
C20   C21   A    
C30   H35   S    
C70   O48   A    
C63   O32   A    
H43   O57   S    
C81   H5    S    
C2    C23   S    
C34   O17   A    
C70   O43   A    
C15   C63   S    
C31   C36   A    
C39   C48   A    
C33   C38   A    
C16   C64   S    
C32   C59   A    
C48   C66   S    
C88   H9    S    
C78   H17   S    
C59   C76   S    
C66   O44   A    
C82   C87   D    
C24   C71   S    
C62   O31   A    
C27   C28   A    
C26   C30   A    
