data_mof_unit_2453.cif
_audit_creation_date              2012-10-26T19:40:08-0400
_audit_creation_method            fapswitch 2.2
_symmetry_space_group_name_H-M    P1
_symmetry_Int_Tables_number       1
_space_group_crystal_system       triclinic
_cell_length_a                    15.045723
_cell_length_b                    8.761777
_cell_length_c                    7.432619
_cell_angle_alpha                 103.063782
_cell_angle_beta                  93.520405
_cell_angle_gamma                 92.265423
_cell_volume                      951.223695472

loop_
_atom_site_label
_atom_site_type_symbol
_atom_type_description
_atom_site_fract_x
_atom_site_fract_y
_atom_site_fract_z
_atom_type_partial_charge
C1    C     C_R   0.499180 0.200153 0.453223 0.562805
C2    C     C_R   0.181712 0.357901 0.435080 0.232654
C3    C     C_R   0.766766 0.501900 0.488688 -0.009479
C4    C     C_R   0.233233 0.498101 0.511313 -0.009480
C5    C     C_R   0.807033 0.361795 0.412907 -0.063711
C6    C     C_R   0.192967 0.638211 0.587083 -0.063696
C7    C     C_R   0.900887 0.356383 0.429883 -0.005163
C8    C     C_R   0.099112 0.643619 0.570128 -0.005156
C9    C     C_R   0.952946 0.499156 0.498788 -0.038558
C10   C     C_R   0.047053 0.500844 0.501233 -0.038561
C11   C     C_R   0.911217 0.640733 0.565377 0.026719
C12   C     C_R   0.500822 0.799848 0.546777 0.562809
C13   C     C_R   0.088782 0.359266 0.434645 0.026719
C14   C     C_R   0.945146 0.214273 0.377570 0.230192
C15   C     C_R   0.054852 0.785728 0.622449 0.230187
C16   C     C_1   0.751038 0.228581 0.308140 0.255467
C17   C     C_1   0.248967 0.771441 0.691795 0.255477
C18   C     C_R   0.037118 0.218629 0.372994 0.002013
C19   C     C_R   0.962881 0.781370 0.627032 0.002010
C20   C     C_2   0.505136 0.032888 0.427317 0.248691
C21   C     C_2   0.494868 0.967112 0.572684 0.248703
C22   C     C_R   0.329390 0.500228 0.503672 0.523265
C23   C     C_R   0.670610 0.499771 0.496328 0.523264
C24   C     C_R   0.818287 0.642097 0.564939 0.232654
Cu1   Cu    Cu3+1 0.510010 0.517380 0.684380 1.043062
Cu2   Cu    Cu3+1 0.489990 0.482620 0.315620 1.043057
H1    H     H_    0.068178 0.108174 0.328394 0.207719
H2    H     H_    0.467598 0.990246 0.833112 0.356024
H3    H     H_    0.931820 0.891824 0.671636 0.207730
H4    H     H_    0.430170 0.379494 0.948594 0.270484
H5    H     H_    0.569830 0.620506 0.051406 0.270484
H6    H     H_    0.716082 0.776971 0.597166 0.338976
H7    H     H_    0.283919 0.223030 0.402831 0.338982
H8    H     H_    0.861842 0.067083 0.440408 0.340580
H9    H     H_    0.138135 0.932936 0.559587 0.340578
H10   H     H_    0.532413 0.009757 0.166894 0.356023
N1    N     N_2   0.474890 0.456420 0.038520 -0.236650
N2    N     N_2   0.525110 0.543580 0.961480 -0.236650
N3    N     N_1   0.706544 0.122637 0.223862 -0.233182
N4    N     N_1   0.293466 0.877400 0.776024 -0.233188
O1    O     O_R   0.506510 0.286130 0.619770 -0.460236
O2    O     O_3   0.219610 0.216983 0.364021 -0.695725
O3    O     O_3   0.901925 0.067934 0.339556 -0.670363
O4    O     O_3   0.098071 0.932068 0.660468 -0.670353
O5    O     O_3   0.524049 0.942815 0.255996 -0.705153
O6    O     O_3   0.475958 0.057187 0.744007 -0.705140
O7    O     O_R   0.493490 0.713870 0.380230 -0.460238
O8    O     O_R   0.489600 0.256770 0.308360 -0.519162
O9    O     O_R   0.510400 0.743230 0.691640 -0.519162
O10   O     O_R   0.378710 0.514640 0.655720 -0.509925
O11   O     O_R   0.621290 0.485360 0.344280 -0.509928
O12   O     O_R   0.361800 0.485290 0.344300 -0.491376
O13   O     O_R   0.638200 0.514710 0.655700 -0.491370
O14   O     O_3   0.780389 0.783012 0.636002 -0.695719

loop_
_geom_bond_atom_site_label_1
_geom_bond_atom_site_label_2
_ccdc_geom_bond_type
C2    C4    A    
Cu2   N1    S    
N1    N2    D    
Cu2   O12   S    
Cu1   N2    S    
C4    C22   S    
C9    C10   A    
C14   C18   A    
C23   O11   A    
C20   O5    S    
H5    N2    S    
Cu2   O8    S    
C22   O10   A    
H2    O6    S    
C3    C5    A    
C12   O9    A    
H10   O5    S    
C1    O8    A    
Cu2   O11   S    
C15   C19   A    
H9    O4    S    
C9    C11   A    
C11   C19   A    
C3    C24   A    
C13   C18   A    
C2    O2    S    
C12   O7    A    
H7    O2    S    
Cu2   O7    S    
H6    O14   S    
Cu1   O13   S    
C15   O4    S    
C23   O13   A    
C8    C15   A    
C8    C10   A    
Cu1   O9    S    
H8    O3    S    
C16   N3    T    
C24   O14   S    
C19   H3    S    
C7    C9    A    
C11   C24   A    
C2    C13   A    
C20   C21   D    
C4    C6    A    
C21   O6    S    
Cu1   O1    S    
C5    C7    A    
C6    C17   S    
Cu1   O10   S    
C5    C16   S    
C6    C8    A    
C22   O12   A    
Cu1   Cu2   S    
C3    C23   S    
C12   C21   S    
C10   C13   A    
C7    C14   A    
C18   H1    S    
C1    O1    A    
H4    N1    S    
C14   O3    S    
C1    C20   S    
C17   N4    T    
