data_mof_unit_2984.cif
_audit_creation_date              2012-12-11T14:08:02-0500
_audit_creation_method            fapswitch 2.2
_symmetry_space_group_name_H-M    P1
_symmetry_Int_Tables_number       1
_space_group_crystal_system       triclinic
_cell_length_a                    10.925165
_cell_length_b                    10.955806
_cell_length_c                    18.682265
_cell_angle_alpha                 90.345004
_cell_angle_beta                  89.634007
_cell_angle_gamma                 60.311641
_cell_volume                      1942.47137721

loop_
_atom_site_label
_atom_site_type_symbol
_atom_type_description
_atom_site_fract_x
_atom_site_fract_y
_atom_site_fract_z
_atom_type_partial_charge
C1    C     C_R   0.236178 0.645734 0.608772 0.550403
C2    C     C_2   0.782084 0.154643 0.706571 -0.178623
C3    C     C_2   0.180386 0.663191 0.681423 -0.119953
C4    C     C_R   0.653098 0.622529 0.601500 0.551029
C5    C     C_2   0.194772 0.662362 0.839193 -0.120093
C6    C     C_2   0.191027 0.561866 0.799574 -0.178441
C7    C     C_2   0.219533 0.549530 0.722489 -0.179256
C8    C     C_2   0.650824 0.646390 0.317371 -0.089339
C9    C     C_2   0.633020 0.666123 0.159832 -0.111394
C10   C     C_2   0.706089 0.546342 0.195332 -0.162905
C11   C     C_2   0.687609 0.537505 0.271913 -0.147129
C12   C     C_3   0.665411 0.557224 0.801371 -0.259059
C13   C     C_2   0.674285 0.138113 0.333333 -0.111363
C14   C     C_2   0.651677 0.146478 0.179175 -0.097469
C15   C     C_2   0.608691 0.076097 0.221784 -0.152091
C16   C     C_R   0.628016 0.227814 0.601983 0.544817
C17   C     C_2   0.592231 0.100528 0.298216 -0.163715
C18   C     C_2   0.122221 0.680657 0.345174 -0.106527
C19   C     C_2   0.112894 0.691543 0.190801 -0.089250
C20   C     C_2   0.042412 0.804303 0.234481 -0.146815
C21   C     C_2   0.074899 0.799825 0.309705 -0.165791
C22   C     C_R   0.703561 0.102019 0.897537 0.547907
C23   C     C_3   0.700286 0.675892 0.812363 0.042248
C24   C     C_R   0.724697 0.688864 0.888136 0.546009
C25   C     C_R   0.119366 0.706162 0.907446 0.549905
C26   C     C_R   0.675412 0.105631 0.105055 0.548140
C27   C     C_R   0.692082 0.688855 0.094787 0.552106
C28   C     C_R   0.215626 0.651202 0.404611 0.555921
C29   C     C_R   0.086101 0.713650 0.115386 0.552753
C30   C     C_R   0.641829 0.621208 0.392749 0.548331
C31   C     C_R   0.621300 0.222797 0.397377 0.554754
C32   C     C_3   0.577251 0.816056 0.783262 -0.216708
C33   C     C_3   0.551558 0.799002 0.703804 -0.021107
C34   C     C_3   0.667423 0.649813 0.676863 0.088331
C35   C     C_3   0.836414 0.642398 0.769538 -0.232500
C36   C     C_3   0.813592 0.636408 0.689021 -0.276598
C37   C     C_3   0.657907 0.534012 0.721049 -0.208258
C38   C     C_2   0.675117 0.156370 0.670574 -0.123472
C39   C     C_2   0.689610 0.166716 0.827839 -0.122248
C40   C     C_2   0.801196 0.121674 0.783365 -0.177910
Cr1   Cr    Cr6+3 0.393010 0.398050 0.501480 1.017869
Cr2   Cr    Cr6+3 0.398820 0.707980 0.501630 1.037590
Cr3   Cr    Cr6+3 0.708140 0.393940 0.496850 1.010948
Cr4   Cr    Cr6+3 0.937950 0.938450 0.008940 1.018268
Cr5   Cr    Cr6+3 0.626180 0.937030 0.994750 1.014004
Cr6   Cr    Cr6+3 0.937790 0.625760 0.001410 1.018761
H1    H     H_    0.604059 0.901478 0.788435 0.123642
H2    H     H_    0.273556 0.444256 0.699459 0.157738
H3    H     H_    0.232922 0.728327 0.816210 0.094368
H4    H     H_    0.479919 0.848948 0.815849 0.129839
H5    H     H_    0.124174 0.768501 0.704368 0.106489
H6    H     H_    0.792034 0.454301 0.169542 0.153530
H7    H     H_    0.717767 0.433567 0.292138 0.149788
H8    H     H_    0.541714 0.755395 0.184188 0.104410
H9    H     H_    0.619418 0.751702 0.299169 0.087485
H10   H     H_    0.578052 0.003109 0.199801 0.151630
H11   H     H_    0.501242 0.102989 0.323593 0.156109
H12   H     H_    0.747431 0.429036 0.706232 0.136233
H13   H     H_    0.683233 0.219609 0.199691 0.084212
H14   H     H_    0.770069 0.126810 0.308950 0.094628
H15   H     H_    0.970353 0.907360 0.213109 0.156729
H16   H     H_    0.078156 0.889664 0.332491 0.152313
H17   H     H_    0.186350 0.587208 0.209909 0.093971
H18   H     H_    0.110153 0.594707 0.323773 0.113263
H19   H     H_    0.562133 0.879463 0.672301 0.130641
H20   H     H_    0.867117 0.723620 0.780544 0.128282
H21   H     H_    0.819945 0.723012 0.661534 0.107838
H22   H     H_    0.747299 0.457881 0.825816 0.136838
H23   H     H_    0.925180 0.539127 0.786147 0.140088
H24   H     H_    0.562722 0.585808 0.827574 0.112154
H25   H     H_    0.559676 0.531160 0.709064 0.131637
H26   H     H_    0.336428 0.928806 0.705408 0.214900
H27   H     H_    0.386823 0.763269 0.730133 0.223179
H28   H     H_    0.899756 0.535574 0.666717 0.142921
H29   H     H_    0.907670 0.056126 0.802697 0.151144
H30   H     H_    0.854417 0.181477 0.680307 0.146965
H31   H     H_    0.583661 0.233260 0.807980 0.108182
H32   H     H_    0.608580 0.121410 0.696451 0.100525
H33   H     H_    0.159749 0.490841 0.822963 0.148913
N1    N     N_3   0.407841 0.823160 0.693985 -0.584684
O1    O     O_R   0.507110 0.256280 0.580300 -0.522968
O2    O     O_R   0.837080 0.593860 0.915300 -0.527672
O3    O     O_R   0.064770 0.636080 0.932550 -0.499917
O4    O     O_R   0.280830 0.527190 0.577940 -0.504914
O5    O     O_R   0.068250 0.829200 0.092940 -0.515141
O6    O     O_R   0.799650 0.057040 0.080330 -0.504688
O7    O     O_R   0.586130 0.079760 0.077080 -0.510105
O8    O     O_R   0.627700 0.809630 0.066580 -0.503015
O9    O     O_R   0.816140 0.597180 0.075920 -0.508941
O10   O     O_R   0.045360 0.639170 0.081440 -0.492994
O11   O     O_3   0.833980 0.833750 0.001700 -0.252219
O12   O     O_R   0.524640 0.695370 0.425100 -0.496226
O13   O     O_R   0.261360 0.738990 0.584270 -0.493027
O14   O     O_R   0.532590 0.694780 0.574370 -0.463573
O15   O     O_R   0.744470 0.503750 0.577000 -0.539762
O16   O     O_R   0.698520 0.277230 0.571620 -0.500051
O17   O     O_R   0.498530 0.256920 0.419280 -0.510677
O18   O     O_R   0.272880 0.527780 0.428680 -0.499748
O19   O     O_R   0.252780 0.739630 0.423250 -0.513326
O20   O     O_R   0.735890 0.504390 0.415980 -0.513730
O21   O     O_R   0.690560 0.277820 0.422350 -0.507191
O22   O     O_3   0.499990 0.499990 0.499980 -0.252100
O23   O     O_R   0.089190 0.825870 0.932320 -0.518877
O24   O     O_R   0.819070 0.053960 0.931440 -0.494628
O25   O     O_R   0.607070 0.076440 0.916460 -0.520589
O26   O     O_R   0.647110 0.806550 0.917690 -0.511902

loop_
_geom_bond_atom_site_label_1
_geom_bond_atom_site_label_2
_ccdc_geom_bond_type
C18   C21   D    
C35   C36   S    
C10   H6    S    
Cr4   O24   S    
C36   H21   S    
C33   H19   S    
Cr6   O9    S    
C1    O4    A    
C14   H13   S    
C12   H22   S    
C12   C23   S    
C31   O21   A    
Cr5   O7    S    
C3    C7    D    
C5    C6    D    
C34   C37   S    
C30   O20   A    
C12   C37   S    
C22   O24   A    
Cr1   O22   S    
C20   H15   S    
C24   O2    A    
Cr1   O17   S    
Cr6   O2    S    
C19   C20   D    
C19   H17   S    
C26   O7    A    
Cr3   O15   S    
C23   C24   S    
C9    C10   D    
C29   O5    A    
C37   H12   S    
C11   H7    S    
C5    H3    S    
Cr4   O6    S    
Cr2   O22   S    
C8    H9    S    
C29   O10   A    
Cr4   O23   S    
Cr5   O25   S    
Cr3   O16   S    
C4    C34   S    
C16   O16   A    
Cr5   O8    S    
C18   C28   S    
Cr3   O20   S    
C30   O12   A    
C39   C40   D    
C13   H14   S    
C3    H5    S    
C25   O23   A    
Cr6   O11   S    
C38   H32   S    
C35   H20   S    
Cr2   O13   S    
Cr1   O4    S    
C1    C3    S    
Cr3   O21   S    
C4    O15   A    
C2    C38   D    
C14   C15   D    
C26   O6    A    
Cr1   O1    S    
C33   C34   S    
C14   C26   S    
C32   H4    S    
C21   H16   S    
Cr4   O11   S    
C36   H28   S    
C4    O14   A    
C28   O19   A    
C23   C35   S    
C37   H25   S    
C35   H23   S    
C32   H1    S    
C5    C25   S    
C24   O26   A    
Cr4   O5    S    
C19   C29   S    
C39   H31   S    
C2    H30   S    
Cr5   O26   S    
C9    C27   S    
C28   O18   A    
C15   C17   S    
C12   H24   S    
Cr2   O14   S    
C13   C31   S    
C23   C32   S    
C33   N1    S    
C6    C7    S    
Cr6   O10   S    
C22   O25   A    
C40   H29   S    
C13   C17   D    
C8    C30   S    
C7    H2    S    
Cr3   O22   S    
H26   N1    S    
Cr2   O19   S    
C32   C33   S    
C18   H18   S    
C6    H33   S    
C8    C11   D    
C22   C39   S    
C16   O1    A    
H27   N1    S    
C27   O9    A    
Cr2   O12   S    
C31   O17   A    
C27   O8    A    
Cr5   O11   S    
C15   H10   S    
C10   C11   S    
Cr6   O3    S    
C2    C40   S    
C20   C21   S    
C34   C36   S    
C1    O13   A    
C17   H11   S    
C25   O3    A    
Cr1   O18   S    
C9    H8    S    
C16   C38   S    
