data_mof_unit_403.cif
_audit_creation_date              2012-12-10T17:43:40-0500
_audit_creation_method            fapswitch 2.2
_symmetry_space_group_name_H-M    P1
_symmetry_Int_Tables_number       1
_space_group_crystal_system       triclinic
_cell_length_a                    14.870376
_cell_length_b                    10.603174
_cell_length_c                    9.974555
_cell_angle_alpha                 89.84498
_cell_angle_beta                  89.830934
_cell_angle_gamma                 92.511586
_cell_volume                      1571.19589643

loop_
_atom_site_label
_atom_site_type_symbol
_atom_type_description
_atom_site_fract_x
_atom_site_fract_y
_atom_site_fract_z
_atom_type_partial_charge
C1    C     C_R   0.502560 0.261009 0.500353 0.922801
C2    C     C_R   0.188272 0.554170 0.619860 -0.299106
C3    C     C_R   0.233605 0.549262 0.497383 -0.163622
C4    C     C_R   0.327327 0.512686 0.499398 0.946777
C5    C     C_R   0.189575 0.581280 0.376247 0.152252
C6    C     C_R   0.655719 0.140692 0.617472 -0.199919
C7    C     C_R   0.727535 0.079115 0.673828 -0.134189
C8    C     C_R   0.727869 0.947860 0.673062 -0.143904
C9    C     C_R   0.656355 0.877703 0.615997 -0.206735
C10   C     C_R   0.582496 0.938736 0.559843 0.088876
C11   C     C_R   0.582156 0.070932 0.560530 0.081902
C12   C     C_R   0.907549 0.579504 0.383309 0.099784
C13   C     C_R   0.508417 0.128925 0.501297 -0.084635
C14   C     C_R   0.437684 0.060383 0.441691 -0.165819
C15   C     C_R   0.438232 0.931841 0.440678 -0.229328
C16   C     C_R   0.503119 0.739230 0.499917 0.842343
C17   C     C_R   0.509114 0.871945 0.500017 -0.080509
C18   C     C_R   0.415105 0.293074 0.135969 0.526456
C19   C     C_R   0.412020 0.176230 0.069851 -0.513178
C20   C     C_R   0.417143 0.174233 0.930630 0.374069
C21   C     C_R   0.418514 0.291187 0.864474 0.493589
C22   C     C_R   0.460030 0.398374 0.928326 -0.095406
C23   C     C_R   0.955972 0.543944 0.747868 0.214405
C24   C     C_R   0.459530 0.398646 0.072192 0.009765
C25   C     C_R   0.538317 0.596644 0.070793 -0.130086
C26   C     C_R   0.538145 0.596730 0.928198 -0.097711
C27   C     C_R   0.673587 0.503017 0.499868 0.836875
C28   C     C_R   0.815219 0.556253 0.381982 -0.230536
C29   C     C_R   0.770254 0.521788 0.500298 -0.081046
C30   C     C_R   0.816625 0.516386 0.621498 -0.270753
C31   C     C_R   0.908890 0.543980 0.625583 0.087266
C32   C     C_R   0.955243 0.569306 0.504019 0.030212
C33   C     C_3   0.272613 0.270562 0.226680 -0.342156
C34   C     C_R   0.049907 0.551254 0.745302 -0.294202
C35   C     C_3   0.459637 0.975569 0.881619 -0.268504
C36   C     C_3   0.273365 0.294158 0.791662 -0.290992
C37   C     C_3   0.864724 0.648085 0.910900 -0.838672
C38   C     C_3   0.285171 0.698144 0.213226 -0.686911
C39   C     C_3   0.086097 0.815536 0.134591 -0.786065
C40   C     C_R   0.096098 0.563744 0.623054 0.106273
C41   C     C_R   0.049228 0.579358 0.502182 -0.018255
C42   C     C_R   0.095949 0.599241 0.379003 0.011728
C43   C     C_R   0.045822 0.629517 0.262972 0.204624
C44   C     C_R   0.952391 0.614573 0.265810 -0.300480
H1    H     H_    0.778602 0.564951 0.288731 0.160190
H2    H     H_    0.569743 0.675875 0.874772 0.131321
H3    H     H_    0.086873 0.543939 0.838275 0.129718
H4    H     H_    0.223683 0.541357 0.713299 0.179147
H5    H     H_    0.914721 0.632224 0.175995 0.159712
H6    H     H_    0.380997 0.106394 0.398571 0.177933
H7    H     H_    0.262710 0.166151 0.228933 0.155588
H8    H     H_    0.247359 0.309040 0.130508 0.139115
H9    H     H_    0.231078 0.307890 0.308816 0.187290
H10   H     H_    0.455119 0.936440 0.985039 0.151819
H11   H     H_    0.528858 0.015506 0.860880 0.165116
H12   H     H_    0.658992 0.242677 0.617899 0.143240
H13   H     H_    0.446955 0.895905 0.811310 0.201013
H14   H     H_    0.257746 0.368223 0.866065 0.118245
H15   H     H_    0.253555 0.199176 0.832093 0.187928
H16   H     H_    0.231406 0.307944 0.701601 0.182425
H17   H     H_    0.945634 0.497642 0.950119 0.216219
H18   H     H_    0.915389 0.722384 0.941862 0.242874
H19   H     H_    0.817791 0.626299 0.995335 0.235885
H20   H     H_    0.824412 0.685101 0.827205 0.249311
H21   H     H_    0.208676 0.529568 0.175005 0.218593
H22   H     H_    0.267373 0.723799 0.108936 0.230903
H23   H     H_    0.783444 0.133474 0.717187 0.139325
H24   H     H_    0.358716 0.685624 0.215887 0.256751
H25   H     H_    0.268196 0.777086 0.280291 0.213346
H26   H     H_    0.063587 0.636173 0.058527 0.214737
H27   H     H_    0.124670 0.847936 0.044487 0.238803
H28   H     H_    0.117759 0.860335 0.224390 0.248977
H29   H     H_    0.015823 0.846058 0.125215 0.233898
H30   H     H_    0.784062 0.900302 0.715744 0.137823
H31   H     H_    0.660088 0.776078 0.615088 0.148247
H32   H     H_    0.382236 0.878660 0.396533 0.139755
H33   H     H_    0.570017 0.675710 0.123432 0.137369
H34   H     H_    0.390098 0.091256 0.123210 0.197185
H35   H     H_    0.780600 0.489916 0.712559 0.199143
N1    N     N_R   0.499150 0.498800 0.142780 -0.088860
N2    N     N_R   0.499120 0.498720 0.857170 -0.082189
N3    N     N_2   0.909213 0.534657 0.872647 -0.313176
N4    N     N_2   0.237687 0.581325 0.252104 -0.261517
N5    N     N_2   0.087270 0.679449 0.144616 -0.307503
O1    O     O_R   0.500000 0.316780 0.614690 -0.576240
O2    O     O_3   0.394006 0.065490 0.859874 -0.575329
O3    O     O_3   0.364978 0.303284 0.752941 -0.528499
O4    O     O_R   0.499990 0.316750 0.385360 -0.578436
O5    O     O_R   0.367850 0.499980 0.614680 -0.569525
O6    O     O_R   0.367840 0.499960 0.385350 -0.534579
O7    O     O_R   0.500010 0.683250 0.614640 -0.638032
O8    O     O_R   0.500000 0.683220 0.385310 -0.639717
O9    O     O_R   0.632160 0.500040 0.614650 -0.643652
O10   O     O_R   0.632150 0.500020 0.385320 -0.624231
O11   O     O_3   0.363775 0.307807 0.249882 -0.542553
Zn1   Zn    Zn3+2 0.500010 0.500020 0.653130 0.975526
Zn2   Zn    Zn3+2 0.499990 0.499980 0.346870 0.982288

loop_
_geom_bond_atom_site_label_1
_geom_bond_atom_site_label_2
_ccdc_geom_bond_type
C44   H5    S    
C5    C42   A    
C21   O3    S    
C43   N5    S    
C23   N3    S    
N1    Zn2   S    
C27   C29   S    
C25   N1    A    
C41   C42   A    
C19   C20   A    
C36   H15   S    
C37   H18   S    
C7    C8    A    
C33   H8    S    
C38   N4    S    
C12   C28   A    
C25   H33   S    
C28   C29   A    
C39   N5    S    
C36   H14   S    
H17   N3    S    
C30   C31   A    
C5    N4    S    
O1    Zn1   S    
H21   N4    S    
C10   C17   A    
C18   C19   A    
O7    Zn1   S    
C24   N1    A    
C38   H22   S    
C8    C9    A    
C20   O2    S    
C32   C41   A    
C18   C24   A    
H26   N5    S    
C9    C10   A    
O6    Zn2   S    
O4    Zn2   S    
C1    O4    A    
C15   H32   S    
C38   H25   S    
C13   C14   A    
C12   C32   A    
C35   H10   S    
C1    O1    A    
C18   O11   S    
C33   O11   S    
C37   H19   S    
O8    Zn2   S    
C4    O6    A    
C36   O3    S    
C33   H9    S    
C28   H1    S    
C35   H11   S    
C22   N2    A    
C6    C11   A    
N2    Zn1   S    
C16   C17   S    
O10   Zn2   S    
C36   H16   S    
C25   C26   A    
C33   H7    S    
C23   C31   A    
C19   H34   S    
C43   C44   A    
C29   C30   A    
C31   C32   A    
C39   H28   S    
C23   C34   A    
C8    H30   S    
C30   H35   S    
C40   C41   A    
C38   H24   S    
C16   O8    A    
O9    Zn1   S    
C22   C24   A    
C37   N3    S    
C27   O9    A    
C1    C13   S    
C42   C43   A    
C3    C4    S    
C37   H20   S    
C4    O5    A    
C15   C17   A    
C6    H12   S    
C3    C5    A    
C6    C7    A    
C26   N2    A    
C35   H13   S    
C2    H4    S    
O5    Zn1   S    
C2    C3    A    
C12   C44   A    
C11   C13   A    
C14   H6    S    
C35   O2    S    
C39   H29   S    
C10   C11   A    
C26   H2    S    
C7    H23   S    
C2    C40   A    
C20   C21   A    
C16   O7    A    
C39   H27   S    
C14   C15   A    
C34   C40   A    
C27   O10   A    
C34   H3    S    
C9    H31   S    
C21   C22   A    
