data_mof_unit_2869.cif
_audit_creation_date              2012-12-10T20:25:46-0500
_audit_creation_method            fapswitch 2.2
_symmetry_space_group_name_H-M    P1
_symmetry_Int_Tables_number       1
_space_group_crystal_system       triclinic
_cell_length_a                    8.582088
_cell_length_b                    10.696107
_cell_length_c                    9.930135
_cell_angle_alpha                 91.008698
_cell_angle_beta                  99.053321
_cell_angle_gamma                 91.534533
_cell_volume                      899.637812261

loop_
_atom_site_label
_atom_site_type_symbol
_atom_type_description
_atom_site_fract_x
_atom_site_fract_y
_atom_site_fract_z
_atom_type_partial_charge
C1    C     C_R   0.495089 0.260122 0.498529 0.869154
C2    C     C_R   0.444104 0.399061 0.919118 0.154203
C3    C     C_3   0.294486 0.325722 0.883742 -0.549250
C4    C     C_R   0.201396 0.502510 0.464148 0.964891
C5    C     C_3   0.294046 0.317561 0.038149 -0.088675
C6    C     C_R   0.495006 0.739837 0.500049 0.865107
C7    C     C_R   0.798751 0.501816 0.536087 0.965527
C8    C     C_2   0.036115 0.508881 0.445688 -0.387180
C9    C     C_2   0.964406 0.503564 0.555317 -0.384254
C10   C     C_R   0.474918 0.066093 0.617860 0.131241
C11   C     C_R   0.471163 0.128131 0.495402 -0.101882
C12   C     C_R   0.437061 0.931726 0.372283 -0.222950
C13   C     C_R   0.438019 0.061165 0.371296 -0.237176
C14   C     C_3   0.716611 0.668316 0.899723 -0.387673
C15   C     C_3   0.879479 0.615335 0.944168 -0.914971
C16   C     C_3   0.144390 0.370937 0.081894 -0.312614
C17   C     C_3   0.083653 0.287810 0.187296 -0.859640
C18   C     C_R   0.469741 0.870887 0.497492 -0.094081
C19   C     C_R   0.473634 0.938440 0.618970 0.142682
C20   C     C_3   0.590153 0.937172 0.747503 -0.523769
C21   C     C_3   0.592452 0.078478 0.745842 -0.464225
C22   C     C_R   0.444301 0.398018 0.059336 0.148130
C23   C     C_R   0.581706 0.588984 0.086675 -0.151808
C24   C     C_R   0.589804 0.585924 0.944192 0.195277
H1    H     H_    0.973709 0.517241 0.342286 0.177040
H2    H     H_    0.542651 0.120889 0.832004 0.197609
H3    H     H_    0.707623 0.120334 0.728794 0.204768
H4    H     H_    0.647243 0.660151 0.153006 0.156254
H5    H     H_    0.885120 0.521667 0.895940 0.269242
H6    H     H_    0.971054 0.677726 0.910924 0.250188
H7    H     H_    0.905262 0.607718 0.056862 0.253483
H8    H     H_    0.701853 0.678326 0.789418 0.268122
H9    H     H_    0.714569 0.763081 0.946622 0.177399
H10   H     H_    0.052468 0.192694 0.142757 0.245606
H11   H     H_    0.174496 0.279217 0.279063 0.272482
H12   H     H_    0.200679 0.382673 0.826850 0.205392
H13   H     H_    0.975591 0.327264 0.217203 0.247070
H14   H     H_    0.164788 0.468992 0.119618 0.233689
H15   H     H_    0.048058 0.371283 0.993266 0.197532
H16   H     H_    0.310627 0.234035 0.834554 0.190961
H17   H     H_    0.318438 0.220686 0.073039 0.162243
H18   H     H_    0.026612 0.497947 0.659080 0.170559
H19   H     H_    0.423610 0.107822 0.274524 0.162821
H20   H     H_    0.421723 0.880609 0.275720 0.169597
H21   H     H_    0.535918 0.899032 0.833208 0.201712
H22   H     H_    0.704699 0.897393 0.732447 0.199984
N1    N     N_R   0.498950 0.499140 0.142680 -0.126734
N2    N     N_R   0.498950 0.499180 0.857030 -0.120455
O1    O     O_R   0.500020 0.316790 0.614690 -0.612681
O2    O     O_R   0.500000 0.316760 0.385350 -0.621435
O3    O     O_R   0.271760 0.500010 0.587850 -0.611690
O4    O     O_R   0.271740 0.499970 0.358500 -0.625339
O5    O     O_R   0.500000 0.683240 0.614650 -0.641777
O6    O     O_R   0.499980 0.683210 0.385310 -0.628774
O7    O     O_R   0.728260 0.500030 0.641500 -0.632976
O8    O     O_R   0.728240 0.499990 0.412150 -0.609699
Zn1   Zn    Zn3+2 0.500010 0.500020 0.653130 0.929786
Zn2   Zn    Zn3+2 0.499990 0.499980 0.346870 0.931956

loop_
_geom_bond_atom_site_label_1
_geom_bond_atom_site_label_2
_ccdc_geom_bond_type
C2    C22   A    
C17   H10   S    
C21   H2    S    
C15   H7    S    
O3    Zn1   S    
C1    O2    A    
C19   C20   S    
C1    C11   S    
C7    O7    A    
C10   C19   A    
C4    C8    S    
C14   H9    S    
C2    C3    S    
C21   H3    S    
N2    Zn1   S    
C12   H20   S    
C17   H13   S    
C23   H4    S    
C12   C13   A    
N1    Zn2   S    
C8    H1    S    
C11   C13   A    
C16   H14   S    
C9    H18   S    
O4    Zn2   S    
C7    O8    A    
C4    O4    A    
C4    O3    A    
C3    H12   S    
O8    Zn2   S    
C3    H16   S    
C15   H5    S    
O7    Zn1   S    
C10   C21   S    
C6    C18   S    
C22   N1    A    
C6    O5    A    
C23   N1    A    
C10   C11   A    
C23   C24   A    
C16   H15   S    
C14   C24   S    
O2    Zn2   S    
C13   H19   S    
O1    Zn1   S    
C20   C21   S    
C15   H6    S    
C18   C19   A    
O6    Zn2   S    
C12   C18   A    
C7    C9    S    
O5    Zn1   S    
C14   C15   S    
C16   C17   S    
C5    C16   S    
C5    H17   S    
C17   H11   S    
C2    N2    A    
C1    O1    A    
C6    O6    A    
C20   H22   S    
C5    C22   S    
C20   H21   S    
C14   H8    S    
C8    C9    D    
C3    C5    S    
C24   N2    A    
