data_mof_unit_1457.cif
_audit_creation_date              2012-12-10T20:30:13-0500
_audit_creation_method            fapswitch 2.2
_symmetry_space_group_name_H-M    P1
_symmetry_Int_Tables_number       1
_space_group_crystal_system       triclinic
_cell_length_a                    9.878035
_cell_length_b                    10.666338
_cell_length_c                    12.954691
_cell_angle_alpha                 90.254639
_cell_angle_beta                  71.23971
_cell_angle_gamma                 90.145122
_cell_volume                      1292.40856602

loop_
_atom_site_label
_atom_site_type_symbol
_atom_type_description
_atom_site_fract_x
_atom_site_fract_y
_atom_site_fract_z
_atom_type_partial_charge
Br1   Br    Br    0.089937 0.140860 0.531166 -0.473825
Br2   Br    Br    0.816686 0.762269 0.633902 -0.495261
Br3   Br    Br    0.362289 0.288249 0.233927 -0.512274
C1    C     C_R   0.501132 0.739955 0.497222 0.913762
C2    C     C_R   0.375215 0.467263 0.821750 -0.145097
C3    C     C_R   0.379451 0.935813 0.493733 0.074771
C4    C     C_R   0.422125 0.490166 0.704104 0.854573
C5    C     C_R   0.505978 0.871430 0.481803 -0.119794
C6    C     C_R   0.636982 0.935341 0.450283 -0.164813
C7    C     C_R   0.636810 0.065004 0.450375 -0.180786
C8    C     C_R   0.505612 0.128511 0.481672 -0.150753
C9    C     C_R   0.379154 0.063597 0.493387 0.181587
C10   C     C_3   0.238065 0.070541 0.582279 0.109259
C11   C     C_3   0.238459 0.928243 0.582356 -0.498534
C12   C     C_R   0.433321 0.418526 0.986383 0.147313
C13   C     C_R   0.888871 0.498922 0.595660 0.158841
C14   C     C_R   0.968001 0.497774 0.405017 -0.085852
C15   C     C_R   0.111399 0.500081 0.405110 -0.023777
C16   C     C_R   0.500917 0.260025 0.497267 0.874541
C17   C     C_R   0.031284 0.494343 0.595691 0.205750
C18   C     C_3   0.003367 0.585933 0.687044 -0.559996
C19   C     C_3   0.852117 0.597426 0.683304 0.073304
C20   C     C_R   0.577686 0.485922 0.296694 0.928979
C21   C     C_R   0.795794 0.385072 0.010387 0.493141
C22   C     C_R   0.620285 0.440313 0.184139 -0.186639
C23   C     C_R   0.467394 0.409810 0.872179 0.076467
C24   C     C_R   0.243782 0.516997 0.885884 -0.123693
C25   C     C_R   0.206114 0.517292 0.998624 -0.140958
C26   C     C_R   0.300967 0.471684 0.048595 -0.197901
C27   C     C_3   0.976522 0.243998 0.939728 0.063816
C28   C     C_3   0.023577 0.205260 0.036893 -0.347663
C29   C     C_3   0.081563 0.071632 0.023281 -0.895566
C30   C     C_R   0.540672 0.390029 0.033007 -0.007311
C31   C     C_R   0.683180 0.370087 0.965813 0.010547
C32   C     C_R   0.707705 0.338895 0.856521 -0.227823
C33   C     C_R   0.597516 0.351112 0.811914 -0.213085
C34   C     C_R   0.513491 0.394657 0.144610 0.166281
C35   C     C_R   0.763461 0.433286 0.116805 -0.328223
H1    H     H_    0.849279 0.459498 0.147699 0.172073
H2    H     H_    0.769931 0.567141 0.759684 0.160987
H3    H     H_    0.812609 0.310884 0.803994 0.181260
H4    H     H_    0.173551 0.562454 0.848770 0.160926
H5    H     H_    0.272454 0.485240 0.135478 0.160581
H6    H     H_    0.106122 0.559158 0.047340 0.153379
H7    H     H_    0.619707 0.322286 0.728071 0.185479
H8    H     H_    0.737805 0.886181 0.432273 0.204504
H9    H     H_    0.068387 0.231655 0.863710 0.176782
H10   H     H_    0.890300 0.180189 0.932441 0.142820
H11   H     H_    0.108281 0.269755 0.044221 0.257235
H12   H     H_    0.737556 0.114555 0.432691 0.199508
H13   H     H_    0.931299 0.211019 0.113340 0.222150
H14   H     H_    0.998069 0.004675 0.017235 0.261275
H15   H     H_    0.114053 0.046247 0.094975 0.284788
H16   H     H_    0.176441 0.064041 0.948743 0.261018
H17   H     H_    0.245449 0.113184 0.658818 0.103579
H18   H     H_    0.247256 0.887639 0.658879 0.174200
H19   H     H_    0.154816 0.884846 0.553278 0.260959
H20   H     H_    0.946569 0.497464 0.328259 0.131753
H21   H     H_    0.196474 0.504766 0.328467 0.158638
H22   H     H_    0.006890 0.540134 0.762815 0.206997
H23   H     H_    0.069371 0.672273 0.664276 0.235141
N1    N     N_R   0.856940 0.500860 0.500710 -0.089342
N2    N     N_R   0.142580 0.500820 0.500710 -0.087033
O1    O     O_R   0.385310 0.683210 0.499990 -0.618915
O2    O     O_R   0.614650 0.683240 0.500000 -0.572171
O3    O     O_R   0.328390 0.499940 0.653610 -0.614918
O4    O     O_R   0.557730 0.499980 0.653620 -0.607572
O5    O     O_R   0.385350 0.316760 0.500000 -0.563333
O6    O     O_R   0.614690 0.316790 0.500010 -0.630519
O7    O     O_R   0.442270 0.500020 0.346380 -0.593815
O8    O     O_R   0.671610 0.500060 0.346390 -0.633427
O9    O     O_3   0.937414 0.372168 0.946836 -0.669490
Zn1   Zn    Zn3+2 0.346870 0.499980 0.499990 0.993715
Zn2   Zn    Zn3+2 0.653130 0.500020 0.500010 0.977486

loop_
_geom_bond_atom_site_label_1
_geom_bond_atom_site_label_2
_ccdc_geom_bond_type
C11   H18   S    
C32   C33   A    
C1    C5    S    
C8    C16   S    
C27   H10   S    
C25   C26   A    
C3    C9    A    
C1    O2    A    
C22   C35   A    
C15   N2    A    
C31   C32   A    
C29   H14   S    
C22   C34   A    
C2    C24   A    
C5    C6    A    
Br2   C19   S    
C21   C35   A    
O1    Zn1   S    
C12   C26   A    
C6    C7    A    
C18   H23   S    
C14   H20   S    
C6    H8    S    
C18   C19   S    
C26   H5    S    
C20   O7    A    
C13   N1    A    
C28   H11   S    
C29   H16   S    
C30   C31   A    
O6    Zn2   S    
C35   H1    S    
C20   O8    A    
C27   H9    S    
C33   H7    S    
C18   H22   S    
C2    C4    S    
C12   C23   A    
C3    C5    A    
N2    Zn1   S    
O5    Zn1   S    
O3    Zn1   S    
C25   H6    S    
C30   C34   A    
O2    Zn2   S    
C14   N1    A    
C3    C11   S    
C28   C29   S    
C13   C17   A    
C19   H2    S    
O7    Zn1   S    
C14   C15   A    
C16   O5    A    
O4    Zn2   S    
C9    C10   S    
C23   C33   A    
C16   O6    A    
Br1   C10   S    
C7    H12   S    
C29   H15   S    
C21   O9    S    
C11   H19   S    
C13   C19   S    
C28   H13   S    
O8    Zn2   S    
C27   O9    S    
C8    C9    A    
C1    O1    A    
C17   N2    A    
C4    O3    A    
C24   H4    S    
C27   C28   S    
C20   C22   S    
C32   H3    S    
C21   C31   A    
C7    C8    A    
C4    O4    A    
C2    C23   A    
C15   H21   S    
C17   C18   S    
Br3   C34   S    
C24   C25   A    
N1    Zn2   S    
C10   C11   S    
C12   C30   A    
C10   H17   S    
