data_mof_unit_1133.cif
_audit_creation_date              2012-12-10T17:31:10-0500
_audit_creation_method            fapswitch 2.2
_symmetry_space_group_name_H-M    P1
_symmetry_Int_Tables_number       1
_space_group_crystal_system       triclinic
_cell_length_a                    11.999427
_cell_length_b                    12.818837
_cell_length_c                    15.572239
_cell_angle_alpha                 86.871528
_cell_angle_beta                  115.835826
_cell_angle_gamma                 94.617144
_cell_volume                      2148.37904599

loop_
_atom_site_label
_atom_site_type_symbol
_atom_type_description
_atom_site_fract_x
_atom_site_fract_y
_atom_site_fract_z
_atom_type_partial_charge
C1    C     C_R   0.474392 0.299469 0.495503 0.942702
C2    C     C_R   0.525635 0.700521 0.504560 0.943121
C3    C     C_R   0.656840 0.522840 0.114046 -0.149595
C4    C     C_R   0.374501 0.586366 0.894911 -0.169325
C5    C     C_R   0.743560 0.516141 0.078160 -0.169533
C6    C     C_R   0.288614 0.596351 0.931015 -0.187104
C7    C     C_R   0.545014 0.812282 0.511006 -0.191705
C8    C     C_R   0.455035 0.187699 0.489055 -0.198689
C9    C     C_R   0.339306 0.029082 0.414486 -0.227556
C10   C     C_R   0.660774 0.970915 0.585511 -0.208945
C11   C     C_R   0.343032 0.136726 0.423880 0.451151
C12   C     C_R   0.656915 0.863219 0.576381 0.449053
C13   C     C_R   0.558622 0.131714 0.544045 -0.263613
C14   C     C_R   0.441528 0.868297 0.455805 -0.277545
C15   C     C_R   0.555160 0.025733 0.532627 0.098961
C16   C     C_R   0.444986 0.974283 0.467219 0.100378
C17   C     C_R   0.015105 0.614342 0.425007 0.321341
C18   C     C_R   0.987237 0.388575 0.578361 0.379164
C19   C     C_R   0.133029 0.599784 0.430385 -0.093793
C20   C     C_R   0.868163 0.401627 0.571309 -0.065881
C21   C     C_R   0.155809 0.450758 0.531683 0.078549
C22   C     C_R   0.844595 0.549862 0.468920 0.060396
C23   C     C_R   0.576607 0.496001 0.680242 0.904429
C24   C     C_R   0.423543 0.505144 0.319789 0.912265
C25   C     C_R   0.036552 0.459326 0.528281 -0.129117
C26   C     C_R   0.964545 0.542206 0.473334 -0.111889
C27   C     C_R   0.625116 0.502834 0.783583 -0.045685
C28   C     C_R   0.378663 0.518057 0.216795 -0.041147
C29   C     C_R   0.790942 0.500800 0.943416 -0.177312
C30   C     C_R   0.230154 0.576966 0.061903 -0.180444
C31   C     C_R   0.750832 0.494281 0.845134 -0.123701
C32   C     C_R   0.261124 0.552925 0.157785 -0.157170
C33   C     C_R   0.541616 0.521694 0.820207 -0.224685
C34   C     C_R   0.462713 0.505105 0.179363 -0.222652
C35   C     C_R   0.580161 0.532981 0.917488 0.095180
C36   C     C_R   0.438541 0.537880 0.086660 0.099665
C37   C     C_R   0.705765 0.517504 0.980079 0.150070
C38   C     C_R   0.318436 0.570369 0.026082 0.162895
C39   C     C_R   0.494452 0.552189 0.953875 0.069970
C40   C     C_R   0.530247 0.536796 0.052584 0.057449
H1    H     H_    0.839582 0.505865 0.127321 0.164632
H2    H     H_    0.197997 0.623157 0.883981 0.161942
H3    H     H_    0.829408 0.348439 0.608980 0.187085
H4    H     H_    0.172407 0.653535 0.393542 0.165629
H5    H     H_    0.547672 0.469073 0.224281 0.159563
H6    H     H_    0.444609 0.522752 0.771869 0.171773
H7    H     H_    0.194594 0.563106 0.185876 0.169157
H8    H     H_    0.817102 0.480832 0.817610 0.173246
H9    H     H_    0.887708 0.490931 0.990730 0.146344
H10   H     H_    0.138574 0.602927 0.016415 0.149567
H11   H     H_    0.692601 0.519918 0.190686 0.175431
H12   H     H_    0.345958 0.609742 0.821092 0.156402
H13   H     H_    0.356460 0.828372 0.405471 0.169641
H14   H     H_    0.643720 0.171643 0.594328 0.182411
H15   H     H_    0.255166 0.988011 0.364763 0.203567
H16   H     H_    0.744884 0.011997 0.635296 0.213875
H17   H     H_    0.785879 0.610711 0.426806 0.206245
H18   H     H_    0.214295 0.389573 0.573291 0.206298
N1    N     N_R   0.799120 0.480200 0.517090 -0.140099
N2    N     N_R   0.200880 0.519800 0.482910 -0.130499
O1    O     O_R   0.580150 0.341050 0.504560 -0.635291
O2    O     O_R   0.419850 0.658950 0.495440 -0.641261
O3    O     O_R   0.388090 0.353760 0.493600 -0.554770
O4    O     O_R   0.611910 0.646240 0.506400 -0.553769
O5    O     O_R   0.650890 0.490020 0.640860 -0.594627
O6    O     O_R   0.349110 0.509980 0.359140 -0.592602
O7    O     O_R   0.458830 0.502730 0.629890 -0.634964
O8    O     O_R   0.541170 0.497270 0.370110 -0.635289
Zn1   Zn    Zn3+2 0.628240 0.491510 0.507320 1.016472
Zn2   Zn    Zn3+2 0.371760 0.508490 0.492680 1.013312
S1    S     S_3+6 0.937761 0.725659 0.360992 0.033793
O9    O     O_2   0.817815 0.691052 0.279064 -0.294416
O10   O     O_2   0.909732 0.790787 0.425748 -0.240192
O11   O     O_3   0.025214 0.799249 0.317735 -0.517275
H19   H     H_    0.089787 0.836382 0.373579 0.356090
S2    S     S_3+6 0.070321 0.283607 0.650336 0.019344
O12   O     O_2   0.099194 0.212643 0.589955 -0.246547
O13   O     O_2   0.189528 0.326559 0.728526 -0.315989
O14   O     O_3   0.986284 0.214564 0.699209 -0.564524
H20   H     H_    0.037176 0.155617 0.734347 0.407147
S3    S     S_3+6 0.789292 0.795905 0.652787 0.041460
O15   O     O_2   0.751966 0.709327 0.705814 -0.331279
O16   O     O_2   0.844627 0.750326 0.594350 -0.256169
O17   O     O_3   0.896577 0.878036 0.732155 -0.545624
H21   H     H_    0.966417 0.834238 0.771163 0.386849
S4    S     S_3+6 0.209990 0.203872 0.348527 0.046143
O18   O     O_2   0.155128 0.247904 0.408007 -0.259174
O19   O     O_2   0.246113 0.291565 0.295767 -0.325144
O20   O     O_3   0.102805 0.121921 0.268887 -0.528121
H22   H     H_    0.032096 0.165334 0.231048 0.394550

loop_
_geom_bond_atom_site_label_1
_geom_bond_atom_site_label_2
_ccdc_geom_bond_type
C8    C13   A    
C5    C37   A    
C1    C8    S    
C2    C7    S    
S2    O14   S    
S3    O17   S    
C22   H17   S    
S3    O15   D    
C29   H9    S    
C27   C33   A    
O2    Zn2   S    
C4    H12   S    
C17   C26   A    
C35   C37   A    
C9    C16   A    
S2    O13   D    
C10   C15   A    
S4    O19   D    
C11   S4    S    
C15   C16   A    
C30   C38   A    
C23   O7    A    
C36   C40   A    
C5    H1    S    
C17   C19   A    
C7    C14   A    
O8    Zn1   S    
C6    C38   A    
C9    H15   S    
C23   C27   S    
C10   H16   S    
C34   C36   A    
C24   O6    A    
C30   H10   S    
C28   C34   A    
C33   H6    S    
C18   C25   A    
C1    O3    A    
S3    O16   D    
C2    O4    A    
C7    C12   A    
O11   H19   S    
O3    Zn2   S    
C27   C31   A    
C28   C32   A    
S2    O12   D    
C21   N2    A    
C4    C6    A    
C22   N1    A    
S1    O10   D    
C3    H11   S    
S4    O18   D    
C25   C26   A    
C35   C39   A    
C4    C39   A    
N2    Zn2   S    
C34   H5    S    
O4    Zn1   S    
O17   H21   S    
C20   N1    A    
C9    C11   A    
C10   C12   A    
N1    Zn1   S    
C3    C40   A    
C17   S1    S    
C31   H8    S    
C13   C15   A    
C6    H2    S    
C32   H7    S    
C14   C16   A    
C39   C40   A    
C20   H3    S    
C19   H4    S    
C13   H14   S    
O1    Zn1   S    
C21   C25   A    
C18   S2    S    
C24   C28   S    
C3    C5    A    
S4    O20   S    
C1    O1    A    
S1    O11   S    
C19   N2    A    
O7    Zn2   S    
C23   O5    A    
C36   C38   A    
C21   H18   S    
C29   C31   A    
C30   C32   A    
O6    Zn2   S    
C8    C11   A    
O5    Zn1   S    
C33   C35   A    
C12   S3    S    
C18   C20   A    
C24   O8    A    
O14   H20   S    
S1    O9    D    
C14   H13   S    
C22   C26   A    
C29   C37   A    
O20   H22   S    
C2    O2    A    
