data_mof_unit_1333.cif
_audit_creation_date              2012-10-26T21:06:37-0400
_audit_creation_method            fapswitch 2.2
_symmetry_space_group_name_H-M    P1
_symmetry_Int_Tables_number       1
_space_group_crystal_system       triclinic
_cell_length_a                    15.893782
_cell_length_b                    10.859307
_cell_length_c                    9.577534
_cell_angle_alpha                 89.638673
_cell_angle_beta                  90.001997
_cell_angle_gamma                 91.49981
_cell_volume                      1652.4396835

loop_
_atom_site_label
_atom_site_type_symbol
_atom_type_description
_atom_site_fract_x
_atom_site_fract_y
_atom_site_fract_z
_atom_type_partial_charge
C1    C     C_R   0.501422 0.262379 0.500682 0.567015
C2    C     C_R   0.553873 0.576501 0.074009 0.073069
C3    C     C_R   0.340052 0.499806 0.499986 0.564438
C4    C     C_R   0.659947 0.500169 0.500015 0.558422
C5    C     C_3   0.970105 0.387403 0.534521 -0.030392
C6    C     C_3   0.029884 0.612477 0.465502 -0.030561
C7    C     C_3   0.026668 0.417992 0.407182 -0.031595
C8    C     C_3   0.973322 0.581887 0.592840 -0.031718
C9    C     C_1   0.250637 0.499910 0.500067 0.026364
C10   C     C_1   0.749358 0.500022 0.499941 0.023305
C11   C     C_3   0.027313 0.469556 0.627604 -0.029553
C12   C     C_R   0.499005 0.737648 0.499338 0.578303
C13   C     C_3   0.972677 0.530324 0.372419 -0.029574
C14   C     C_3   0.083758 0.500141 0.500262 -0.020063
C15   C     C_3   0.916233 0.499740 0.499761 -0.020225
C16   C     C_1   0.175303 0.500055 0.500215 -0.015436
C17   C     C_1   0.824690 0.499846 0.499800 -0.016792
C18   C     C_R   0.479420 0.065801 0.380315 -0.136456
C19   C     C_R   0.522075 0.934113 0.619912 -0.125691
C20   C     C_1   0.056631 0.328470 0.305457 0.240807
C21   C     C_1   0.943356 0.671408 0.694566 0.240811
C22   C     C_1   0.936803 0.264215 0.572197 0.229472
C23   C     C_R   0.476791 0.938094 0.377064 0.084833
C24   C     C_1   0.063172 0.735672 0.427827 0.231666
C25   C     C_1   0.942239 0.563306 0.232622 0.237261
C26   C     C_1   0.057749 0.436572 0.767402 0.237233
C27   C     C_1   0.387080 0.343620 0.149066 0.250650
C28   C     C_1   0.613104 0.656109 0.850972 0.248078
C29   C     C_1   0.389356 0.340631 0.852381 0.279635
C30   C     C_1   0.610733 0.659242 0.147621 0.266778
C31   C     C_R   0.525199 0.062155 0.623317 0.092464
C32   C     C_R   0.498731 0.871614 0.497944 0.045554
C33   C     C_R   0.502648 0.128438 0.502214 0.036376
C34   C     C_R   0.445862 0.423797 0.074828 0.069280
C35   C     C_R   0.554174 0.576148 0.925179 0.068387
C36   C     C_R   0.446148 0.423467 0.925995 0.073161
Cu1   Cu    Cu3+1 0.500000 0.500020 0.640660 1.006204
Cu2   Cu    Cu3+1 0.500000 0.499980 0.359340 1.013087
H1    H     H_    0.462013 0.115687 0.286892 0.151821
H2    H     H_    0.539405 0.883303 0.712664 0.147232
H3    H     H_    0.490385 0.905305 0.170831 0.233327
H4    H     H_    0.389519 0.906055 0.227066 0.245877
H5    H     H_    0.612972 0.162081 0.727943 0.244273
H6    H     H_    0.559405 0.061948 0.830720 0.227005
N1    N     N_R   0.500020 0.500030 0.852070 -0.267556
N2    N     N_3   0.552964 0.124299 0.747983 -0.583425
N3    N     N_1   0.339411 0.279256 0.207234 -0.276119
N4    N     N_1   0.660919 0.720273 0.792853 -0.278325
N5    N     N_1   0.343605 0.273793 0.794498 -0.251887
N6    N     N_1   0.656540 0.726004 0.205498 -0.264786
N7    N     N_R   0.499980 0.499970 0.147930 -0.265958
N8    N     N_1   0.080291 0.257999 0.225316 -0.210845
N9    N     N_1   0.919695 0.741877 0.774707 -0.211103
N10   N     N_1   0.910552 0.167169 0.601869 -0.239226
N11   N     N_1   0.089410 0.832726 0.398156 -0.234873
N12   N     N_1   0.918265 0.589226 0.122492 -0.231007
N13   N     N_1   0.081721 0.410651 0.877534 -0.230847
N14   N     N_3   0.449987 0.877074 0.251755 -0.585869
O1    O     O_R   0.500000 0.319660 0.618740 -0.467485
O2    O     O_R   0.500000 0.680340 0.381260 -0.458353
O3    O     O_R   0.499990 0.319630 0.381170 -0.519222
O4    O     O_R   0.500010 0.680370 0.618830 -0.520517
O5    O     O_R   0.379080 0.500000 0.618760 -0.497327
O6    O     O_R   0.620920 0.500000 0.381240 -0.496901
O7    O     O_R   0.379080 0.499970 0.381190 -0.488278
O8    O     O_R   0.620920 0.500030 0.618810 -0.494229

loop_
_geom_bond_atom_site_label_1
_geom_bond_atom_site_label_2
_ccdc_geom_bond_type
C2    C35   A    
C34   N7    A    
C23   N14   S    
C4    O8    A    
C18   H1    S    
C25   N12   T    
C15   C17   S    
Cu1   Cu2   S    
C3    C9    S    
C3    O5    A    
C6    C14   S    
C12   O4    A    
C4    O6    A    
Cu2   O6    S    
Cu2   O7    S    
C2    C30   S    
Cu2   O3    S    
C19   C31   A    
Cu1   O8    S    
H4    N14   S    
C31   C33   A    
C8    C21   S    
C30   N6    T    
C6    C24   S    
C36   N1    A    
C22   N10   T    
C29   N5    T    
C23   C32   A    
C24   N11   T    
C21   N9    T    
C29   C36   S    
C13   C25   S    
C1    O1    A    
Cu1   O1    S    
C8    C11   S    
Cu2   O2    S    
C19   C32   A    
C12   O2    A    
H5    N2    S    
C9    C16   T    
H6    N2    S    
H3    N14   S    
C5    C11   S    
C8    C15   S    
C34   C36   A    
C13   C15   S    
C27   C34   S    
C3    O7    A    
C26   N13   T    
C14   C16   S    
C5    C15   S    
C19   H2    S    
C10   C17   T    
C1    C33   S    
C18   C23   A    
C35   N1    A    
C18   C33   A    
C7    C13   S    
C28   C35   S    
C20   N8    T    
C7    C20   S    
C2    N7    A    
C27   N3    T    
C11   C14   S    
C5    C7    S    
Cu1   O4    S    
C28   N4    T    
C6    C8    S    
Cu2   N7    S    
C11   C26   S    
Cu1   O5    S    
Cu1   N1    S    
C7    C14   S    
C12   C32   S    
C5    C22   S    
C4    C10   S    
C6    C13   S    
C31   N2    S    
C1    O3    A    
