data_mof_unit_4274.cif
_audit_creation_date              2012-12-10T17:47:02-0500
_audit_creation_method            fapswitch 2.2
_symmetry_space_group_name_H-M    P1
_symmetry_Int_Tables_number       1
_space_group_crystal_system       triclinic
_cell_length_a                    10.032868
_cell_length_b                    10.713468
_cell_length_c                    13.6421
_cell_angle_alpha                 94.037185
_cell_angle_beta                  85.449796
_cell_angle_gamma                 87.178386
_cell_volume                      1455.8801732

loop_
_atom_site_label
_atom_site_type_symbol
_atom_type_description
_atom_site_fract_x
_atom_site_fract_y
_atom_site_fract_z
_atom_type_partial_charge
C1    C     C_R   0.496233 0.739432 0.500777 0.847103
C2    C     C_1   0.464748 0.525335 0.787745 -0.115050
C3    C     C_R   0.342312 0.861543 0.358181 -0.261713
C4    C     C_R   0.300041 0.910780 0.274104 0.132263
C5    C     C_R   0.351729 0.021700 0.244179 0.203501
C6    C     C_R   0.433945 0.088910 0.306643 0.091656
C7    C     C_R   0.454466 0.051106 0.402657 -0.057572
C8    C     C_R   0.424940 0.927850 0.420903 0.050632
C9    C     C_R   0.487773 0.871944 0.496921 -0.094439
C10   C     C_R   0.560031 0.940127 0.562698 -0.306959
C11   C     C_R   0.568395 0.067748 0.556943 0.464958
C12   C     C_R   0.478022 0.503957 0.684903 0.911349
C13   C     C_R   0.514350 0.124190 0.477876 -0.127605
C14   C     C_R   0.844720 0.635242 0.652562 0.074715
C15   C     C_R   0.891478 0.746988 0.693939 0.432651
C16   C     C_R   0.028607 0.764817 0.681814 -0.172545
C17   C     C_R   0.113914 0.676890 0.623889 -0.224599
C18   C     C_R   0.060831 0.582576 0.563989 0.106770
C19   C     C_R   0.917879 0.575427 0.569029 0.030519
C20   C     C_R   0.940012 0.422843 0.436577 0.187927
C21   C     C_R   0.082035 0.425110 0.434885 0.180193
C22   C     C_R   0.504560 0.260021 0.486535 0.963258
C23   C     C_R   0.520952 0.506216 0.315681 0.901533
C24   C     C_1   0.531274 0.503693 0.212571 -0.088079
C25   C     C_2   0.532569 0.475601 0.022313 0.233155
C26   C     C_2   0.464813 0.561368 0.977581 -0.210393
C27   C     C_1   0.459585 0.544919 0.874653 0.086690
C28   C     C_1   0.535192 0.492935 0.125308 0.022711
H1    H     H_    0.416420 0.644926 0.017697 0.173042
H2    H     H_    0.070102 0.842212 0.722347 0.196730
H3    H     H_    0.219325 0.686481 0.625443 0.214781
H4    H     H_    0.606833 0.893878 0.620405 0.150692
H5    H     H_    0.308341 0.770344 0.371130 0.212394
N1    N     N_R   0.857120 0.501200 0.500900 -0.137341
N2    N     N_R   0.142720 0.501280 0.500940 -0.139507
O1    O     O_R   0.385310 0.683220 0.500000 -0.666167
O2    O     O_R   0.614640 0.683250 0.500010 -0.610979
O3    O     O_R   0.368830 0.499960 0.640340 -0.619110
O4    O     O_R   0.598160 0.499980 0.640350 -0.582165
O5    O     O_R   0.385360 0.316750 0.499990 -0.595662
O6    O     O_R   0.614690 0.316780 0.500000 -0.539741
O7    O     O_R   0.401840 0.500020 0.359650 -0.597097
O8    O     O_R   0.631170 0.500040 0.359660 -0.589522
Zn1   Zn    Zn3+2 0.346870 0.499980 0.499990 0.983181
Zn2   Zn    Zn3+2 0.653130 0.500020 0.500010 1.031832
I1    I     I_    0.824653 0.513052 0.768515 -0.218282
O9    O     O_3   0.812226 0.826102 0.761168 -0.726148
H6    H     H_    0.719242 0.798239 0.762584 0.331466
I2    I     I_    0.198074 0.319275 0.319811 -0.216697
I3    I     I_    0.622822 0.305465 0.951127 -0.147590
I4    I     I_    0.172627 0.800785 0.190081 -0.259312
I5    I     I_    0.313285 0.078635 0.100727 -0.160793
I6    I     I_    0.571625 0.198899 0.234672 -0.235943
O10   O     O_3   0.627355 0.139546 0.628220 -0.721921
H7    H     H_    0.658810 0.085044 0.678523 0.362767
I7    I     I_    0.859173 0.282141 0.347925 -0.155537

loop_
_geom_bond_atom_site_label_1
_geom_bond_atom_site_label_2
_ccdc_geom_bond_type
C8    C9    A    
C7    C13   A    
C23   C24   S    
C5    I5    S    
O3    Zn1   S    
C6    C7    A    
C21   N2    A    
C1    O2    A    
O8    Zn2   S    
C9    C10   A    
O10   H7    S    
O9    H6    S    
C15   O9    S    
O4    Zn2   S    
C2    C12   S    
C12   O4    A    
C21   I2    S    
C17   C18   A    
C22   O5    A    
C7    C8    A    
C14   I1    S    
N1    Zn2   S    
C25   C28   S    
N2    Zn1   S    
C11   C13   A    
C26   C27   S    
C2    C27   T    
C23   O7    A    
O7    Zn1   S    
C11   O10   S    
C13   C22   S    
C3    C8    A    
C20   I7    S    
C12   O3    A    
C5    C6    A    
C17   H3    S    
O1    Zn1   S    
C22   O6    A    
C10   C11   A    
C3    H5    S    
C6    I6    S    
O2    Zn2   S    
C15   C16   A    
C10   H4    S    
O5    Zn1   S    
C1    C9    S    
C20   C21   A    
C26   H1    S    
C18   C19   A    
C18   N2    A    
C20   N1    A    
O6    Zn2   S    
C25   I3    S    
C4    C5    A    
C4    I4    S    
C25   C26   D    
C14   C15   A    
C23   O8    A    
C16   H2    S    
C14   C19   A    
C3    C4    A    
C1    O1    A    
C24   C28   T    
C16   C17   A    
C19   N1    A    
