data_mof_unit_1616.cif
_audit_creation_date              2012-12-10T19:45:47-0500
_audit_creation_method            fapswitch 2.2
_symmetry_space_group_name_H-M    P1
_symmetry_Int_Tables_number       1
_space_group_crystal_system       triclinic
_cell_length_a                    10.919657
_cell_length_b                    14.65504
_cell_length_c                    14.795835
_cell_angle_alpha                 65.394372
_cell_angle_beta                  103.522119
_cell_angle_gamma                 101.823993
_cell_volume                      2077.52180236

loop_
_atom_site_label
_atom_site_type_symbol
_atom_type_description
_atom_site_fract_x
_atom_site_fract_y
_atom_site_fract_z
_atom_type_partial_charge
C1    C     C_R   0.477955 0.119661 0.312507 0.833745
C2    C     C_R   0.655239 0.780089 0.964405 -0.221774
C3    C     C_R   0.383440 0.153022 0.132969 -0.216487
C4    C     C_R   0.620594 0.847863 0.866425 -0.219022
C5    C     C_R   0.506831 0.289538 0.177242 -0.252358
C6    C     C_R   0.502853 0.710054 0.822352 -0.248224
C7    C     C_R   0.479264 0.360187 0.077409 0.068931
C8    C     C_R   0.532583 0.639636 0.922023 0.070803
C9    C     C_R   0.395109 0.325248 0.005545 0.132992
C10   C     C_R   0.615739 0.675189 0.993136 0.136272
C11   C     C_R   0.528426 0.464986 0.048876 0.035856
C12   C     C_R   0.523475 0.880398 0.687431 0.816928
C13   C     C_R   0.485362 0.534873 0.951075 0.031366
C14   C     C_R   0.394925 0.498519 0.884900 -0.254584
C15   C     C_R   0.619377 0.502006 0.115058 -0.249815
C16   C     C_R   0.262761 0.001150 0.500524 0.825108
C17   C     C_R   0.736770 0.000391 0.496878 0.837197
C18   C     C_R   0.353772 0.396062 0.908348 0.067214
C19   C     C_R   0.660709 0.605159 0.089781 0.058643
C20   C     C_R   0.713305 0.282584 0.668826 -0.316427
C21   C     C_R   0.280023 0.711831 0.338575 -0.340317
C22   C     C_R   0.682577 0.202870 0.636804 0.047878
C23   C     C_R   0.869466 0.000963 0.492459 -0.050120
C24   C     C_R   0.311884 0.793173 0.368396 0.039616
C25   C     C_R   0.521401 0.286954 0.507668 0.029063
C26   C     C_R   0.482608 0.714961 0.490408 0.031368
C27   C     C_R   0.553074 0.373262 0.532724 -0.010181
C28   C     C_R   0.451401 0.627969 0.466488 -0.015405
C29   C     C_R   0.647939 0.367597 0.617880 0.165795
C30   C     C_R   0.352163 0.630817 0.384790 0.165006
C31   C     C_R   0.489909 0.461894 0.480016 0.065013
C32   C     C_R   0.517743 0.540912 0.517385 0.060734
C33   C     C_R   0.609586 0.529717 0.604913 -0.242416
C34   C     C_R   0.129210 0.004053 0.499189 -0.058406
C35   C     C_R   0.398719 0.473542 0.391985 -0.251108
C36   C     C_R   0.674571 0.445400 0.653033 -0.224760
C37   C     C_R   0.328284 0.554683 0.347628 -0.226775
C38   C     C_R   0.319447 0.173161 0.715816 0.055524
C39   C     C_R   0.645959 0.848622 0.276892 0.066339
C40   C     C_R   0.247109 0.101467 0.676928 0.477668
C41   C     C_R   0.731487 0.915759 0.315533 0.467731
C42   C     C_R   0.174318 0.135632 0.578911 0.017520
C43   C     C_R   0.821727 0.876658 0.403533 0.010986
C44   C     C_R   0.167521 0.239387 0.524354 -0.248538
C45   C     C_R   0.909042 0.942843 0.450650 0.052161
C46   C     C_R   0.834382 0.773088 0.445283 -0.245210
C47   C     C_R   0.235462 0.309057 0.564219 -0.173898
C48   C     C_R   0.754971 0.708134 0.403928 -0.177253
C49   C     C_R   0.314259 0.276589 0.657307 -0.208931
C50   C     C_R   0.659078 0.744853 0.322623 -0.210096
C51   C     C_R   0.960193 0.061767 0.533724 -0.285779
C52   C     C_R   0.038379 0.944899 0.455600 -0.291723
C53   C     C_3   0.396402 0.142457 0.820966 -0.416135
C54   C     C_3   0.502488 0.080775 0.836072 -0.249254
C55   C     C_3   0.614917 0.096702 0.913977 -0.925195
C56   C     C_R   0.089009 0.064674 0.537467 0.061580
C57   C     C_3   0.532793 0.884871 0.195567 -0.387510
C58   C     C_3   0.517411 0.851501 0.107670 -0.384898
C59   C     C_3   0.385824 0.866208 0.043805 -0.848486
C60   C     C_3   0.151704 0.957038 0.786392 0.027488
C61   C     C_3   0.123307 0.844750 0.807157 -0.780133
C62   C     C_3   0.795693 0.066703 0.197963 0.006407
C63   C     C_3   0.769780 0.176275 0.142075 -0.775443
C64   C     C_3   0.264354 0.369279 0.825218 -0.417525
C65   C     C_3   0.128707 0.388856 0.816203 -0.340328
C66   C     C_3   0.046609 0.382234 0.719824 -0.853830
C67   C     C_R   0.458216 0.187422 0.205411 -0.029822
C68   C     C_3   0.753033 0.638077 0.168018 -0.404007
C69   C     C_3   0.886783 0.676026 0.140056 -0.326424
C70   C     C_3   0.953675 0.757612 0.179745 -0.886927
C71   C     C_R   0.546759 0.812778 0.794298 -0.035135
C72   C     C_R   0.350507 0.221044 0.034731 -0.217389
Cu1   Cu    Cu3+1 0.466270 0.918260 0.475690 0.948625
Cu2   Cu    Cu3+1 0.533730 0.081740 0.524310 0.943781
H1    H     H_    0.371423 0.332822 0.683802 0.150878
H2    H     H_    0.444684 0.281698 0.448678 0.127971
H3    H     H_    0.258154 0.857122 0.331147 0.123559
H4    H     H_    0.732191 0.136717 0.676471 0.119997
H5    H     H_    0.785374 0.276396 0.734525 0.139801
H6    H     H_    0.202705 0.713536 0.277512 0.147930
H7    H     H_    0.632386 0.584577 0.639050 0.140621
H8    H     H_    0.377408 0.419816 0.356568 0.142453
H9    H     H_    0.107528 0.266192 0.451233 0.157229
H10   H     H_    0.905280 0.742339 0.510995 0.158268
H11   H     H_    0.227434 0.388746 0.522662 0.172068
H12   H     H_    0.592800 0.690895 0.297724 0.158643
H13   H     H_    0.764713 0.628221 0.437377 0.167172
H14   H     H_    0.931291 0.107294 0.565276 0.159213
H15   H     H_    0.067844 0.900322 0.423306 0.162563
H16   H     H_    0.450293 0.686910 0.762868 0.149070
H17   H     H_    0.561685 0.312366 0.236438 0.149022
H18   H     H_    0.657158 0.927011 0.845918 0.147297
H19   H     H_    0.344582 0.074197 0.153394 0.144420
H20   H     H_    0.582942 0.078466 0.986138 0.270480
H21   H     H_    0.687531 0.047397 0.927514 0.228336
H22   H     H_    0.659257 0.176569 0.886345 0.260912
H23   H     H_    0.285767 0.190287 0.984390 0.128582
H24   H     H_    0.535652 0.102346 0.764275 0.240244
H25   H     H_    0.465662 0.999433 0.860726 0.246867
H26   H     H_    0.438879 0.211153 0.836830 0.203455
H27   H     H_    0.332429 0.098687 0.876856 0.160380
H28   H     H_    0.311867 0.816413 0.088888 0.246333
H29   H     H_    0.368029 0.945883 0.016741 0.250434
H30   H     H_    0.378734 0.845824 0.978301 0.259381
H31   H     H_    0.591149 0.896042 0.060695 0.225229
H32   H     H_    0.527702 0.770391 0.134547 0.224472
H33   H     H_    0.447203 0.853968 0.230758 0.220050
H34   H     H_    0.716545 0.811139 0.015982 0.149237
H35   H     H_    0.536227 0.968406 0.164830 0.225188
H36   H     H_    0.062459 0.991829 0.745921 0.129761
H37   H     H_    0.179136 0.966128 0.859594 0.144803
H38   H     H_    0.209617 0.806722 0.848159 0.247660
H39   H     H_    0.046895 0.809752 0.853737 0.196571
H40   H     H_    0.091673 0.833945 0.734861 0.248699
H41   H     H_    0.774442 0.030637 0.141957 0.137891
H42   H     H_    0.897984 0.065467 0.232124 0.154602
H43   H     H_    0.789988 0.214796 0.195598 0.249752
H44   H     H_    0.831150 0.216241 0.083426 0.197193
H45   H     H_    0.351545 0.548599 0.812813 0.146315
H46   H     H_    0.668906 0.179645 0.105058 0.255452
H47   H     H_    0.090960 0.433528 0.652930 0.257494
H48   H     H_    0.033178 0.303484 0.723842 0.254170
H49   H     H_    0.953086 0.406341 0.710163 0.236803
H50   H     H_    0.086875 0.332450 0.882589 0.214048
H51   H     H_    0.128949 0.465624 0.814080 0.220770
H52   H     H_    0.298883 0.417929 0.753023 0.198342
H53   H     H_    0.264258 0.291000 0.833253 0.185486
H54   H     H_    0.895418 0.820792 0.152281 0.245882
H55   H     H_    0.971188 0.725253 0.263506 0.264995
H56   H     H_    0.662545 0.452052 0.187375 0.138956
H57   H     H_    0.045191 0.789175 0.151610 0.229190
H58   H     H_    0.943976 0.611611 0.172408 0.208218
H59   H     H_    0.883311 0.708036 0.057098 0.220783
H60   H     H_    0.713784 0.697353 0.176495 0.196591
H61   H     H_    0.760931 0.575417 0.243782 0.184564
H62   H     H_    0.744573 0.440151 0.719836 0.140656
H63   H     H_    0.255643 0.558652 0.282511 0.145813
H64   H     H_    0.562336 0.722350 0.546574 0.126548
N1    N     N_R   0.584450 0.204570 0.560790 -0.186913
N2    N     N_R   0.415550 0.795430 0.439210 -0.181488
O1    O     O_R   0.455540 0.022090 0.338120 -0.577124
O2    O     O_3   0.719061 0.017806 0.273603 -0.596447
O3    O     O_R   0.544460 0.977910 0.661880 -0.590534
O4    O     O_R   0.512510 0.160150 0.379180 -0.602075
O5    O     O_R   0.487490 0.839850 0.620820 -0.597521
O6    O     O_R   0.291160 0.930970 0.479480 -0.598953
O7    O     O_R   0.708840 0.069030 0.520520 -0.599858
O8    O     O_R   0.348130 0.069020 0.520540 -0.573462
O9    O     O_R   0.651870 0.930980 0.479460 -0.573737
O10   O     O_3   0.253162 0.999089 0.731202 -0.594935

loop_
_geom_bond_atom_site_label_1
_geom_bond_atom_site_label_2
_ccdc_geom_bond_type
Cu2   O3    S    
C34   C56   A    
C8    C13   A    
C23   C45   A    
C27   C29   A    
Cu1   Cu2   S    
C14   C18   A    
C2    C4    A    
C9    C72   A    
C5    C67   A    
C44   H9    S    
C41   O2    S    
C47   C49   A    
C38   C49   A    
Cu1   O1    S    
C53   C54   S    
C24   N2    A    
C15   C19   A    
C15   H56   S    
C29   C36   A    
C17   C23   S    
C59   H30   S    
C47   H11   S    
Cu2   O8    S    
C35   C37   A    
C26   N2    A    
C63   H43   S    
C39   C57   S    
C25   N1    A    
C33   C36   A    
C17   O7    A    
C16   O6    A    
C51   C56   A    
C65   H50   S    
C42   C56   S    
C11   C15   A    
C57   H35   S    
C53   H27   S    
C68   C69   S    
C49   H1    S    
C44   C47   A    
C72   H23   S    
C16   C34   S    
C40   C42   A    
C37   H63   S    
C13   C14   A    
C41   C43   A    
C52   H15   S    
C42   C44   A    
C62   O2    S    
C55   H20   S    
C36   H62   S    
C35   H8    S    
C20   C29   A    
C53   H26   S    
C6    C71   A    
C46   C48   A    
C66   H47   S    
C27   C31   A    
Cu2   O7    S    
C28   C32   A    
C1    O1    A    
C22   H4    S    
C39   C41   A    
C5    C7    A    
C63   H44   S    
C6    C8    A    
C45   C52   A    
C58   C59   S    
C6    H16   S    
C22   N1    A    
C70   H55   S    
C30   C37   A    
Cu1   O5    S    
C60   C61   S    
C58   H32   S    
C65   H51   S    
C12   O5    A    
C7    C11   A    
C62   H42   S    
C62   C63   S    
C9    C18   A    
C23   C51   A    
C31   C32   A    
C10   C19   A    
C64   H53   S    
C66   H48   S    
C48   H13   S    
C40   O10   S    
C19   C68   S    
C3    H19   S    
C60   O10   S    
C48   C50   A    
C43   C45   S    
C5    H17   S    
C46   H10   S    
C55   H21   S    
C57   H33   S    
C12   C71   S    
C20   C22   A    
C65   C66   S    
C64   H52   S    
C61   H39   S    
C31   C35   A    
C54   H25   S    
C2    C10   A    
Cu2   N1    S    
C70   H54   S    
C7    C9    A    
Cu2   O4    S    
C54   C55   S    
C69   H59   S    
C20   H5    S    
Cu1   O9    S    
C59   H28   S    
C34   C52   A    
C68   H61   S    
C17   O9    A    
C55   H22   S    
C26   H64   S    
C51   H14   S    
Cu1   N2    S    
C25   C27   A    
C21   C30   A    
C26   C28   A    
C12   O3    A    
Cu1   O6    S    
C16   O8    A    
C25   H2    S    
C59   H29   S    
C64   C65   S    
C58   H31   S    
C68   H60   S    
C3    C72   A    
C28   C30   A    
C60   H37   S    
C32   C33   A    
C38   C40   A    
C63   H46   S    
C11   C13   A    
C18   C64   S    
C57   C58   S    
C38   C53   S    
C3    C67   A    
C69   H58   S    
C21   H6    S    
C2    H34   S    
C70   H57   S    
C1    C67   S    
C69   C70   S    
C43   C46   A    
C60   H36   S    
C50   H12   S    
C24   H3    S    
C62   H41   S    
C39   C50   A    
C8    C10   A    
C14   H45   S    
C21   C24   A    
C61   H40   S    
C1    O4    A    
C66   H49   S    
C54   H24   S    
C61   H38   S    
C33   H7    S    
C4    C71   A    
C4    H18   S    
