data_mof_unit_1972.cif
_audit_creation_date              2012-12-10T17:57:50-0500
_audit_creation_method            fapswitch 2.2
_symmetry_space_group_name_H-M    P1
_symmetry_Int_Tables_number       1
_space_group_crystal_system       triclinic
_cell_length_a                    10.812933
_cell_length_b                    9.643422
_cell_length_c                    15.003592
_cell_angle_alpha                 89.717768
_cell_angle_beta                  92.844323
_cell_angle_gamma                 89.988596
_cell_volume                      1562.53321755

loop_
_atom_site_label
_atom_site_type_symbol
_atom_type_description
_atom_site_fract_x
_atom_site_fract_y
_atom_site_fract_z
_atom_type_partial_charge
C1    C     C_R   0.262511 0.499987 0.500691 0.847327
C2    C     C_R   0.737553 0.499995 0.500198 0.760746
C3    C     C_R   0.266764 0.506301 0.031598 -0.012283
C4    C     C_R   0.718018 0.422718 0.966347 -0.001351
C5    C     C_R   0.063270 0.375206 0.489809 -0.127421
C6    C     C_R   0.936848 0.624666 0.512050 -0.149900
C7    C     C_R   0.935353 0.375306 0.489418 -0.127474
C8    C     C_R   0.064783 0.624576 0.512402 -0.125271
C9    C     C_R   0.871615 0.500000 0.500563 -0.044706
C10   C     C_R   0.128494 0.499907 0.501093 -0.021476
C11   C     C_R   0.423103 0.074822 0.441510 0.046363
C12   C     C_R   0.576895 0.925261 0.558597 0.056264
C13   C     C_R   0.581155 0.073673 0.555613 0.065613
C14   C     C_R   0.418588 0.926569 0.444744 0.070551
C15   C     C_R   0.497601 0.499976 0.329153 0.869537
C16   C     C_R   0.501347 0.499636 0.670632 0.762516
C17   C     C_R   0.616670 0.486635 0.818059 -0.048019
C18   C     C_R   0.379814 0.519929 0.181696 -0.035117
C19   C     C_R   0.504151 0.497477 0.767104 -0.120130
C20   C     C_R   0.491890 0.497622 0.232272 -0.093143
C21   C     C_R   0.391496 0.504270 0.807438 -0.187828
C22   C     C_R   0.600627 0.465648 0.191205 -0.219786
C23   C     C_R   0.387954 0.502424 0.899765 0.115316
C24   C     C_R   0.602720 0.461667 0.098871 0.126734
C25   C     C_R   0.497995 0.483392 0.952615 0.025218
C26   C     C_R   0.492662 0.483040 0.046330 0.045615
C27   C     C_R   0.612978 0.464417 0.911693 0.094058
C28   C     C_R   0.377794 0.503487 0.087336 0.033187
C29   C     C_R   0.274277 0.512304 0.939149 -0.241003
C30   C     C_R   0.713098 0.429713 0.058990 -0.273745
Cu1   Cu    Cu3+1 0.500000 0.640660 0.500000 0.951025
Cu2   Cu    Cu3+1 0.500000 0.359340 0.500000 0.954017
H1    H     H_    0.306350 0.513645 0.766331 0.141738
H2    H     H_    0.684865 0.446445 0.231840 0.146218
H3    H     H_    0.189721 0.518007 0.897097 0.155417
H4    H     H_    0.794642 0.402839 0.100641 0.163571
H5    H     H_    0.110685 0.277726 0.480744 0.159891
H6    H     H_    0.889409 0.722149 0.521044 0.164050
H7    H     H_    0.886659 0.278019 0.479755 0.189999
H8    H     H_    0.113508 0.721877 0.521932 0.188066
N1    N     N_R   0.500000 0.852070 0.500000 -0.260575
N2    N     N_R   0.500000 0.147930 0.500000 -0.262303
O1    O     O_R   0.319640 0.618740 0.499990 -0.594502
O2    O     O_R   0.680360 0.381260 0.500010 -0.604134
O3    O     O_R   0.680360 0.618740 0.500010 -0.613850
O4    O     O_R   0.319640 0.381260 0.499990 -0.614339
O5    O     O_R   0.499970 0.618800 0.370260 -0.608522
O6    O     O_R   0.500030 0.381200 0.629740 -0.603296
O7    O     O_R   0.500030 0.618800 0.629740 -0.582008
O8    O     O_R   0.499970 0.381200 0.370260 -0.571918
C31   C     C_2   0.733680 0.517173 0.773391 0.461549
H9    H     H_    0.744697 0.486006 0.704859 0.026313
O9    O     O_2   0.816324 0.583993 0.811323 -0.532385
C32   C     C_2   0.270159 0.572517 0.226807 0.396653
H10   H     H_    0.215916 0.657030 0.197072 0.079375
O10   O     O_2   0.237306 0.519450 0.295733 -0.553998
C33   C     C_2   0.140603 0.486807 0.063731 0.331800
H11   H     H_    0.063760 0.545658 0.033484 0.069862
O11   O     O_2   0.119941 0.398065 0.119390 -0.493576
C34   C     C_2   0.828161 0.352819 0.932065 0.458067
H12   H     H_    0.916996 0.360528 0.968573 0.077871
O12   O     O_2   0.819245 0.278421 0.866439 -0.518685
C35   C     C_2   0.352939 0.147885 0.367903 0.506788
H13   H     H_    0.296028 0.236787 0.379549 0.124973
O13   O     O_2   0.358668 0.107571 0.291159 -0.528806
C36   C     C_2   0.647183 0.852166 0.632154 0.500546
H14   H     H_    0.703370 0.762712 0.620580 0.087493
O14   O     O_2   0.642268 0.892954 0.708836 -0.517646
C37   C     C_2   0.682687 0.145520 0.607192 0.477387
H15   H     H_    0.667113 0.237688 0.644916 0.112711
O15   O     O_2   0.788322 0.100535 0.607688 -0.560727
C38   C     C_2   0.316709 0.855082 0.393757 0.446333
H16   H     H_    0.332245 0.762253 0.357145 0.126090
O16   O     O_2   0.211290 0.900818 0.392789 -0.566926

loop_
_geom_bond_atom_site_label_1
_geom_bond_atom_site_label_2
_ccdc_geom_bond_type
C36   O14   D    
C35   O13   D    
C5    H5    S    
C15   O5    A    
C17   C31   S    
C6    C9    A    
Cu1   O1    S    
C23   C29   A    
C3    C28   A    
C19   C21   A    
C24   C26   A    
C11   C35   S    
C11   C14   A    
C1    O4    A    
C33   O11   D    
C21   H1    S    
C11   N2    A    
C34   O12   D    
C15   O8    A    
C37   O15   D    
C1    O1    A    
C2    O2    A    
C6    H6    S    
C36   H14   S    
Cu1   O5    S    
Cu2   O6    S    
C16   O6    A    
Cu2   O4    S    
Cu1   O7    S    
C13   N2    A    
C2    O3    A    
C15   C20   S    
C22   H2    S    
C32   O10   D    
C31   H9    S    
C17   C27   A    
C18   C28   A    
C16   O7    A    
C38   O16   D    
C5    C7    A    
C6    C8    A    
C25   C26   A    
C12   C36   S    
C34   H12   S    
C31   O9    D    
C12   N1    A    
Cu1   Cu2   S    
C4    C34   S    
Cu2   O2    S    
Cu2   O8    S    
C14   N1    A    
C3    C33   S    
C20   C22   A    
C21   C23   A    
C22   C24   A    
C4    C27   A    
C7    C9    A    
C32   H10   S    
C7    H7    S    
Cu1   N1    S    
C14   C38   S    
C1    C10   S    
C38   H16   S    
C25   C27   A    
C29   H3    S    
C26   C28   A    
C30   H4    S    
C5    C10   A    
C3    C29   A    
C33   H11   S    
C13   C37   S    
C16   C19   S    
C17   C19   A    
C18   C20   A    
C23   C25   A    
C37   H15   S    
C24   C30   A    
C18   C32   S    
C35   H13   S    
C12   C13   A    
C8    C10   A    
Cu1   O3    S    
Cu2   N2    S    
C8    H8    S    
C2    C9    S    
C4    C30   A    
