data_mof_unit_301.cif
_audit_creation_date              2012-12-11T15:35:23-0500
_audit_creation_method            fapswitch 2.2
_symmetry_space_group_name_H-M    P1
_symmetry_Int_Tables_number       1
_space_group_crystal_system       triclinic
_cell_length_a                    17.373804
_cell_length_b                    24.367675
_cell_length_c                    14.939682
_cell_angle_alpha                 90.000856
_cell_angle_beta                  125.330006
_cell_angle_gamma                 89.997763
_cell_volume                      5160.03465929

loop_
_atom_site_label
_atom_site_type_symbol
_atom_type_description
_atom_site_fract_x
_atom_site_fract_y
_atom_site_fract_z
_atom_type_partial_charge
C1    C     C_R   0.309377 0.124584 0.906570 -0.050235
C2    C     C_R   0.309374 0.875426 0.906565 -0.050264
C3    C     C_R   0.809376 0.624581 0.906568 -0.050246
C4    C     C_R   0.809379 0.375419 0.906567 -0.050245
C5    C     C_R   0.646903 0.151929 0.090543 -0.209066
C6    C     C_R   0.646890 0.848065 0.090539 -0.209094
C7    C     C_R   0.146906 0.651929 0.090542 -0.209061
C8    C     C_R   0.146883 0.348063 0.090539 -0.209113
C9    C     C_R   0.549929 0.846770 0.908607 0.418759
C10   C     C_R   0.549936 0.153228 0.908609 0.418737
C11   C     C_R   0.049924 0.346769 0.908607 0.418765
C12   C     C_R   0.049938 0.653227 0.908608 0.418734
C13   C     C_R   0.431704 0.000002 0.632210 -0.005677
C14   C     C_R   0.931713 0.500001 0.632212 -0.005678
C15   C     C_R   0.824941 0.999973 0.275138 -0.010080
C16   C     C_R   0.324938 0.499978 0.275123 -0.010100
C17   C     C_R   0.613026 0.184716 0.998901 -0.053276
C18   C     C_R   0.613010 0.815277 0.998899 -0.053251
C19   C     C_R   0.113031 0.684715 0.998899 -0.053286
C20   C     C_R   0.113000 0.315274 0.998899 -0.053235
C21   C     C_3   0.081707 0.948226 0.459157 -0.393289
C22   C     C_3   0.037996 0.000382 0.570211 -0.391011
C23   C     C_3   0.537980 0.500269 0.570204 -0.390965
C24   C     C_3   0.581988 0.551363 0.458434 -0.393133
C25   C     C_3   0.977638 0.948410 0.359601 -0.395502
C26   C     C_3   0.935062 0.000123 0.472435 -0.384699
C27   C     C_3   0.435042 0.500231 0.472420 -0.384627
C28   C     C_3   0.477787 0.551300 0.359127 -0.395348
C29   C     C_3   0.082032 0.051325 0.458294 -0.392957
C30   C     C_3   0.581744 0.448279 0.459075 -0.393265
C31   C     C_3   0.103043 0.999982 0.530888 0.382409
C32   C     C_3   0.603034 0.499975 0.530905 0.382285
C33   C     C_3   0.926874 0.999962 0.363432 0.379375
C34   C     C_3   0.426870 0.499966 0.363431 0.379383
C35   C     C_R   0.404792 0.869058 0.090136 -0.122672
C36   C     C_R   0.404798 0.130947 0.090140 -0.122673
C37   C     C_R   0.904798 0.369054 0.090137 -0.122679
C38   C     C_R   0.904794 0.630944 0.090138 -0.122673
C39   C     C_3   0.977740 0.051352 0.359223 -0.395538
C40   C     C_3   0.477594 0.448361 0.359720 -0.395521
C41   C     C_R   0.166406 0.806917 0.897158 -0.194434
C42   C     C_R   0.166343 0.193038 0.897183 -0.194466
C43   C     C_R   0.666398 0.306924 0.897167 -0.194445
C44   C     C_R   0.666354 0.693047 0.897173 -0.194452
C45   C     C_R   0.618636 0.262347 0.897452 -0.115538
C46   C     C_R   0.618586 0.737625 0.897456 -0.115566
C47   C     C_R   0.118653 0.762337 0.897446 -0.115520
C48   C     C_R   0.118562 0.237610 0.897460 -0.115595
C49   C     C_R   0.640026 0.241093 0.996625 0.173449
C50   C     C_R   0.639999 0.758894 0.996630 0.173432
C51   C     C_R   0.140031 0.741090 0.996618 0.173454
C52   C     C_R   0.139988 0.258889 0.996635 0.173427
C53   C     C_R   0.701854 0.269863 0.094509 -0.168243
C54   C     C_R   0.701848 0.730133 0.094521 -0.168232
C55   C     C_R   0.201845 0.769866 0.094497 -0.168243
C56   C     C_R   0.201855 0.230136 0.094532 -0.168233
C57   C     C_R   0.253164 0.813616 0.094680 -0.171101
C58   C     C_R   0.253193 0.186394 0.094720 -0.171079
C59   C     C_R   0.753179 0.313608 0.094692 -0.171096
C60   C     C_R   0.753179 0.686387 0.094707 -0.171084
C61   C     C_R   0.241124 0.828668 0.996640 0.147612
C62   C     C_R   0.241121 0.171324 0.996669 0.147643
C63   C     C_R   0.741131 0.328665 0.996650 0.147622
C64   C     C_R   0.741116 0.671322 0.996659 0.147631
C65   C     C_R   0.393281 0.950281 0.468091 -0.169758
C66   C     C_R   0.393296 0.049731 0.468103 -0.169768
C67   C     C_R   0.893288 0.450277 0.468097 -0.169746
C68   C     C_R   0.893287 0.549727 0.468099 -0.169767
C69   C     C_R   0.409457 0.950266 0.388027 -0.166731
C70   C     C_R   0.409472 0.049744 0.388039 -0.166729
C71   C     C_R   0.909462 0.450263 0.388031 -0.166730
C72   C     C_R   0.909463 0.549741 0.388034 -0.166723
C73   C     C_R   0.429052 0.000004 0.358132 0.146480
C74   C     C_R   0.929051 0.500002 0.358131 0.146471
C75   C     C_R   0.500030 0.045492 0.270173 -0.130240
C76   C     C_R   0.500029 0.954510 0.270172 -0.130244
C77   C     C_R   0.000029 0.545492 0.270171 -0.130243
C78   C     C_R   0.000027 0.454509 0.270168 -0.130238
C79   C     C_R   0.398039 0.000005 0.518021 0.137800
C80   C     C_R   0.898041 0.500002 0.518024 0.137799
C81   C     C_R   0.245831 0.954245 0.694721 -0.141237
C82   C     C_R   0.245793 0.045749 0.694720 -0.140933
C83   C     C_R   0.745826 0.454241 0.694739 -0.141138
C84   C     C_R   0.745790 0.545745 0.694723 -0.141010
C85   C     C_R   0.314258 0.141471 0.998289 0.016192
C86   C     C_R   0.314254 0.858536 0.998279 0.016191
C87   C     C_R   0.814254 0.641467 0.998285 0.016192
C88   C     C_R   0.814261 0.358529 0.998283 0.016191
C89   C     C_R   0.474869 0.000002 0.302428 0.044794
C90   C     C_R   0.974866 0.500001 0.302425 0.044794
C91   C     C_R   0.199951 0.999993 0.631233 -0.021530
C92   C     C_R   0.699940 0.499987 0.631255 -0.021523
C93   C     C_R   0.449984 0.045429 0.696398 -0.097110
C94   C     C_R   0.449986 0.954574 0.696395 -0.097131
C95   C     C_R   0.949990 0.545428 0.696399 -0.097121
C96   C     C_R   0.949991 0.454573 0.696398 -0.097122
C97   C     C_R   0.768359 0.953797 0.248431 -0.130286
C98   C     C_R   0.768386 0.046173 0.248421 -0.130515
C99   C     C_R   0.268356 0.453800 0.248404 -0.130377
C100  C     C_R   0.268383 0.546176 0.248416 -0.130432
H1    H     H_    0.250767 0.127286 0.821555 0.090543
H2    H     H_    0.250763 0.872734 0.821548 0.090561
H3    H     H_    0.750768 0.627282 0.821551 0.090548
H4    H     H_    0.750770 0.372721 0.821551 0.090560
H5    H     H_    0.094352 0.910097 0.506632 0.152875
H6    H     H_    0.052019 0.963815 0.622404 0.159262
H7    H     H_    0.551954 0.537227 0.621465 0.159189
H8    H     H_    0.595199 0.589738 0.505417 0.152784
H9    H     H_    0.944598 0.910002 0.362108 0.150268
H10   H     H_    0.899783 0.963265 0.477437 0.160487
H11   H     H_    0.399576 0.537134 0.476946 0.160291
H12   H     H_    0.444989 0.589836 0.361608 0.150390
H13   H     H_    0.973089 0.948067 0.282197 0.162635
H14   H     H_    0.899323 0.036890 0.476932 0.160277
H15   H     H_    0.399474 0.463508 0.477373 0.160429
H16   H     H_    0.472976 0.551431 0.281553 0.162480
H17   H     H_    0.128547 0.051566 0.429561 0.163077
H18   H     H_    0.095511 0.089761 0.505232 0.152659
H19   H     H_    0.594654 0.410114 0.506509 0.152792
H20   H     H_    0.628502 0.447400 0.430709 0.162960
H21   H     H_    0.972694 0.051648 0.281509 0.162395
H22   H     H_    0.945049 0.089836 0.362111 0.150528
H23   H     H_    0.444656 0.409996 0.362620 0.150365
H24   H     H_    0.472836 0.447855 0.282183 0.162511
H25   H     H_    0.151910 0.818823 0.819197 0.117325
H26   H     H_    0.151808 0.181106 0.819215 0.117301
H27   H     H_    0.651892 0.318836 0.819204 0.117320
H28   H     H_    0.651827 0.681121 0.819205 0.117303
H29   H     H_    0.574400 0.241537 0.820214 0.177712
H30   H     H_    0.574325 0.758422 0.820208 0.177752
H31   H     H_    0.074432 0.741519 0.820214 0.177693
H32   H     H_    0.074279 0.258397 0.820205 0.177778
H33   H     H_    0.717396 0.255788 0.171997 0.114526
H34   H     H_    0.717404 0.744215 0.172012 0.114524
H35   H     H_    0.217379 0.755796 0.171984 0.114528
H36   H     H_    0.217422 0.244222 0.172025 0.114521
H37   H     H_    0.307055 0.832238 0.172259 0.109376
H38   H     H_    0.307124 0.167796 0.172308 0.109364
H39   H     H_    0.807081 0.332224 0.172274 0.109374
H40   H     H_    0.807098 0.667782 0.172292 0.109368
H41   H     H_    0.388913 0.911134 0.498857 0.121883
H42   H     H_    0.388942 0.088881 0.498877 0.121906
H43   H     H_    0.888925 0.411130 0.498866 0.121886
H44   H     H_    0.888923 0.588875 0.498870 0.121902
H45   H     H_    0.434728 0.854801 0.172067 0.090069
H46   H     H_    0.434739 0.145202 0.172074 0.090063
H47   H     H_    0.934737 0.354797 0.172069 0.090068
H48   H     H_    0.934731 0.645199 0.172070 0.090065
H49   H     H_    0.414992 0.911165 0.357984 0.106776
H50   H     H_    0.415019 0.088846 0.358009 0.106778
H51   H     H_    0.915001 0.411162 0.357991 0.106776
H52   H     H_    0.915002 0.588841 0.357997 0.106778
H53   H     H_    0.504612 0.087072 0.296617 0.088097
H54   H     H_    0.504609 0.912929 0.296613 0.088102
H55   H     H_    0.004610 0.587071 0.296615 0.088099
H56   H     H_    0.004605 0.412929 0.296607 0.088099
H57   H     H_    0.233717 0.911936 0.668435 0.119717
H58   H     H_    0.233568 0.088061 0.668449 0.119466
H59   H     H_    0.733704 0.411930 0.668466 0.119660
H60   H     H_    0.733560 0.588054 0.668430 0.119499
H61   H     H_    0.432996 0.087447 0.669546 0.157028
H62   H     H_    0.433005 0.912556 0.669540 0.157021
H63   H     H_    0.933005 0.587446 0.669546 0.157026
H64   H     H_    0.933007 0.412556 0.669543 0.157027
H65   H     H_    0.789469 0.911297 0.263695 0.096382
H66   H     H_    0.789576 0.088663 0.263723 0.096448
H67   H     H_    0.289464 0.411300 0.263631 0.096441
H68   H     H_    0.289570 0.588665 0.263742 0.096402
H69   H     H_    0.687570 0.165364 0.174987 0.116446
H70   H     H_    0.687541 0.834626 0.174981 0.116435
H71   H     H_    0.187573 0.665365 0.174986 0.116445
H72   H     H_    0.187530 0.334625 0.174980 0.116437
H73   H     H_    0.128631 0.947183 0.431004 0.162831
H74   H     H_    0.051825 0.037472 0.621117 0.159245
H75   H     H_    0.551857 0.463574 0.622038 0.159311
H76   H     H_    0.628684 0.551772 0.429972 0.163003
N1    N     N_R   0.392140 0.102630 0.941800 -0.028401
N2    N     N_R   0.392140 0.897370 0.941800 -0.028387
N3    N     N_R   0.892140 0.602630 0.941800 -0.028400
N4    N     N_R   0.892140 0.397370 0.941800 -0.028391
N5    N     N_R   0.450890 0.896450 0.057150 -0.042858
N6    N     N_R   0.450890 0.103550 0.057150 -0.042861
N7    N     N_R   0.950890 0.396450 0.057150 -0.042857
N8    N     N_R   0.950890 0.603550 0.057150 -0.042861
N9    N     N_R   0.525160 0.027960 0.206160 -0.041165
N10   N     N_R   0.525160 0.972040 0.206160 -0.041165
N11   N     N_R   0.025160 0.527960 0.206160 -0.041165
N12   N     N_R   0.025160 0.472040 0.206160 -0.041166
N13   N     N_R   0.317870 0.971120 0.792790 -0.038532
N14   N     N_R   0.317870 0.028880 0.792790 -0.038530
N15   N     N_R   0.817870 0.471120 0.792790 -0.038531
N16   N     N_R   0.817870 0.528880 0.792790 -0.038526
N17   N     N_R   0.473480 0.027920 0.793480 -0.042327
N18   N     N_R   0.473480 0.972080 0.793480 -0.042318
N19   N     N_R   0.973480 0.527920 0.793480 -0.042326
N20   N     N_R   0.973480 0.472080 0.793480 -0.042319
N21   N     N_R   0.681610 0.971120 0.207570 -0.038233
N22   N     N_R   0.681610 0.028880 0.207570 -0.038219
N23   N     N_R   0.181610 0.471120 0.207570 -0.038235
N24   N     N_R   0.181610 0.528880 0.207570 -0.038219
N25   N     N_R   0.605410 0.102620 0.056870 -0.057796
N26   N     N_R   0.605410 0.897380 0.056870 -0.057807
N27   N     N_R   0.105410 0.602620 0.056870 -0.057795
N28   N     N_R   0.105410 0.397380 0.056870 -0.057806
N29   N     N_R   0.549680 0.896430 0.944180 -0.072661
N30   N     N_R   0.549680 0.103570 0.944180 -0.072668
N31   N     N_R   0.049680 0.396430 0.944180 -0.072659
N32   N     N_R   0.049680 0.603570 0.944180 -0.072668
Ni1   Ni    Ni4+2 0.433410 0.064680 0.868830 0.268046
Ni2   Ni    Ni4+2 0.433410 0.935320 0.868830 0.268022
Ni3   Ni    Ni4+2 0.933410 0.564680 0.868830 0.268048
Ni4   Ni    Ni4+2 0.933410 0.435320 0.868830 0.268028
Ni5   Ni    Ni4+2 0.565650 0.934380 0.131170 0.209672
Ni6   Ni    Ni4+2 0.565650 0.065620 0.131170 0.209675
Ni7   Ni    Ni4+2 0.065650 0.434380 0.131170 0.209666
Ni8   Ni    Ni4+2 0.065650 0.565620 0.131170 0.209678
Cl1   Cl    Cl    0.446652 0.822114 0.787173 -0.756200
Cl2   Cl    Cl    0.446663 0.177896 0.787179 -0.756137
Cl3   Cl    Cl    0.946644 0.322117 0.787172 -0.756220
Cl4   Cl    Cl    0.946668 0.677897 0.787178 -0.756120

loop_
_geom_bond_atom_site_label_1
_geom_bond_atom_site_label_2
_ccdc_geom_bond_type
C68   C80   A    
C38   C87   A    
C13   C79   S    
C58   C62   A    
C65   C79   A    
C7    H71   S    
C63   C88   S    
C37   C88   A    
C70   H50   S    
C41   C61   A    
C67   H43   S    
C26   H14   S    
C84   H60   S    
C43   C63   A    
C54   C60   A    
C44   C64   A    
C45   H29   S    
C83   C92   A    
C21   C31   S    
N28   Ni7   S    
C10   Cl2   S    
C50   C54   A    
C39   H22   S    
C34   C40   S    
C12   N32   A    
C83   N15   A    
N14   Ni1   S    
C4    N4    A    
C28   H12   S    
C6    N26   A    
C48   C52   A    
C95   H63   S    
N13   Ni2   S    
C5    N25   A    
C82   H58   S    
C35   C86   A    
C49   C53   A    
N8    Ni8   S    
C23   H75   S    
C30   H19   S    
C2    H2    S    
C10   C17   A    
C3    H3    S    
N1    N6    A    
C54   H34   S    
N10   Ni5   S    
N3    Ni3   S    
C13   C93   A    
C38   N8    A    
N9    Ni6   S    
N2    Ni2   S    
C35   H45   S    
C2    C86   A    
N1    Ni1   S    
N4    Ni4   S    
C3    N3    A    
C7    N27   A    
C28   H16   S    
C16   C34   S    
C52   C56   A    
C1    N1    A    
C33   C39   S    
C71   H51   S    
C56   C58   A    
C72   H52   S    
N26   N29   A    
N25   N30   A    
C24   H76   S    
C69   C73   A    
C24   H8    S    
C23   C27   S    
C26   H10   S    
C64   C87   S    
C51   C55   A    
C53   C59   A    
N4    N7    A    
C25   H9    S    
C76   C89   A    
C55   H35   S    
C58   H38   S    
C27   H11   S    
N23   N24   A    
C82   N14   A    
C1    C85   A    
C75   N9    A    
C11   N31   A    
C15   C97   A    
C40   H24   S    
C57   H37   S    
C14   C96   A    
C56   H36   S    
N12   Ni7   S    
C44   C46   A    
C99   H67   S    
C27   C34   S    
N7    Ni7   S    
C6    C18   A    
C62   C85   S    
C77   C90   A    
C81   H57   S    
C22   C31   S    
C98   N22   A    
C81   N13   A    
C3    C87   A    
N15   N16   A    
C41   H25   S    
N27   Ni8   S    
C8    N28   A    
C53   H33   S    
C72   C74   A    
C22   H74   S    
C84   N16   A    
C17   C49   S    
C75   C89   A    
C16   C100  A    
C47   C51   A    
C32   C92   S    
C22   H6    S    
C29   H17   S    
C11   C20   A    
C78   C90   A    
C82   C91   A    
C96   H64   S    
C47   H31   S    
C81   C91   A    
C42   C48   A    
C24   C32   S    
N16   Ni3   S    
N19   Ni3   S    
C66   C79   A    
C97   N21   A    
N18   Ni2   S    
C65   H41   S    
C75   H53   S    
C26   C33   S    
N17   Ni1   S    
N28   N31   A    
C59   H39   S    
C68   C72   A    
C23   H7    S    
C29   C39   S    
C70   C73   A    
C45   C49   A    
C41   C47   A    
C30   C40   S    
C8    C20   A    
C37   H47   S    
C5    C17   A    
C43   C45   A    
C38   H48   S    
C98   H66   S    
C36   N6    A    
C60   H40   S    
C66   H42   S    
C25   H13   S    
C100  N24   A    
C36   H46   S    
C93   H61   S    
C7    C19   A    
C14   C80   S    
C55   C57   A    
N31   Ni4   S    
C77   N11   A    
N23   Ni7   S    
C78   N12   A    
C15   C98   A    
C43   H27   S    
N22   Ni6   S    
C1    H1    S    
C14   C95   A    
C76   N10   A    
C18   C50   S    
N3    N8    A    
C6    H70   S    
C9    Cl1   S    
N13   N14   A    
C65   C69   A    
C40   H23   S    
C21   C25   S    
N11   Ni8   S    
C44   H28   S    
C95   N19   A    
C94   N18   A    
C59   C63   A    
C93   N17   A    
C67   C80   A    
C24   C28   S    
C31   C91   S    
C46   H30   S    
C71   C74   A    
C11   Cl3   S    
C16   C99   A    
C57   C61   A    
C4    C88   A    
C42   C62   A    
C36   C85   A    
C35   N5    A    
C37   N7    A    
C84   C92   A    
C29   H18   S    
C46   C50   A    
C21   H73   S    
C39   H21   S    
C60   C64   A    
C13   C94   A    
C100  H68   S    
C69   H49   S    
C23   C32   S    
C74   C90   S    
C10   N30   A    
C73   C89   S    
N11   N12   A    
C20   C52   S    
C9    N29   A    
C77   H55   S    
C30   C32   S    
N30   Ni1   S    
C78   H56   S    
N9    N10   A    
C66   C70   A    
C30   H20   S    
N29   Ni2   S    
N32   Ni3   S    
C97   H65   S    
C4    H4    S    
C12   C19   A    
C76   H54   S    
N24   Ni8   S    
C12   Cl4   S    
C68   H44   S    
N27   N32   A    
C67   C71   A    
N26   Ni5   S    
N21   N22   A    
N15   Ni4   S    
N25   Ni6   S    
N2    N5    A    
C61   C86   S    
C42   H26   S    
C28   C34   S    
N19   N20   A    
N20   Ni4   S    
C19   C51   S    
C9    C18   A    
C96   N20   A    
N21   Ni5   S    
C83   H59   S    
C29   C31   S    
N17   N18   A    
C22   C26   S    
C99   N23   A    
N6    Ni6   S    
C5    H69   S    
C48   H32   S    
N5    Ni5   S    
C2    N2    A    
C15   C33   S    
C21   H5    S    
C94   H62   S    
C8    H72   S    
C25   C33   S    
C27   H15   S    
