data_mof_unit_2656.cif
_audit_creation_date              2012-12-10T17:24:28-0500
_audit_creation_method            fapswitch 2.2
_symmetry_space_group_name_H-M    P1
_symmetry_Int_Tables_number       1
_space_group_crystal_system       triclinic
_cell_length_a                    31.727271
_cell_length_b                    18.331021
_cell_length_c                    25.722079
_cell_angle_alpha                 89.510886
_cell_angle_beta                  144.553399
_cell_angle_gamma                 90.408127
_cell_volume                      8675.52220229

loop_
_atom_site_label
_atom_site_type_symbol
_atom_type_description
_atom_site_fract_x
_atom_site_fract_y
_atom_site_fract_z
_atom_type_partial_charge
C1    C     C_R   0.860311 0.859913 0.110236 0.482429
C2    C     C_R   0.188905 0.258639 0.299914 -0.108564
C3    C     C_R   0.761690 0.205374 0.056420 -0.001559
C4    C     C_R   0.233649 0.321234 0.001440 -0.002923
C5    C     C_R   0.765585 0.679457 0.996192 -0.002729
C6    C     C_R   0.738310 0.294626 0.943581 -0.001561
C7    C     C_R   0.259696 0.703192 0.053509 -0.001285
C8    C     C_R   0.195813 0.196178 0.945636 0.019645
C9    C     C_R   0.804229 0.803781 0.054383 0.019826
C10   C     C_R   0.803204 0.195188 0.052591 0.016995
C11   C     C_R   0.196735 0.804748 0.947473 0.017832
C12   C     C_R   0.695771 0.696219 0.945619 0.019826
C13   C     C_R   0.201059 0.765551 0.309706 -0.104211
C14   C     C_R   0.304187 0.303822 0.054364 0.019645
C15   C     C_R   0.303264 0.695252 0.052526 0.017830
C16   C     C_R   0.696796 0.304812 0.947409 0.016994
C17   C     C_R   0.989243 0.868049 0.047500 -0.094376
C18   C     C_R   0.021819 0.130883 0.964058 -0.087143
C19   C     C_R   0.478282 0.369102 0.036048 -0.087124
C20   C     C_R   0.510541 0.631965 0.952274 -0.094369
C21   C     C_R   0.985999 0.800673 0.020276 0.018852
C22   C     C_R   0.029953 0.197699 0.996448 0.023580
C23   C     C_R   0.470167 0.302283 0.003677 0.023585
C24   C     C_R   0.881942 0.328949 0.727227 -0.112661
C25   C     C_R   0.513713 0.699348 0.979423 0.018812
C26   C     C_R   0.987922 0.796771 0.968577 -0.110984
C27   C     C_R   0.023402 0.202128 0.043277 -0.109222
C28   C     C_R   0.476700 0.297856 0.956830 -0.109212
C29   C     C_R   0.511848 0.703246 0.031180 -0.110961
C30   C     C_R   0.993110 0.859981 0.943366 0.006137
C31   C     C_R   0.011193 0.139659 0.061138 0.006380
C32   C     C_R   0.488869 0.360331 0.938926 0.006364
C33   C     C_R   0.506774 0.640030 0.056509 0.006138
C34   C     C_R   0.996093 0.930601 0.970257 0.008743
C35   C     C_R   0.311113 0.241355 0.700100 -0.108560
C36   C     C_R   0.006541 0.069161 0.032519 0.008499
C37   C     C_R   0.493496 0.430832 0.967519 0.008486
C38   C     C_R   0.503837 0.569405 0.029668 0.008736
C39   C     C_R   0.994517 0.933824 0.023354 -0.019154
C40   C     C_R   0.009945 0.065763 0.981321 -0.018915
C41   C     C_R   0.490106 0.434229 0.018732 -0.018906
C42   C     C_R   0.505383 0.566183 0.976540 -0.019126
C43   C     C_R   0.001918 0.997683 0.948328 0.026922
C44   C     C_R   0.999058 0.002275 0.052742 0.027392
C45   C     C_R   0.500926 0.497724 0.947241 0.027402
C46   C     C_R   0.686248 0.762044 0.297989 -0.107394
C47   C     C_R   0.498086 0.502317 0.051675 0.026922
C48   C     C_R   0.999715 0.001758 0.108803 0.505270
C49   C     C_R   0.000398 0.998479 0.891349 0.506112
C50   C     C_R   0.499603 0.501525 0.108651 0.506116
C51   C     C_R   0.500283 0.498237 0.891194 0.505285
C52   C     C_R   0.999097 0.999931 0.390686 0.517341
C53   C     C_R   0.000490 0.000235 0.608906 0.517859
C54   C     C_R   0.499510 0.499765 0.391094 0.517862
C55   C     C_R   0.500902 0.500068 0.609313 0.517344
C56   C     C_3   0.953797 0.949052 0.437285 0.027595
C57   C     C_R   0.618054 0.171045 0.272778 -0.112658
C58   C     C_3   0.044844 0.052188 0.561445 0.029460
C59   C     C_3   0.932837 0.014408 0.450244 0.014431
C60   C     C_3   0.065979 0.987076 0.548644 0.014452
C61   C     C_3   0.455130 0.447835 0.438525 0.029448
C62   C     C_3   0.546229 0.550922 0.562743 0.027579
C63   C     C_3   0.434027 0.512956 0.451360 0.014457
C64   C     C_3   0.567157 0.485556 0.549750 0.014437
C65   C     C_3   0.021894 0.934465 0.539575 -0.131368
C66   C     C_3   0.977062 0.066697 0.459329 -0.131080
C67   C     C_3   0.522904 0.433287 0.540634 -0.131072
C68   C     C_R   0.298931 0.734426 0.690292 -0.104185
C69   C     C_3   0.478140 0.565547 0.460460 -0.131363
C70   C     C_3   0.000448 0.000548 0.551698 0.024338
C71   C     C_3   0.998410 0.000478 0.447186 0.024252
C72   C     C_3   0.501589 0.499517 0.552812 0.024251
C73   C     C_3   0.499554 0.499454 0.448303 0.024340
C74   C     C_R   0.222975 0.169219 0.565638 -0.081421
C75   C     C_R   0.775005 0.833302 0.433182 -0.080323
C76   C     C_R   0.733648 0.126001 0.419469 -0.079626
C77   C     C_R   0.205885 0.805184 0.553872 -0.088707
C78   C     C_R   0.724998 0.666690 0.566822 -0.080314
C79   C     C_R   0.826170 0.779130 0.669722 -0.109665
C80   C     C_R   0.277030 0.330782 0.434368 -0.081419
C81   C     C_R   0.294129 0.694834 0.446144 -0.088712
C82   C     C_R   0.766350 0.373995 0.580536 -0.079627
C83   C     C_R   0.260780 0.185095 0.649148 0.044147
C84   C     C_R   0.736313 0.818607 0.348960 0.046983
C85   C     C_R   0.671998 0.117943 0.326591 0.046348
C86   C     C_R   0.238868 0.779724 0.632621 0.043202
C87   C     C_R   0.763668 0.681398 0.651029 0.046985
C88   C     C_R   0.239234 0.314903 0.350865 0.044143
C89   C     C_R   0.261132 0.720275 0.367384 0.043184
C90   C     C_R   0.175159 0.218964 0.331312 -0.109261
C91   C     C_R   0.827997 0.382050 0.673414 0.046350
C92   C     C_R   0.176674 0.789515 0.333108 -0.101789
C93   C     C_R   0.139736 0.140042 0.889770 0.481271
C94   C     C_R   0.874796 0.267749 0.688662 -0.111552
C95   C     C_R   0.324851 0.281034 0.668695 -0.109258
C96   C     C_R   0.673796 0.720894 0.330260 -0.109650
C97   C     C_R   0.625202 0.232249 0.311342 -0.111548
C98   C     C_R   0.323324 0.710475 0.666896 -0.101768
C99   C     C_R   0.788518 0.765028 0.585100 0.007545
C100  C     C_R   0.212261 0.233921 0.415509 0.007666
C101  C     C_R   0.214475 0.771659 0.417632 0.009794
C102  C     C_R   0.812767 0.258427 0.594508 0.010858
C103  C     C_R   0.287742 0.266080 0.584494 0.007669
C104  C     C_R   0.139616 0.859957 0.890194 0.482191
C105  C     C_R   0.711474 0.734977 0.414899 0.007550
C106  C     C_R   0.687234 0.241573 0.405495 0.010859
C107  C     C_R   0.285530 0.728344 0.582378 0.009791
C108  C     C_R   0.234839 0.210264 0.531264 -0.003573
C109  C     C_R   0.764180 0.790956 0.468130 -0.003211
C110  C     C_R   0.742260 0.187725 0.460302 -0.002862
C111  C     C_R   0.227931 0.779153 0.526520 -0.009069
C112  C     C_R   0.735821 0.709040 0.531875 -0.003211
C113  C     C_R   0.265162 0.289738 0.468738 -0.003572
C114  C     C_R   0.272079 0.720858 0.473493 -0.009061
C115  C     C_R   0.860280 0.139941 0.109817 0.482181
C116  C     C_R   0.757740 0.312275 0.539701 -0.002863
C117  C     C_R   0.803377 0.804710 0.553662 0.016210
C118  C     C_R   0.196570 0.195335 0.446419 0.015373
C119  C     C_R   0.194463 0.802385 0.445723 0.012072
C120  C     C_R   0.804618 0.196550 0.554377 0.022215
C121  C     C_R   0.303431 0.304666 0.553583 0.015376
C122  C     C_R   0.696623 0.695287 0.446343 0.016215
C123  C     C_R   0.695384 0.303451 0.445625 0.022215
C124  C     C_R   0.305544 0.697621 0.554288 0.012072
C125  C     C_R   0.718256 0.890166 0.008158 -0.080372
C126  C     C_R   0.360263 0.359958 0.110230 0.481274
C127  C     C_R   0.283318 0.108438 0.996566 -0.080328
C128  C     C_R   0.233723 0.844936 0.896684 -0.080747
C129  C     C_R   0.770287 0.159470 0.109304 -0.081227
C130  C     C_R   0.216680 0.391564 0.003428 -0.080328
C131  C     C_R   0.781737 0.609839 0.991827 -0.080362
C132  C     C_R   0.729714 0.340530 0.890697 -0.081227
C133  C     C_R   0.266275 0.655063 0.103314 -0.080746
C134  C     C_R   0.649331 0.905959 0.958293 0.045282
C135  C     C_R   0.352989 0.091994 0.048890 0.047005
C136  C     C_R   0.277121 0.836572 0.896338 0.047209
C137  C     C_R   0.639688 0.640087 0.889764 0.482432
C138  C     C_R   0.729104 0.170243 0.112685 0.044647
C139  C     C_R   0.147007 0.408008 0.951100 0.047007
C140  C     C_R   0.850665 0.594044 0.041702 0.045298
C141  C     C_R   0.770898 0.329758 0.887318 0.044649
C142  C     C_R   0.222875 0.663425 0.103657 0.047208
C143  C     C_R   0.093230 0.354755 0.896799 -0.098880
C144  C     C_R   0.904560 0.647229 0.096133 -0.099223
C145  C     C_R   0.821061 0.273203 0.936033 -0.103978
C146  C     C_R   0.172861 0.720136 0.055466 -0.103437
C147  C     C_R   0.595445 0.852764 0.903888 -0.099233
C148  C     C_R   0.639720 0.360058 0.890183 0.482181
C149  C     C_R   0.406768 0.145246 0.103195 -0.098882
C150  C     C_R   0.327134 0.779860 0.944527 -0.103436
C151  C     C_R   0.678944 0.226799 0.063972 -0.103977
C152  C     C_R   0.108877 0.284854 0.894876 -0.104462
C153  C     C_R   0.889697 0.716431 0.100527 -0.105246
C154  C     C_R   0.830989 0.228186 0.989312 -0.109212
C155  C     C_R   0.165092 0.767483 0.005356 -0.109445
C156  C     C_R   0.610311 0.783561 0.899500 -0.105243
C157  C     C_R   0.391123 0.215146 0.105123 -0.104463
C158  C     C_R   0.334903 0.732514 0.994637 -0.109448
C159  C     C_R   0.360383 0.640043 0.109806 0.482190
C160  C     C_R   0.669015 0.271817 0.010693 -0.109214
C161  C     C_R   0.179012 0.267044 0.946539 0.009931
C162  C     C_R   0.820276 0.733594 0.051132 0.008801
C163  C     C_R   0.790916 0.238618 0.995254 0.007159
C164  C     C_R   0.207067 0.759161 0.002004 0.007063
C165  C     C_R   0.679726 0.766404 0.948878 0.008798
C166  C     C_R   0.320988 0.232956 0.053461 0.009930
C167  C     C_R   0.292931 0.740838 0.997993 0.007062
C168  C     C_R   0.709086 0.261383 0.004748 0.007159
C169  C     C_R   0.139801 0.139729 0.389732 0.483049
C170  C     C_R   0.813709 0.737984 0.701984 -0.107407
C171  C     C_R   0.860282 0.860185 0.610476 0.481491
C172  C     C_R   0.860636 0.140281 0.610781 0.481114
C173  C     C_R   0.140298 0.860531 0.391496 0.480762
C174  C     C_R   0.639719 0.639813 0.389528 0.481481
C175  C     C_R   0.360199 0.360271 0.610268 0.483046
C176  C     C_R   0.359703 0.639470 0.608506 0.480770
C177  C     C_R   0.639365 0.359720 0.389221 0.481114
C178  C     C_R   0.734413 0.820544 0.003805 -0.002729
C179  C     C_R   0.266350 0.178766 0.998558 -0.002922
C180  C     C_R   0.240303 0.796807 0.946490 -0.001285
Cl1   Cl    Cl    0.980632 0.720484 0.052427 -0.107642
Cl2   Cl    Cl    0.105365 0.120751 0.644993 -0.036243
Cl3   Cl    Cl    0.844987 0.034193 0.387145 -0.055957
Cl4   Cl    Cl    0.154600 0.972699 0.612442 -0.062321
Cl5   Cl    Cl    0.394573 0.379308 0.354933 -0.036254
Cl6   Cl    Cl    0.607216 0.619228 0.646478 -0.038067
Cl7   Cl    Cl    0.345407 0.527349 0.387562 -0.062317
Cl8   Cl    Cl    0.655000 0.465738 0.612843 -0.055949
Cl9   Cl    Cl    0.245786 0.134101 0.690954 -0.064754
Cl10  Cl    Cl    0.750258 0.871295 0.306698 -0.061246
Cl11  Cl    Cl    0.662355 0.040835 0.277517 -0.073254
Cl12  Cl    Cl    0.048767 0.276432 0.978526 -0.110701
Cl13  Cl    Cl    0.204065 0.802457 0.658755 -0.071328
Cl14  Cl    Cl    0.749718 0.628707 0.693284 -0.061244
Cl15  Cl    Cl    0.254236 0.365897 0.309069 -0.064759
Cl16  Cl    Cl    0.295932 0.697554 0.341245 -0.071330
Cl17  Cl    Cl    0.837635 0.459153 0.722488 -0.073259
Cl18  Cl    Cl    0.630783 0.992745 0.964745 -0.077047
Cl19  Cl    Cl    0.372715 0.004304 0.045766 -0.076425
Cl20  Cl    Cl    0.269181 0.898071 0.836041 -0.069835
Cl21  Cl    Cl    0.740253 0.112304 0.177915 -0.071408
Cl22  Cl    Cl    0.127277 0.495702 0.954212 -0.076424
Cl23  Cl    Cl    0.451376 0.223546 0.021622 -0.110743
Cl24  Cl    Cl    0.869206 0.507265 0.035226 -0.077045
Cl25  Cl    Cl    0.759750 0.387697 0.822090 -0.071395
Cl26  Cl    Cl    0.230814 0.601926 0.163953 -0.069833
Cl27  Cl    Cl    0.518923 0.779541 0.947107 -0.107720
Cl28  Cl    Cl    0.998401 0.842695 0.881626 -0.109897
Cl29  Cl    Cl    0.000480 0.157710 0.117043 -0.109390
Cl30  Cl    Cl    0.499528 0.342287 0.882961 -0.109402
Cl31  Cl    Cl    0.501586 0.657309 0.118357 -0.109918
Cl32  Cl    Cl    0.892848 0.880708 0.353595 -0.038056
H1    H     H_    0.040586 0.880510 0.573016 0.146950
H2    H     H_    0.434549 0.254879 0.147146 0.119979
H3    H     H_    0.373922 0.689278 0.030577 0.143807
H4    H     H_    0.629811 0.314916 0.974470 0.146666
H5    H     H_    0.027877 0.254930 0.066131 0.124252
H6    H     H_    0.986034 0.743763 0.948389 0.124693
H7    H     H_    0.513697 0.756257 0.051326 0.124697
H8    H     H_    0.472233 0.245053 0.933983 0.124263
H9    H     H_    0.988013 0.867797 0.088323 0.114468
H10   H     H_    0.026011 0.130880 0.926317 0.119318
H11   H     H_    0.474102 0.369102 0.073802 0.119286
H12   H     H_    0.958554 0.120640 0.425930 0.145108
H13   H     H_    0.511730 0.632218 0.911409 0.114409
H14   H     H_    0.159760 0.245883 0.235303 0.128432
H15   H     H_    0.843559 0.749939 0.767177 0.129449
H16   H     H_    0.929603 0.335141 0.799219 0.126637
H17   H     H_    0.173347 0.782838 0.246698 0.129407
H18   H     H_    0.656369 0.750108 0.232776 0.129462
H19   H     H_    0.340268 0.254105 0.764719 0.128440
H20   H     H_    0.326629 0.717122 0.753289 0.129438
H21   H     H_    0.570390 0.164848 0.200787 0.126656
H22   H     H_    0.185344 0.123943 0.529225 0.133886
H23   H     H_    0.541380 0.379332 0.574000 0.145112
H24   H     H_    0.812537 0.878688 0.469769 0.131329
H25   H     H_    0.774473 0.083570 0.458923 0.118804
H26   H     H_    0.162553 0.844124 0.514953 0.153831
H27   H     H_    0.687478 0.621291 0.530242 0.131305
H28   H     H_    0.314659 0.376060 0.470781 0.133885
H29   H     H_    0.337474 0.655910 0.485069 0.153856
H30   H     H_    0.725524 0.416425 0.541082 0.118799
H31   H     H_    0.865472 0.822130 0.711934 0.152093
H32   H     H_    0.135131 0.176572 0.288522 0.152452
H33   H     H_    0.127945 0.822388 0.283802 0.131852
H34   H     H_    0.459479 0.619514 0.427052 0.146953
H35   H     H_    0.918265 0.227983 0.733348 0.107157
H36   H     H_    0.364882 0.323423 0.711486 0.152448
H37   H     H_    0.634476 0.677910 0.288038 0.152066
H38   H     H_    0.581733 0.272014 0.266655 0.107159
H39   H     H_    0.372050 0.677598 0.716202 0.131853
H40   H     H_    0.958099 0.635185 0.134806 0.132194
H41   H     H_    0.039196 0.367326 0.856373 0.122870
H42   H     H_    0.139439 0.727351 0.056113 0.125883
H43   H     H_    0.852897 0.264245 0.933244 0.129879
H44   H     H_    0.460801 0.132675 0.143618 0.122870
H45   H     H_    0.065452 0.245120 0.852856 0.119975
H46   H     H_    0.541909 0.864804 0.865224 0.132219
H47   H     H_    0.647109 0.235759 0.066764 0.129876
H48   H     H_    0.360554 0.772643 0.943877 0.125867
H49   H     H_    0.758764 0.932874 0.050495 0.125125
H50   H     H_    0.242923 0.065645 0.954235 0.126404
H51   H     H_    0.195913 0.890124 0.858795 0.122481
H52   H     H_    0.808047 0.114254 0.147466 0.124882
H53   H     H_    0.257074 0.434358 0.045756 0.126407
H54   H     H_    0.741223 0.567139 0.949473 0.125110
H55   H     H_    0.691953 0.385746 0.852533 0.124885
H56   H     H_    0.933125 0.756184 0.142658 0.123773
H57   H     H_    0.304086 0.609876 0.141204 0.122484
H58   H     H_    0.870196 0.185089 0.025538 0.146662
H59   H     H_    0.126071 0.810717 0.969414 0.143803
H60   H     H_    0.566890 0.743800 0.857385 0.123765
O1    O     O_3   0.999990 0.000000 0.249990 -0.448786
O2    O     O_R   0.585440 0.646160 0.804690 -0.538485
O3    O     O_R   0.585440 0.353840 0.804690 -0.536883
O4    O     O_R   0.414560 0.646160 0.195310 -0.535692
O5    O     O_R   0.085440 0.146150 0.366190 -0.538268
O6    O     O_R   0.914560 0.853850 0.633810 -0.537737
O7    O     O_R   0.914560 0.146150 0.633810 -0.541343
O8    O     O_R   0.085440 0.853850 0.366190 -0.556241
O9    O     O_R   0.585440 0.646150 0.366190 -0.537738
O10   O     O_R   0.414560 0.353850 0.633810 -0.538270
O11   O     O_R   0.414560 0.646150 0.633810 -0.556247
O12   O     O_3   0.000010 0.000000 0.750010 -0.451307
O13   O     O_R   0.585440 0.353850 0.366190 -0.541346
O14   O     O_R   0.853820 0.085430 0.073070 -0.544209
O15   O     O_R   0.146180 0.914570 0.926930 -0.543440
O16   O     O_R   0.146180 0.085430 0.926930 -0.541836
O17   O     O_R   0.853820 0.914570 0.073070 -0.540196
O18   O     O_R   0.353820 0.585430 0.073070 -0.543444
O19   O     O_R   0.646180 0.414570 0.926930 -0.544211
O20   O     O_R   0.646180 0.585430 0.926930 -0.540186
O21   O     O_R   0.353820 0.414570 0.073070 -0.541831
O22   O     O_R   0.146150 0.914540 0.365390 -0.538593
O23   O     O_3   0.499990 0.500000 0.249990 -0.451310
O24   O     O_R   0.853850 0.085460 0.634610 -0.535820
O25   O     O_R   0.853850 0.914540 0.634610 -0.544058
O26   O     O_R   0.146150 0.085460 0.365390 -0.542186
O27   O     O_R   0.646150 0.414540 0.365390 -0.535819
O28   O     O_R   0.353850 0.585460 0.634610 -0.538600
O29   O     O_R   0.353850 0.414540 0.634610 -0.542186
O30   O     O_R   0.646150 0.585460 0.365390 -0.544044
O31   O     O_R   0.939240 0.000000 0.071950 -0.537293
O32   O     O_R   0.060760 0.000000 0.928050 -0.540513
O33   O     O_R   0.439240 0.500000 0.071950 -0.540495
O34   O     O_3   0.500010 0.500000 0.750010 -0.448787
O35   O     O_R   0.560760 0.500000 0.928050 -0.537263
O36   O     O_R   0.000020 0.939290 0.367320 -0.532613
O37   O     O_R   0.999980 0.060710 0.632680 -0.527337
O38   O     O_R   0.999980 0.939290 0.632680 -0.546254
O39   O     O_R   0.000020 0.060710 0.367320 -0.546156
O40   O     O_R   0.500020 0.439290 0.367320 -0.527336
O41   O     O_R   0.499980 0.560710 0.632680 -0.532614
O42   O     O_R   0.499980 0.439290 0.632680 -0.546160
O43   O     O_R   0.500020 0.560710 0.367320 -0.546256
O44   O     O_R   0.060680 0.000000 0.193390 -0.542733
O45   O     O_R   0.914560 0.853840 0.195310 -0.538491
O46   O     O_R   0.939320 0.000000 0.806610 -0.535032
O47   O     O_R   0.560680 0.500000 0.193390 -0.535035
O48   O     O_R   0.439320 0.500000 0.806610 -0.542761
O49   O     O_R   0.085440 0.146160 0.804690 -0.540031
O50   O     O_R   0.085440 0.853840 0.804690 -0.535693
O51   O     O_R   0.914560 0.146160 0.195310 -0.536884
O52   O     O_R   0.414560 0.353840 0.195310 -0.540031
Zn1   Zn    Zn3+2 0.000000 0.086750 0.293940 0.939191
Zn2   Zn    Zn3+2 0.086780 0.000000 0.880710 0.933344
Zn3   Zn    Zn3+2 0.413220 0.500000 0.119290 0.933352
Zn4   Zn    Zn3+2 0.586780 0.500000 0.880710 0.935442
Zn5   Zn    Zn3+2 0.086730 0.000000 0.292800 0.932231
Zn6   Zn    Zn3+2 0.913270 0.000000 0.707200 0.936295
Zn7   Zn    Zn3+2 0.586730 0.500000 0.292800 0.936298
Zn8   Zn    Zn3+2 0.413270 0.500000 0.707200 0.932221
Zn9   Zn    Zn3+2 1.000000 0.913250 0.706060 0.939119
Zn10  Zn    Zn3+2 1.000000 0.086750 0.706060 0.940628
Zn11  Zn    Zn3+2 1.000000 0.913250 0.293940 0.933553
Zn12  Zn    Zn3+2 0.500000 0.586750 0.293940 0.939115
Zn13  Zn    Zn3+2 0.500000 0.413250 0.706060 0.939188
Zn14  Zn    Zn3+2 0.500000 0.586750 0.706060 0.933556
Zn15  Zn    Zn3+2 0.500000 0.413250 0.293940 0.940627
Zn16  Zn    Zn3+2 0.913220 0.000000 0.119290 0.935424

loop_
_geom_bond_atom_site_label_1
_geom_bond_atom_site_label_2
_ccdc_geom_bond_type
C60   Cl4   S    
C21   C26   A    
C26   H6    S    
O9    Zn12  S    
C142  C146  A    
C74   C83   A    
O12   Zn6   S    
C149  H44   S    
C2    H14   S    
C78   H27   S    
O29   Zn8   S    
C79   C99   A    
C176  O11   A    
O13   Zn15  S    
C86   Cl13  S    
C135  Cl19  S    
C98   H39   S    
C58   C60   S    
C29   C33   A    
O44   Zn5   S    
C82   H30   S    
C17   C39   A    
C2    C90   A    
C18   C40   A    
C62   C64   S    
C131  C140  A    
C40   C43   A    
C1    O45   A    
C174  O30   A    
C128  C180  A    
C53   O37   A    
C74   H22   S    
C94   H35   S    
C141  C145  A    
C7    C15   A    
C167  C180  A    
C28   H8    S    
C146  H42   S    
C107  C124  A    
C126  O52   A    
C158  C167  A    
C25   C29   A    
C27   C31   A    
C28   C32   A    
C5    C12   A    
C6    C132  A    
O42   Zn13  S    
C30   C34   A    
C58   C70   S    
C4    C130  A    
C148  O19   A    
C17   C21   A    
C82   C91   A    
C76   H25   S    
C42   C45   A    
C19   C23   A    
C65   H1    S    
C31   Cl29  S    
C57   C97   A    
O48   Zn8   S    
C1    O17   A    
C46   C84   A    
O19   Zn4   S    
C22   C27   A    
C77   H26   S    
C36   C44   A    
O35   Zn4   S    
C37   C45   A    
C103  C121  A    
C50   O33   A    
O34   Zn14  S    
C174  O9    A    
C3    C129  A    
C49   O32   A    
C120  C172  S    
C8    C93   S    
C93   O16   A    
C20   C42   A    
C7    C133  A    
C138  C151  A    
C85   Cl11  S    
C33   C38   A    
C14   C126  S    
C56   C59   S    
C147  H46   S    
C80   C88   A    
C89   Cl16  S    
C177  O13   A    
C121  C175  S    
C57   C85   A    
C160  C168  A    
O14   Zn16  S    
O17   Zn16  S    
C68   C98   A    
C136  Cl20  S    
C17   H9    S    
C6    C16   A    
C46   C96   A    
C6    C163  A    
C94   C102  A    
C31   C36   A    
C154  H58   S    
C76   C85   A    
C93   O49   A    
C44   C48   S    
O22   Zn5   S    
C78   C87   A    
C116  C123  A    
C90   H32   S    
C151  H47   S    
C133  C142  A    
C79   C170  A    
C169  O5    A    
C140  Cl24  S    
C75   C84   A    
C65   C70   S    
O1    Zn11  S    
C111  C119  A    
C67   C72   S    
C128  H51   S    
C104  O50   A    
O25   Zn6   S    
C130  H53   S    
C139  C143  A    
C152  H45   S    
O15   Zn2   S    
C63   C69   S    
O24   Zn6   S    
C81   C114  A    
C64   C73   S    
C14   C166  A    
C129  H52   S    
O12   Zn10  S    
C152  C161  A    
C62   Cl6   S    
C173  O8    A    
C142  Cl26  S    
C4    C14   A    
C15   C167  A    
C95   C103  A    
C47   C50   S    
C146  C155  A    
C34   C39   A    
C153  H56   S    
C55   O42   A    
C12   C165  A    
C118  C169  S    
C122  C174  S    
C74   C108  A    
O51   Zn1   S    
C137  O20   A    
C99   C117  A    
C61   C67   S    
C61   Cl5   S    
C41   C47   A    
C75   H24   S    
C32   C37   A    
C59   Cl3   S    
C64   Cl8   S    
C145  C154  A    
C26   C30   A    
C63   Cl7   S    
O21   Zn3   S    
O40   Zn15  S    
C132  C141  A    
O50   Zn9   S    
C105  C109  A    
C18   C22   A    
C107  C111  A    
C34   C43   A    
O32   Zn2   S    
C139  Cl22  S    
C39   C44   A    
C124  C176  S    
C127  H50   S    
C127  C179  A    
O23   Zn12  S    
C159  O18   A    
C132  H55   S    
C105  C122  A    
C48   O44   A    
C37   C41   A    
C54   O40   A    
C172  O7    A    
C113  C121  A    
C80   C113  A    
O33   Zn3   S    
C125  H49   S    
C125  C178  A    
O23   Zn3   S    
O18   Zn3   S    
C68   H20   S    
C125  C134  A    
C96   C105  A    
C10   C163  A    
C123  C177  S    
C48   O31   A    
C109  C117  A    
C134  C147  A    
C157  H2    S    
C175  O29   A    
C159  O4    A    
C96   H37   S    
C127  C135  A    
C128  C136  A    
C20   C25   A    
C130  C139  A    
C160  H4    S    
C137  O2    A    
C81   H29   S    
C77   C111  A    
O34   Zn4   S    
C51   O48   A    
C69   C73   S    
C11   C104  S    
C175  O10   A    
O23   Zn7   S    
C169  O26   A    
O38   Zn9   S    
C81   C89   A    
C52   O36   A    
C170  H15   S    
C101  C114  A    
C46   H18   S    
C88   Cl15  S    
C53   C70   S    
O30   Zn7   S    
O27   Zn7   S    
C1    C9    S    
O6    Zn9   S    
C35   C83   A    
O16   Zn2   S    
C60   C71   S    
C61   C73   S    
C98   C107  A    
C62   C69   S    
O5    Zn1   S    
C15   C159  S    
O34   Zn8   S    
C54   C73   S    
C32   Cl30  S    
C117  C171  S    
C136  C150  A    
C66   C71   S    
C56   C71   S    
C30   Cl28  S    
C19   H11   S    
C53   O38   A    
C147  C156  A    
O39   Zn1   S    
C171  O6    A    
C92   C101  A    
C97   C106  A    
C143  C152  A    
C27   H5    S    
O10   Zn13  S    
C13   C92   A    
C100  C118  A    
C102  C120  A    
C172  O24   A    
O26   Zn5   S    
C115  O51   A    
C150  C158  A    
C176  O28   A    
O52   Zn15  S    
C83   Cl9   S    
C140  C144  A    
O43   Zn12  S    
C155  H59   S    
C92   H33   S    
C56   Cl32  S    
C97   H38   S    
C156  H60   S    
C35   C95   A    
C7    C164  A    
C153  C162  A    
C58   Cl2   S    
C5    C162  A    
O37   Zn10  S    
C82   C116  A    
C52   C71   S    
C119  C173  S    
C50   O47   A    
C8    C179  A    
C80   H28   S    
O47   Zn7   S    
C156  C165  A    
O2    Zn14  S    
C35   H19   S    
C4    C161  A    
C18   H10   S    
C59   C70   S    
C13   H17   S    
C69   H34   S    
C5    C131  A    
C63   C72   S    
C76   C110  A    
C177  O27   A    
O41   Zn14  S    
C145  H43   S    
C78   C112  A    
C11   C180  A    
C25   Cl27  S    
C149  C157  A    
C9    C178  A    
C19   C41   A    
O34   Zn13  S    
C59   C66   S    
O1    Zn1   S    
C68   C86   A    
C171  O25   A    
C131  H54   S    
C21   Cl1   S    
C67   H23   S    
C16   C168  A    
C38   C42   A    
C8    C161  A    
C55   O41   A    
C138  Cl21  S    
C45   C51   S    
C115  O14   A    
C56   C65   S    
C144  C153  A    
O28   Zn8   S    
C49   O46   A    
C150  H48   S    
C58   C66   S    
C129  C138  A    
C106  C123  A    
C2    C88   A    
C103  C108  A    
O36   Zn11  S    
C55   C72   S    
O4    Zn12  S    
C114  C124  A    
C144  H40   S    
O1    Zn5   S    
C165  C178  A    
C79   H31   S    
C90   C100  A    
C3    C168  A    
C141  Cl25  S    
C75   C109  A    
C101  C119  A    
C64   C67   S    
C108  C118  A    
C154  C163  A    
C36   C40   A    
C66   H12   S    
C110  C120  A    
C43   C49   S    
C158  H3    S    
C135  C149  A    
C87   C170  A    
C20   H13   S    
C23   Cl23  S    
C112  C122  A    
C24   C94   A    
C95   H36   S    
O8    Zn11  S    
C133  H57   S    
C61   C63   S    
C148  O3    A    
C62   C72   S    
O31   Zn16  S    
C84   Cl10  S    
O12   Zn9   S    
C38   C47   A    
C51   O35   A    
C77   C86   A    
C143  H41   S    
C23   C28   A    
C22   Cl12  S    
C24   C91   A    
C106  C110  A    
C134  Cl18  S    
O49   Zn10  S    
C13   C89   A    
O11   Zn14  S    
O12   Zn2   S    
C100  C113  A    
C87   Cl14  S    
C157  C166  A    
C60   C65   S    
C57   H21   S    
C155  C164  A    
C173  O22   A    
C52   O39   A    
C16   C148  S    
O1    Zn16  S    
C151  C160  A    
C126  O21   A    
O23   Zn15  S    
C3    C10   A    
O3    Zn13  S    
C33   Cl31  S    
O45   Zn11  S    
C99   C112  A    
C11   C164  A    
C54   O43   A    
O7    Zn10  S    
C9    C162  A    
C102  C116  A    
C104  O15   A    
C91   Cl17  S    
C29   H7    S    
C12   C137  S    
O46   Zn6   S    
C166  C179  A    
C24   H16   S    
C10   C115  S    
O20   Zn4   S    
