data_mof_unit_549.cif
_audit_creation_date              2012-12-11T14:02:45-0500
_audit_creation_method            fapswitch 2.2
_symmetry_space_group_name_H-M    P1
_symmetry_Int_Tables_number       1
_space_group_crystal_system       triclinic
_cell_length_a                    7.152469
_cell_length_b                    11.706684
_cell_length_c                    12.953365
_cell_angle_alpha                 90.000016
_cell_angle_beta                  90.000022
_cell_angle_gamma                 90.0
_cell_volume                      1084.60719967

loop_
_atom_site_label
_atom_site_type_symbol
_atom_type_description
_atom_site_fract_x
_atom_site_fract_y
_atom_site_fract_z
_atom_type_partial_charge
O1    O     O_R   0.563540 0.856420 0.141290 -0.563742
O2    O     O_R   0.436460 0.143580 0.858710 -0.563742
O3    O     O_R   0.436460 0.143580 0.641290 -0.563742
O4    O     O_R   0.563540 0.856420 0.358710 -0.563742
O5    O     O_R   0.063540 0.643580 0.358710 -0.563742
O6    O     O_R   0.936460 0.356420 0.641290 -0.563742
O7    O     O_R   0.936460 0.356420 0.858710 -0.563742
O8    O     O_R   0.063540 0.643580 0.141290 -0.563742
O9    O     O_R   0.233730 0.870400 0.357990 -0.528676
O10   O     O_R   0.766270 0.129600 0.642010 -0.528675
O11   O     O_R   0.766270 0.129600 0.857990 -0.528675
O12   O     O_R   0.233730 0.870400 0.142010 -0.528675
O13   O     O_R   0.733730 0.629600 0.142010 -0.528675
O14   O     O_R   0.266270 0.370400 0.857990 -0.528675
O15   O     O_R   0.266270 0.370400 0.642010 -0.528675
O16   O     O_R   0.733730 0.629600 0.357990 -0.528675
C1    C     C_R   0.404401 0.898548 0.391557 0.760245
C2    C     C_R   0.595599 0.101451 0.608443 0.760245
C3    C     C_R   0.595599 0.101451 0.891557 0.760245
C4    C     C_R   0.404401 0.898548 0.108443 0.760245
C5    C     C_R   0.904401 0.601451 0.108443 0.760245
C6    C     C_R   0.095599 0.398549 0.891557 0.760245
C7    C     C_R   0.095599 0.398548 0.608443 0.760245
C8    C     C_R   0.904401 0.601451 0.391557 0.760245
O17   O     O_3   0.396920 0.675570 0.250000 -0.396183
O18   O     O_3   0.603080 0.324430 0.750000 -0.396183
O19   O     O_3   0.896920 0.824430 0.250000 -0.396183
O20   O     O_3   0.103080 0.175570 0.750000 -0.396183
V1    V     V_3+5 0.122110 0.763800 0.250000 1.502630
V2    V     V_3+5 0.877890 0.236200 0.750000 1.502630
V3    V     V_3+5 0.622110 0.736200 0.250000 1.502630
V4    V     V_3+5 0.377890 0.263800 0.750000 1.502630
C9    C     C_2   0.918700 0.511023 0.472303 -0.231573
C10   C     C_2   0.081300 0.488977 0.527697 -0.231573
C11   C     C_2   0.081300 0.488977 0.972303 -0.231573
C12   C     C_2   0.918700 0.511023 0.027697 -0.231573
C13   C     C_2   0.418700 0.988977 0.027697 -0.231573
C14   C     C_2   0.581300 0.011023 0.972303 -0.231573
C15   C     C_2   0.581300 0.011023 0.527697 -0.231573
C16   C     C_2   0.418700 0.988977 0.472303 -0.231573
C17   C     C_2   0.742799 0.445904 0.488843 0.430351
H1    H     H_    0.673938 0.446464 0.563418 0.094965
O21   O     O_2   0.670076 0.394514 0.417329 -0.514794
C18   C     C_2   0.257201 0.554095 0.511157 0.430351
H2    H     H_    0.326062 0.553536 0.436582 0.094965
O22   O     O_2   0.329924 0.605485 0.582671 -0.514794
C19   C     C_2   0.257201 0.554095 0.988843 0.430351
H3    H     H_    0.326062 0.553536 0.063418 0.094965
O23   O     O_2   0.329924 0.605486 0.917329 -0.514794
C20   C     C_2   0.742799 0.445904 0.011156 0.430351
H4    H     H_    0.673938 0.446464 0.936582 0.094965
O24   O     O_2   0.670076 0.394514 0.082671 -0.514794
C21   C     C_2   0.242799 0.054096 0.011157 0.430351
H5    H     H_    0.173938 0.053536 0.936582 0.094965
O25   O     O_2   0.170077 0.105486 0.082671 -0.514794
C22   C     C_2   0.757201 0.945904 0.988843 0.430351
H6    H     H_    0.826062 0.946463 0.063418 0.094965
O26   O     O_2   0.829924 0.894514 0.917328 -0.514794
C23   C     C_2   0.757201 0.945904 0.511157 0.430351
H7    H     H_    0.826062 0.946464 0.436582 0.094965
O27   O     O_2   0.829923 0.894514 0.582671 -0.514794
C24   C     C_2   0.242799 0.054096 0.488843 0.430351
H8    H     H_    0.173938 0.053536 0.563418 0.094965
O28   O     O_2   0.170077 0.105486 0.417329 -0.514794

loop_
_geom_bond_atom_site_label_1
_geom_bond_atom_site_label_2
_ccdc_geom_bond_type
O17   V3    S    
C20   O24   D    
C2    C15   S    
O18   V4    S    
C13   C14   D    
C6    C11   S    
C3    C14   S    
O12   V1    S    
O19   V1    S    
O7    C6    A    
C17   H1    S    
O10   V2    S    
O6    C7    A    
C8    C9    S    
O9    V1    S    
C7    C10   S    
C15   C23   S    
O12   C4    A    
O15   C7    A    
C20   H4    S    
C12   C20   S    
C16   C24   S    
C13   C21   S    
C23   H7    S    
C19   O23   D    
O7    V2    S    
C21   H5    S    
C22   H6    S    
O16   V3    S    
O14   C6    A    
C4    C13   S    
C17   O21   D    
O11   C3    A    
C24   H8    S    
O5    C8    A    
O10   C2    A    
O8    V1    S    
O9    C1    A    
O6    V2    S    
C18   O22   D    
C9    C10   D    
C9    C17   S    
O5    V1    S    
C21   O25   D    
O1    V3    S    
O3    V4    S    
O16   C8    A    
C23   O27   D    
O4    V3    S    
O4    C1    A    
O13   C5    A    
O15   V4    S    
C14   C22   S    
C18   H2    S    
O3    C2    A    
O2    V4    S    
O14   V4    S    
C15   C16   D    
C5    C12   S    
C10   C18   S    
O1    C4    A    
C24   O28   D    
O2    C3    A    
C1    C16   S    
O13   V3    S    
C11   C19   S    
C19   H3    S    
O11   V2    S    
C22   O26   D    
O20   V2    S    
C11   C12   D    
O8    C5    A    
