data_mof_unit_3998.cif
_audit_creation_date              2012-12-11T14:46:23-0500
_audit_creation_method            fapswitch 2.2
_symmetry_space_group_name_H-M    P1
_symmetry_Int_Tables_number       1
_space_group_crystal_system       triclinic
_cell_length_a                    17.437785
_cell_length_b                    17.530347
_cell_length_c                    6.933782
_cell_angle_alpha                 88.772079
_cell_angle_beta                  90.566037
_cell_angle_gamma                 90.009478
_cell_volume                      2119.00058854

loop_
_atom_site_label
_atom_site_type_symbol
_atom_type_description
_atom_site_fract_x
_atom_site_fract_y
_atom_site_fract_z
_atom_type_partial_charge
O1    O     O_R   0.796490 0.328940 0.373020 -0.543648
O2    O     O_R   0.203510 0.671060 0.626980 -0.543651
O3    O     O_R   0.203510 0.828940 0.626980 -0.525039
O4    O     O_R   0.796490 0.171060 0.373020 -0.525073
O5    O     O_R   0.805560 0.173330 0.702970 -0.539513
O6    O     O_R   0.194440 0.826670 0.297030 -0.539520
O7    O     O_R   0.194440 0.673330 0.297030 -0.522920
O8    O     O_R   0.805560 0.326670 0.702970 -0.522916
O9    O     O_R   0.658440 0.172360 0.870170 -0.541035
O10   O     O_R   0.341560 0.827640 0.129830 -0.541030
O11   O     O_R   0.341560 0.672360 0.129830 -0.533401
O12   O     O_R   0.658440 0.327640 0.870170 -0.533397
C1    C     C_R   0.822741 0.144708 0.538294 0.690563
C2    C     C_R   0.177253 0.855288 0.461706 0.690604
C3    C     C_R   0.177984 0.644248 0.467100 0.692693
C4    C     C_R   0.822015 0.355752 0.532900 0.692707
O13   O     O_3   0.679200 0.250000 0.537050 -0.374726
O14   O     O_3   0.320800 0.750000 0.462950 -0.374732
V1    V     V_3+5 0.736420 0.250000 0.813120 1.492084
V2    V     V_3+5 0.263580 0.750000 0.186880 1.492140
O15   O     O_R   0.649370 0.327980 0.199650 -0.544404
O16   O     O_R   0.350630 0.672020 0.800350 -0.544407
O17   O     O_R   0.350630 0.827980 0.800350 -0.536609
O18   O     O_R   0.649370 0.172020 0.199650 -0.536616
C5    C     C_R   0.630627 0.354383 0.028750 0.736528
C6    C     C_R   0.369373 0.645617 0.971250 0.736528
C7    C     C_R   0.369451 0.854446 0.968955 0.724434
C8    C     C_R   0.630549 0.145554 0.031045 0.724408
H1    H     H_    0.939664 0.126935 0.304002 0.141424
H2    H     H_    0.060347 0.873084 0.696074 0.141403
H3    H     H_    0.046141 0.626256 0.279443 0.137582
H4    H     H_    0.953856 0.373748 0.720563 0.137563
V3    V     V_3+5 0.718510 0.250000 0.312740 1.472446
V4    V     V_3+5 0.281490 0.750000 0.687260 1.472519
O19   O     O_3   0.775740 0.250000 0.038930 -0.358506
O20   O     O_3   0.224260 0.750000 0.961070 -0.358493
C9    C     C_1   0.574078 0.083149 0.020275 -0.177924
C10   C     C_1   0.425923 0.916850 0.979725 -0.177966
C11   C     C_1   0.425745 0.583213 0.985035 -0.167641
C12   C     C_1   0.574255 0.416786 0.014965 -0.167648
C13   C     C_1   0.527433 0.030874 0.007927 0.026358
C14   C     C_1   0.472567 0.969126 0.992073 0.026345
C15   C     C_1   0.472488 0.530892 0.994673 0.030872
C16   C     C_1   0.527512 0.469108 0.005327 0.030872
C17   C     C_R   0.879300 0.080728 0.544070 -0.138666
C18   C     C_R   0.120687 0.919261 0.455916 -0.138604
C19   C     C_R   0.123414 0.579031 0.488500 -0.140924
C20   C     C_R   0.876583 0.420971 0.511501 -0.140929
C21   C     C_R   0.061522 0.030422 0.291153 0.013220
C22   C     C_R   0.938432 0.969532 0.708725 0.013371
C23   C     C_R   0.923959 0.531236 0.321990 -0.006542
C24   C     C_R   0.076035 0.468771 0.678022 -0.006560
C25   C     C_R   0.122170 0.976377 0.307746 -0.062602
C26   C     C_R   0.877782 0.023577 0.692144 -0.062452
C27   C     C_R   0.864408 0.478570 0.367151 -0.079129
C28   C     C_R   0.135587 0.521434 0.632856 -0.079126
C29   C     C_R   0.060555 0.918427 0.587857 -0.133292
C30   C     C_R   0.939438 0.081570 0.412149 -0.133427
C31   C     C_R   0.945781 0.419376 0.614789 -0.153610
C32   C     C_R   0.054216 0.580628 0.385215 -0.153584
C33   C     C_R   0.000005 0.972053 0.575601 0.059561
C34   C     C_R   0.999969 0.027925 0.424342 0.059723
C35   C     C_R   0.005262 0.472206 0.574954 0.055657
C36   C     C_R   0.994733 0.527798 0.425052 0.055666
C37   C     C_2   0.064006 0.090691 0.137353 0.814373
O21   O     O_2   0.014166 0.093428 0.012077 -0.546327
O22   O     O_R   0.124105 0.143461 0.135117 -0.646095
H5    H     H_    0.119766 0.181489 0.023289 0.322429
C38   C     C_2   0.935908 0.909200 0.862342 0.814607
O23   O     O_2   0.985625 0.906509 0.987933 -0.546211
O24   O     O_R   0.875919 0.856307 0.864027 -0.646052
H6    H     H_    0.880231 0.818232 0.975757 0.322442
C39   C     C_2   0.912097 0.590056 0.167292 0.828826
O25   O     O_2   0.863198 0.639313 0.185282 -0.539587
O26   O     O_R   0.956877 0.588567 0.001213 -0.646556
H7    H     H_    0.943493 0.631263 0.905843 0.301347
C40   C     C_2   0.087892 0.409958 0.832740 0.828803
O27   O     O_2   0.136784 0.360695 0.814763 -0.539635
O28   O     O_R   0.043116 0.411465 0.998824 -0.646547
H8    H     H_    0.056499 0.368775 0.094215 0.301355
C41   C     C_2   0.811889 0.020717 0.827633 0.463139
H9    H     H_    0.754826 0.035973 0.776200 0.014538
O29   O     O_2   0.820912 0.004167 0.998318 -0.514387
C42   C     C_2   0.188016 0.979191 0.172117 0.463381
H10   H     H_    0.245119 0.964093 0.223571 0.014445
O30   O     O_2   0.178902 0.995510 0.001326 -0.514455
C43   C     C_2   0.211315 0.517165 0.734708 0.450839
H11   H     H_    0.263182 0.532619 0.657908 0.023126
O31   O     O_2   0.216410 0.499540 0.905677 -0.519406
C44   C     C_2   0.788679 0.482838 0.265303 0.450863
H12   H     H_    0.736814 0.467372 0.342096 0.023135
O32   O     O_2   0.783582 0.500476 0.094342 -0.519397

loop_
_geom_bond_atom_site_label_1
_geom_bond_atom_site_label_2
_ccdc_geom_bond_type
O10   C7    A    
C30   C34   A    
C20   C27   A    
C43   H11   S    
C13   C14   S    
C3    C19   S    
C15   C16   S    
C4    C20   S    
C41   H9    S    
O1    V3    S    
C2    C18   S    
C40   O27   D    
C22   C26   A    
C21   C37   S    
C25   C42   S    
C22   C38   S    
C42   O30   D    
C10   C14   T    
C27   C44   S    
C5    C12   S    
C6    C11   S    
O15   V3    S    
C7    C10   S    
H2    C29   S    
C18   C25   A    
C39   O25   D    
O4    C1    A    
C38   O24   S    
O13   V1    S    
C19   C32   A    
O9    V1    S    
O10   V2    S    
C37   O22   S    
O17   C7    A    
C23   C27   A    
O2    V4    S    
O7    C3    A    
O8    C4    A    
C39   O26   S    
C38   O23   D    
O13   V3    S    
C41   O29   D    
C40   O28   S    
O16   V4    S    
C17   C30   A    
O8    V1    S    
O22   H5    S    
O18   C8    A    
C42   H10   S    
C28   C43   S    
C11   C15   T    
O3    V4    S    
O11   V2    S    
C35   C36   A    
H3    C32   S    
O26   H7    S    
O6    C2    A    
C44   O32   D    
O17   V4    S    
O1    C4    A    
O2    C3    A    
O14   V4    S    
O3    C2    A    
C17   C26   A    
O7    V2    S    
C43   O31   D    
C18   C29   A    
C24   C40   S    
C20   C31   A    
O15   C5    A    
O4    V3    S    
C21   C34   A    
O5    C1    A    
C23   C36   A    
C23   C39   S    
C24   C35   A    
C29   C33   A    
O5    V1    S    
O6    V2    S    
C31   C35   A    
O18   V3    S    
O11   C6    A    
O12   C5    A    
C32   C36   A    
O24   H6    S    
V1    O19   S    
C1    C17   S    
C44   H12   S    
C8    C9    S    
C21   C25   A    
O12   V1    S    
V3    O19   S    
V4    O20   S    
O14   V2    S    
C9    C13   T    
C33   C34   A    
O28   H8    S    
V2    O20   S    
C12   C16   T    
H1    C30   S    
C37   O21   D    
O16   C6    A    
C22   C33   A    
H4    C31   S    
C26   C41   S    
C24   C28   A    
O9    C8    A    
C19   C28   A    
