data_mof_unit_745.cif
_audit_creation_date              2012-12-11T15:55:09-0500
_audit_creation_method            fapswitch 2.2
_symmetry_space_group_name_H-M    P1
_symmetry_Int_Tables_number       1
_space_group_crystal_system       triclinic
_cell_length_a                    8.275405
_cell_length_b                    18.894858
_cell_length_c                    19.002287
_cell_angle_alpha                 99.12106
_cell_angle_beta                  94.815508
_cell_angle_gamma                 91.277597
_cell_volume                      2921.40732786

loop_
_atom_site_label
_atom_site_type_symbol
_atom_type_description
_atom_site_fract_x
_atom_site_fract_y
_atom_site_fract_z
_atom_type_partial_charge
Ba1   Ba    Ba6+2 0.152460 0.535140 0.468980 1.685861
Ba2   Ba    Ba6+2 0.657710 0.464850 0.530960 1.718556
C1    C     C_3   0.379275 0.720921 0.218021 -0.219465
C2    C     C_3   0.438382 0.727581 0.297108 0.267747
C3    C     C_3   0.509297 0.685957 0.668780 0.335019
C4    C     C_3   0.503189 0.765220 0.704188 0.131012
C5    C     C_3   0.919496 0.272752 0.733346 0.685824
C6    C     C_3   0.885157 0.225809 0.789348 -0.222403
C7    C     C_3   0.368855 0.265880 0.706591 0.271523
C8    C     C_3   0.402983 0.230548 0.772623 0.276013
C9    C     C_R   0.002003 0.951625 0.538891 -0.000978
C10   C     C_R   0.085498 0.903168 0.576772 -0.080396
C11   C     C_R   0.222791 0.047338 0.566261 -0.058469
C12   C     C_3   0.893352 0.732697 0.330412 0.391975
C13   C     C_R   0.065635 0.022686 0.536497 0.024538
C14   C     C_R   0.279211 0.117300 0.565112 -0.052210
C15   C     C_R   0.181188 0.166692 0.535332 0.017278
C16   C     C_R   0.028262 0.142496 0.499706 0.090662
C17   C     C_R   0.971386 0.070208 0.500422 0.066171
C18   C     C_R   0.230604 0.239715 0.540979 -0.010559
C19   C     C_R   0.122743 0.288318 0.515793 -0.213770
C20   C     C_R   0.978894 0.265389 0.473305 0.058355
C21   C     C_R   0.933427 0.189796 0.462270 -0.021339
C22   C     C_R   0.846467 0.928715 0.504194 0.047137
C23   C     C_3   0.890200 0.807422 0.310333 -0.282449
C24   C     C_R   0.782532 0.857240 0.503699 0.032020
C25   C     C_R   0.880033 0.807334 0.535264 -0.057535
C26   C     C_R   0.026814 0.832928 0.574129 -0.007338
C27   C     C_R   0.800678 0.157266 0.415269 -0.017917
C28   C     C_R   0.744464 0.088110 0.418317 -0.064710
C29   C     C_R   0.820312 0.045693 0.464387 0.020734
C30   C     C_R   0.753888 0.977222 0.470106 0.012872
C31   C     C_R   0.592143 0.958118 0.445998 -0.085734
C32   C     C_R   0.621333 0.836442 0.472529 -0.042594
C33   C     C_R   0.524603 0.890449 0.447327 -0.050133
C34   C     C_3   0.765041 0.361682 0.297965 0.249542
C35   C     C_R   0.567501 0.763164 0.468072 -0.020621
C36   C     C_R   0.672189 0.713932 0.494626 -0.277036
C37   C     C_R   0.826162 0.734147 0.528935 0.007010
C38   C     C_R   0.605358 0.533442 0.302697 -0.274694
C39   C     C_R   0.459213 0.495880 0.277535 0.100195
C40   C     C_R   0.403950 0.489762 0.204916 -0.037780
C41   C     C_R   0.495311 0.520372 0.157302 0.015425
C42   C     C_R   0.644632 0.556223 0.183154 -0.132611
C43   C     C_R   0.701108 0.561217 0.255439 -0.015737
C44   C     C_R   0.430267 0.567260 0.041995 -0.073802
C45   C     C_3   0.874999 0.384478 0.243790 -0.281861
C46   C     C_R   0.381420 0.556340 0.968416 0.362216
C47   C     C_R   0.347720 0.486011 0.930459 -0.062558
C48   C     C_R   0.360236 0.427945 0.969004 0.347383
C49   C     C_R   0.405195 0.439873 0.042688 -0.065438
C50   C     C_R   0.441941 0.509267 0.079681 -0.074842
C51   C     C_R   0.151159 0.439301 0.823225 -0.061264
C52   C     C_R   0.104791 0.431484 0.749472 -0.041056
C53   C     C_R   0.351932 0.494294 0.731749 0.031236
C54   C     C_R   0.401684 0.500465 0.804888 -0.056874
C55   C     C_R   0.301468 0.473330 0.851599 0.064413
C56   C     C_3   0.017442 0.613984 0.685552 0.231620
C57   C     C_R   0.208276 0.456687 0.703948 -0.277671
C58   C     C_3   0.059957 0.628531 0.766538 -0.266017
C59   C     C_3   0.241275 0.313619 0.341807 0.223403
C60   C     C_3   0.161129 0.251412 0.287347 -0.195257
H1    H     H_    0.495312 0.676241 0.304647 -0.015880
H2    H     H_    0.872589 0.343979 0.194271 0.119341
H3    H     H_    0.838285 0.435920 0.228001 0.084378
H4    H     H_    0.001131 0.387966 0.265210 0.143166
H5    H     H_    0.123675 0.591407 0.659510 0.018377
H6    H     H_    0.915246 0.573885 0.673232 0.075231
H7    H     H_    0.166997 0.666066 0.779993 0.195567
H8    H     H_    0.091938 0.577898 0.785560 0.068128
H9    H     H_    0.146903 0.346946 0.366389 0.010976
H10   H     H_    0.288558 0.675496 0.203388 0.139913
H11   H     H_    0.089300 0.271678 0.243449 0.116801
H12   H     H_    0.080176 0.218378 0.313895 0.129393
H13   H     H_    0.254910 0.216647 0.262906 0.143044
H14   H     H_    0.530218 0.772509 0.311234 -0.018661
H15   H     H_    0.483861 0.709028 0.185598 0.002670
H16   H     H_    0.637371 0.672365 0.660871 -0.129456
H17   H     H_    0.437112 0.678237 0.615822 0.028524
H18   H     H_    0.846936 0.845955 0.354452 0.049659
H19   H     H_    0.047332 0.293032 0.744901 -0.173164
H20   H     H_    0.762252 0.200126 0.776643 0.154446
H21   H     H_    0.974239 0.182456 0.787746 0.141575
H22   H     H_    0.254626 0.240348 0.678203 0.003160
H23   H     H_    0.351659 0.323948 0.723786 -0.030676
H24   H     H_    0.296661 0.236339 0.804613 0.109440
H25   H     H_    0.511438 0.256704 0.805683 0.088435
H26   H     H_    0.978126 0.734109 0.379018 0.089688
H27   H     H_    0.158874 0.344606 0.523862 0.026301
H28   H     H_    0.400370 0.132398 0.589270 0.146820
H29   H     H_    0.098899 0.798880 0.603333 0.176727
H30   H     H_    0.631065 0.658533 0.490271 0.067526
H31   H     H_    0.306615 0.013474 0.590429 0.119128
H32   H     H_    0.198252 0.917841 0.608850 0.156006
H33   H     H_    0.645756 0.065969 0.379538 0.092051
H34   H     H_    0.769794 0.717772 0.342917 -0.143843
H35   H     H_    0.510681 0.997968 0.430307 0.101927
H36   H     H_    0.513372 0.530154 0.826004 0.151962
H37   H     H_    0.456497 0.621298 0.070094 0.127115
H38   H     H_    0.292247 0.459444 0.185140 0.092114
H39   H     H_    0.415748 0.394442 0.070938 0.171304
H40   H     H_    0.067520 0.422198 0.858614 0.097740
H41   H     H_    0.719823 0.577230 0.146698 0.102767
H42   H     H_    0.168455 0.454260 0.647855 0.053316
H43   H     H_    0.013921 0.825012 0.300467 0.198621
H44   H     H_    0.649911 0.536900 0.358359 0.072172
H45   H     H_    0.807132 0.807314 0.261273 0.124266
H46   H     H_    0.723245 0.409060 0.332991 -0.024350
O1    O     O_2   0.118870 0.674530 0.547560 -0.440885
O2    O     O_3   0.343416 0.352423 0.305954 -0.650470
O3    O     O_3   0.945998 0.684360 0.273525 -0.559668
O4    O     O_2   0.691430 0.325420 0.452420 -0.490575
O5    O     O_3   0.939830 0.414660 0.457830 -0.484608
O6    O     O_3   0.456020 0.368240 0.581510 -0.484115
O7    O     O_3   0.851535 0.315555 0.337494 -0.684521
O8    O     O_3   0.374170 0.535780 0.585810 -0.488141
O9    O     O_3   0.871300 0.403980 0.619270 -0.447926
O10   O     O_2   0.788762 0.464308 0.747020 -0.462340
O11   O     O_3   0.806672 0.327480 0.734717 -0.580275
O12   O     O_3   0.870460 0.585330 0.542110 -0.496603
O13   O     O_3   0.436130 0.464210 0.414140 -0.500785
O14   O     O_2   0.629420 0.533310 0.672080 -0.451156
O15   O     O_3   0.443620 0.642481 0.713451 -0.580708
O16   O     O_2   0.568374 0.242318 0.531652 -0.410775
O17   O     O_3   0.500131 0.256889 0.664053 -0.520031
O18   O     O_3   0.354280 0.631750 0.418430 -0.464187
O19   O     O_2   0.226605 0.751449 0.469379 -0.496525
O20   O     O_3   0.975704 0.678068 0.661254 -0.624027
O21   O     O_3   0.307385 0.741192 0.339158 -0.566607
O22   O     O_2   0.180880 0.466650 0.327890 -0.477038
O23   O     O_3   0.939000 0.596010 0.380670 -0.485130
O24   O     O_2   0.039158 0.551939 0.252324 -0.475818
P1    P     P_3+3 0.947550 0.663200 0.567530 0.997826
P2    P     P_3+3 0.354660 0.445020 0.336980 0.979546
P3    P     P_3+3 0.906695 0.597034 0.289012 0.993813
P4    P     P_3+3 0.862750 0.336790 0.432410 0.961542
P5    P     P_3+3 0.895787 0.405074 0.712502 1.015474
P6    P     P_3+3 0.366870 0.724178 0.425229 0.969742
P7    P     P_3+3 0.446971 0.551669 0.676395 1.004034
P8    P     P_3+3 0.437140 0.275608 0.578907 1.046012
C61   C     C_2   0.921252 0.659896 0.805033 0.633609
H47   H     H_    0.889681 0.714603 0.801836 0.019557
O25   O     O_2   0.845512 0.624829 0.840820 -0.517997
C62   C     C_2   0.342119 0.285880 0.399318 0.359797
H48   H     H_    0.399794 0.324446 0.442533 0.062655
O26   O     O_2   0.356597 0.221664 0.399500 -0.631806
C63   C     C_2   0.604777 0.778966 0.775075 0.607738
H49   H     H_    0.712578 0.814157 0.782439 -0.053261
O27   O     O_2   0.567731 0.750668 0.825258 -0.436383
C64   C     C_2   0.567590 0.813062 0.655775 0.430354
H50   H     H_    0.695786 0.813504 0.648143 -0.064851
O28   O     O_2   0.479254 0.851997 0.625649 -0.547271
Cl1   Cl    Cl    0.298435 0.786510 0.721087 -0.602134
C65   C     C_2   0.307503 0.789178 0.201404 0.643284
H51   H     H_    0.380281 0.838829 0.212329 0.015096
O29   O     O_2   0.167676 0.789303 0.175270 -0.523633
Cl2   Cl    Cl    0.895116 0.218322 0.647665 -0.684152
C66   C     C_2   0.894434 0.268907 0.863119 0.526424
H52   H     H_    0.817613 0.314404 0.874428 0.023846
O30   O     O_2   0.986461 0.252576 0.911075 -0.468618
Cl3   Cl    Cl    0.433209 0.136994 0.748453 -0.606558
C67   C     C_2   0.729469 0.186099 0.353693 0.514851
H53   H     H_    0.627581 0.219918 0.359655 0.052358
O31   O     O_2   0.776899 0.167355 0.294687 -0.570997
C68   C     C_2   0.348185 0.884525 0.428259 0.504959
H54   H     H_    0.268101 0.873479 0.467220 0.030414
O32   O     O_2   0.290837 0.897645 0.370595 -0.584769
Cl4   Cl    Cl    0.357124 0.632829 0.926721 -0.594822
Cl5   Cl    Cl    0.328601 0.338650 0.926820 -0.684407
C69   C     C_2   0.624153 0.320118 0.253543 0.533972
H55   H     H_    0.579178 0.270042 0.265958 0.054435
O33   O     O_2   0.556317 0.342628 0.202293 -0.603132

loop_
_geom_bond_atom_site_label_1
_geom_bond_atom_site_label_2
_ccdc_geom_bond_type
C44   H37   S    
C56   O20   S    
C68   H54   S    
C53   C57   A    
C34   H46   S    
C32   C35   A    
C39   C40   A    
C63   H49   S    
C54   H36   S    
C53   C54   A    
C6    C66   S    
C23   H43   S    
C5    C6    S    
C19   H27   S    
C51   C52   A    
C14   H28   S    
C2    H1    S    
Ba2   O4    S    
C24   C25   A    
C35   C36   A    
C10   C26   A    
C6    H20   S    
C57   H42   S    
C21   C27   A    
C63   O27   D    
C22   C24   A    
O14   P7    D    
C32   C33   A    
O23   P3    S    
C61   O25   D    
C3    C4    S    
Ba2   O5    S    
C41   C50   S    
C52   P5    S    
C69   H55   S    
C56   C58   S    
C23   H18   S    
O15   P7    S    
C9    C22   A    
C15   C18   A    
C53   P7    S    
C54   C55   A    
C34   C45   S    
O12   P1    S    
C7    H23   S    
Ba2   O8    S    
C24   C32   A    
O18   P6    S    
O21   P6    S    
C25   C37   A    
C14   C15   A    
O5    P4    S    
C60   H12   S    
C60   H11   S    
O19   P6    D    
O6    P8    S    
O13   P2    S    
C3    H17   S    
O10   P5    D    
C7    C8    S    
C45   H4    S    
C65   O29   D    
O8    P7    S    
Ba1   O1    S    
C59   H9    S    
C17   C29   A    
C68   O32   D    
C19   C20   A    
C66   O30   D    
C10   H32   S    
O22   P2    D    
Ba1   O5    S    
O4    P4    D    
Ba1   P1    S    
C59   O2    S    
C12   H34   S    
C39   P2    S    
C42   H41   S    
C48   C49   A    
C67   O31   D    
C52   C57   A    
Ba2   O14   S    
O17   P8    S    
C12   O3    S    
C44   C46   A    
C8    H25   S    
C43   P3    S    
O1    P1    D    
C49   C50   A    
O11   P5    S    
C5    O11   S    
Ba1   O18   S    
C62   O26   D    
Ba1   O22   S    
C45   H2    S    
Ba2   O12   S    
C16   C17   A    
C1    C65   S    
C7    O17   S    
C16   C21   A    
C11   H31   S    
Ba1   O12   S    
C13   C17   A    
C41   C42   A    
C22   C30   A    
C28   H33   S    
C40   H38   S    
C58   C61   S    
C59   C62   S    
C29   C30   A    
C46   Cl4   S    
C58   H8    S    
C51   H40   S    
C15   C16   A    
C18   C19   A    
C65   H51   S    
C56   H6    S    
C38   C39   A    
C5    H19   S    
C8    Cl3   S    
C9    C13   A    
C35   P6    S    
C11   C13   A    
C66   H52   S    
C64   O28   D    
C60   H13   S    
O2    P2    S    
C40   C41   A    
Ba1   P2    S    
C1    H15   S    
C42   C43   A    
C23   H45   S    
C38   H44   S    
C67   H53   S    
C37   P1    S    
Ba2   O13   S    
Ba1   O8    S    
C8    H24   S    
C51   C55   A    
Ba1   O13   S    
C20   C21   A    
C27   C67   S    
O16   P8    D    
O9    P5    S    
C6    H21   S    
C62   H48   S    
Ba1   O23   S    
C47   C55   S    
C9    C10   A    
C2    O21   S    
C5    Cl2   S    
C49   H39   S    
Ba2   O9    S    
C3    O15   S    
C34   C69   S    
C30   C31   A    
C18   P8    S    
C1    H10   S    
C12   H26   S    
O20   P1    S    
C44   C50   A    
C4    C63   S    
Ba2   O6    S    
C28   C29   A    
O3    P3    S    
C36   C37   A    
C69   O33   D    
C58   H7    S    
O24   P3    D    
C46   C47   A    
Ba1   Ba2   S    
C31   C33   A    
C26   H29   S    
C31   H35   S    
C12   C23   S    
C59   C60   S    
Ba2   P4    S    
C2    H14   S    
C4    Cl1   S    
C48   Cl5   S    
C7    H22   S    
C27   C28   A    
C4    C64   S    
C56   H5    S    
C38   C43   A    
C47   C48   A    
O7    P4    S    
C11   C14   A    
C20   P4    S    
C25   C26   A    
C64   H50   S    
C33   C68   S    
C3    H16   S    
C61   H47   S    
C34   O7    S    
C45   H3    S    
C1    C2    S    
C36   H30   S    
