data_mof_unit_3521.cif
_audit_creation_date              2012-12-10T16:46:49-0500
_audit_creation_method            fapswitch 2.2
_symmetry_space_group_name_H-M    P1
_symmetry_Int_Tables_number       1
_space_group_crystal_system       triclinic
_cell_length_a                    15.856895
_cell_length_b                    8.692206
_cell_length_c                    7.451159
_cell_angle_alpha                 103.011766
_cell_angle_beta                  94.018358
_cell_angle_gamma                 92.191448
_cell_volume                      996.631504342

loop_
_atom_site_label
_atom_site_type_symbol
_atom_type_description
_atom_site_fract_x
_atom_site_fract_y
_atom_site_fract_z
_atom_type_partial_charge
C1    C     C_R   0.497487 0.199732 0.453262 0.881863
C2    C     C_3   0.953178 0.440706 0.666561 -0.428063
C3    C     C_3   0.917043 0.501070 0.497456 0.196654
C4    C     C_3   0.955710 0.670424 0.505231 0.268432
C5    C     C_3   0.054021 0.669698 0.511663 -0.538672
C6    C     C_1   0.824705 0.500285 0.492694 -0.021337
C7    C     C_1   0.175359 0.500488 0.508617 -0.024587
C8    C     C_1   0.250906 0.500356 0.507884 -0.162223
C9    C     C_2   0.496281 0.031834 0.427010 -0.365161
C10   C     C_2   0.503714 0.968166 0.572991 -0.362350
C11   C     C_R   0.340346 0.499867 0.502646 0.820790
C12   C     C_R   0.502511 0.800268 0.546738 0.882010
C13   C     C_R   0.659656 0.500156 0.497372 0.821655
C14   C     C_3   0.051548 0.446199 0.676322 0.261818
C15   C     C_3   0.042096 0.388322 0.325966 -0.355272
C16   C     C_3   0.944263 0.388776 0.320871 -0.467365
C17   C     C_1   0.749116 0.499972 0.492405 -0.154863
C18   C     C_3   0.083057 0.500431 0.506007 0.249888
Cu1   Cu    Cu3+1 0.509300 0.517380 0.684380 0.962415
Cu2   Cu    Cu3+1 0.490700 0.482620 0.315620 0.959274
H1    H     H_    0.077119 0.533732 0.804223 0.073215
H2    H     H_    0.932036 0.512260 0.797234 0.130441
H3    H     H_    0.932839 0.705354 0.376133 0.142835
H4    H     H_    0.510723 0.039750 0.713681 0.180187
H5    H     H_    0.434946 0.376805 0.948698 0.228796
H6    H     H_    0.565053 0.623197 0.051302 0.227976
H7    H     H_    0.063769 0.426668 0.203112 0.147136
H8    H     H_    0.062251 0.265759 0.316923 0.216186
H9    H     H_    0.917491 0.266410 0.309811 0.201900
H10   H     H_    0.919127 0.427146 0.195590 0.163517
H11   H     H_    0.083629 0.753270 0.638078 0.187251
H12   H     H_    0.076192 0.711548 0.391402 0.170688
N1    N     N_2   0.476670 0.456430 0.038530 -0.215023
N2    N     N_2   0.523330 0.543570 0.961470 -0.215359
O1    O     O_R   0.506050 0.286130 0.619770 -0.584675
O2    O     O_R   0.490330 0.256780 0.308370 -0.585659
O3    O     O_R   0.387300 0.514690 0.655770 -0.581433
O4    O     O_R   0.371580 0.485340 0.344370 -0.575721
O5    O     O_R   0.509670 0.743220 0.691630 -0.585239
O6    O     O_R   0.493950 0.713870 0.380230 -0.585241
O7    O     O_R   0.628420 0.514660 0.655630 -0.571728
O8    O     O_R   0.612700 0.485310 0.344230 -0.585097
H13   H     H_    0.927605 0.317449 0.655197 0.207124
H14   H     H_    0.489272 0.960249 0.286319 0.179751
O9    O     O_3   0.080791 0.296579 0.682358 -0.720878
H15   H     H_    0.072470 0.280802 0.807987 0.320271
O10   O     O_3   0.928577 0.783706 0.653570 -0.719697
H16   H     H_    0.956234 0.766015 0.770197 0.323569

loop_
_geom_bond_atom_site_label_1
_geom_bond_atom_site_label_2
_ccdc_geom_bond_type
C2    H2    S    
C11   O4    A    
Cu2   O8    S    
Cu1   N2    S    
C12   O6    A    
C15   C18   S    
Cu2   O4    S    
C9    C10   D    
C14   C18   S    
C15   H7    S    
Cu1   Cu2   S    
C13   C17   S    
C2    H13   S    
C3    C6    S    
C7    C18   S    
C12   O5    A    
C13   O7    A    
C2    C3    S    
C16   H9    S    
C7    C8    T    
Cu1   O1    S    
O9    H15   S    
C15   H8    S    
Cu1   O5    S    
C8    C11   S    
C2    C14   S    
Cu2   N1    S    
C10   C12   S    
C14   H1    S    
C13   O8    A    
N1    N2    D    
C14   O9    S    
Cu2   O6    S    
C16   H10   S    
C15   C16   S    
Cu2   O2    S    
O10   H16   S    
Cu1   O7    S    
C1    C9    S    
C1    O1    A    
C11   O3    A    
C6    C17   T    
C9    H14   S    
C5    C18   S    
Cu1   O3    S    
C10   H4    S    
C4    H3    S    
H6    N2    S    
C5    H12   S    
C3    C16   S    
C3    C4    S    
C1    O2    A    
H5    N1    S    
C4    C5    S    
C5    H11   S    
C4    O10   S    
