data_mof_unit_785.cif
_audit_creation_date              2012-12-10T20:35:53-0500
_audit_creation_method            fapswitch 2.2
_symmetry_space_group_name_H-M    P1
_symmetry_Int_Tables_number       1
_space_group_crystal_system       triclinic
_cell_length_a                    15.721844
_cell_length_b                    10.620817
_cell_length_c                    9.929052
_cell_angle_alpha                 88.835377
_cell_angle_beta                  89.1664
_cell_angle_gamma                 90.598127
_cell_volume                      1657.32798191

loop_
_atom_site_label
_atom_site_type_symbol
_atom_type_description
_atom_site_fract_x
_atom_site_fract_y
_atom_site_fract_z
_atom_type_partial_charge
C1    C     C_R   0.499083 0.260673 0.501242 0.889722
C2    C     C_R   0.493478 0.128990 0.505263 -0.127621
C3    C     C_R   0.432320 0.067665 0.428856 -0.233337
C4    C     C_R   0.338513 0.500106 0.500865 0.887614
C5    C     C_R   0.431688 0.936813 0.424930 0.175589
C6    C     C_R   0.494730 0.871573 0.497430 -0.126199
C7    C     C_R   0.548764 0.934473 0.583646 0.085181
C8    C     C_3   0.644225 0.932038 0.594638 0.373419
C9    C     C_3   0.641287 0.075351 0.603964 -0.472653
C10   C     C_R   0.433412 0.447905 0.074568 0.097202
C11   C     C_R   0.560843 0.564612 0.067260 0.213211
C12   C     C_3   0.949910 0.416908 0.607393 -0.410247
C13   C     C_R   0.559764 0.564629 0.923902 -0.134931
C14   C     C_R   0.435448 0.442949 0.932877 0.143336
C15   C     C_3   0.405580 0.306799 0.936830 0.300081
C16   C     C_R   0.498871 0.739420 0.498683 0.893667
C17   C     C_3   0.399632 0.316691 0.091731 -0.058881
C18   C     C_R   0.661504 0.500272 0.499046 0.895455
C19   C     C_3   0.047929 0.416149 0.605338 -0.540715
C20   C     C_3   0.051468 0.453435 0.354992 0.049526
C21   C     C_3   0.952218 0.456674 0.351758 0.037325
C22   C     C_1   0.750325 0.501183 0.496645 -0.203314
C23   C     C_3   0.917212 0.501820 0.490862 0.279296
C24   C     C_3   0.083089 0.506603 0.492121 0.303044
C25   C     C_3   0.365473 0.870154 0.343216 -0.874707
C26   C     C_3   0.673919 0.865561 0.723892 -0.874663
C27   C     C_3   0.690663 0.886634 0.467324 -0.887220
C28   C     C_3   0.632885 0.633337 0.132103 -0.833072
C29   C     C_3   0.321293 0.288650 0.861926 -0.812988
C30   C     C_3   0.473067 0.209289 0.897040 -0.846396
C31   C     C_3   0.310140 0.310936 0.155769 -0.880943
C32   C     C_3   0.091656 0.514271 0.226262 -0.964085
C33   C     C_3   0.915535 0.328488 0.308769 -0.977494
C34   C     C_3   0.949540 0.638414 0.512080 -0.472370
C35   C     C_3   0.087765 0.751420 0.439614 -0.921978
C36   C     C_3   0.047813 0.640823 0.522291 0.058479
C37   C     C_1   0.825638 0.501721 0.493966 -0.080761
C38   C     C_1   0.174553 0.504437 0.498827 -0.089165
C39   C     C_1   0.249763 0.502172 0.501814 -0.206183
C40   C     C_R   0.547126 0.062549 0.589268 0.007861
H1    H     H_    0.071589 0.444887 0.705497 0.186051
H2    H     H_    0.924753 0.319136 0.599945 0.186001
H3    H     H_    0.927734 0.700297 0.427795 0.179532
H4    H     H_    0.330871 0.799206 0.407534 0.228267
H5    H     H_    0.318033 0.936937 0.302080 0.226332
H6    H     H_    0.396243 0.822778 0.256947 0.259485
H7    H     H_    0.635212 0.893946 0.812611 0.227236
H8    H     H_    0.668145 0.762097 0.713167 0.242621
H9    H     H_    0.741645 0.889674 0.741979 0.233542
H10   H     H_    0.682041 0.783371 0.457479 0.227316
H11   H     H_    0.665736 0.933903 0.375327 0.230423
H12   H     H_    0.926894 0.453073 0.705762 0.178625
H13   H     H_    0.759773 0.907948 0.473804 0.240395
H14   H     H_    0.609681 0.692417 0.214778 0.269943
H15   H     H_    0.680530 0.564865 0.168300 0.247481
H16   H     H_    0.666293 0.697838 0.058891 0.193785
H17   H     H_    0.333289 0.290592 0.751465 0.245651
H18   H     H_    0.292120 0.195991 0.890079 0.230034
H19   H     H_    0.275447 0.364485 0.884531 0.221224
H20   H     H_    0.538693 0.248111 0.904464 0.226315
H21   H     H_    0.467518 0.124298 0.963832 0.215174
H22   H     H_    0.462534 0.175158 0.794449 0.269407
H23   H     H_    0.387294 0.121680 0.370304 0.151616
H24   H     H_    0.279205 0.219379 0.133830 0.237158
H25   H     H_    0.314595 0.316586 0.266659 0.254637
H26   H     H_    0.269694 0.389058 0.118755 0.247601
H27   H     H_    0.082372 0.450136 0.140571 0.238553
H28   H     H_    0.061422 0.604302 0.198037 0.245611
H29   H     H_    0.161075 0.529932 0.236558 0.264893
H30   H     H_    0.941513 0.304766 0.207895 0.248203
H31   H     H_    0.932572 0.251912 0.380771 0.247566
H32   H     H_    0.845245 0.332043 0.300909 0.257221
H33   H     H_    0.931483 0.526437 0.273901 0.162515
H34   H     H_    0.657990 0.112375 0.704291 0.191810
H35   H     H_    0.063378 0.660901 0.629024 0.155004
H36   H     H_    0.071724 0.841249 0.488952 0.233659
H37   H     H_    0.158125 0.745239 0.434791 0.253803
H38   H     H_    0.062754 0.757758 0.336357 0.250169
H39   H     H_    0.921300 0.676522 0.606207 0.165977
H40   H     H_    0.671838 0.127769 0.517602 0.182486
H41   H     H_    0.070396 0.318373 0.589465 0.183770
H42   H     H_    0.609058 0.613337 0.865930 0.154149
H43   H     H_    0.444752 0.255456 0.147390 0.181705
H44   H     H_    0.072449 0.353433 0.353054 0.166514
N1    N     N_R   0.499430 0.499140 0.142800 -0.118082
N2    N     N_R   0.499430 0.499180 0.857150 -0.127826
O1    O     O_R   0.500010 0.316790 0.614690 -0.613856
O2    O     O_R   0.500000 0.316760 0.385350 -0.625304
O3    O     O_R   0.377150 0.500020 0.614720 -0.609960
O4    O     O_R   0.377140 0.499990 0.385380 -0.608417
O5    O     O_R   0.500000 0.683240 0.614650 -0.613678
O6    O     O_R   0.499990 0.683210 0.385310 -0.623458
O7    O     O_R   0.622860 0.500010 0.614620 -0.617588
O8    O     O_R   0.622850 0.499980 0.385280 -0.616788
Zn1   Zn    Zn3+2 0.500010 0.500020 0.653130 0.942624
Zn2   Zn    Zn3+2 0.499990 0.499980 0.346870 0.932790

loop_
_geom_bond_atom_site_label_1
_geom_bond_atom_site_label_2
_ccdc_geom_bond_type
C1    O1    A    
C31   H26   S    
O2    Zn2   S    
C10   N1    A    
C8    C26   S    
C35   C36   S    
C28   H16   S    
C7    C8    S    
C12   C23   S    
C24   C36   S    
C30   H22   S    
C38   C39   T    
N1    Zn2   S    
C21   C33   S    
C10   C17   S    
C21   H33   S    
O6    Zn2   S    
C31   H25   S    
C1    C2    S    
C12   H2    S    
C33   H32   S    
C29   H19   S    
C8    C9    S    
C30   H20   S    
C13   N2    A    
C24   C38   S    
C7    C40   A    
C27   H10   S    
C26   H8    S    
C32   H28   S    
C1    O2    A    
O7    Zn1   S    
C25   H4    S    
C12   H12   S    
C28   H15   S    
C27   H11   S    
C15   C29   S    
C4    O4    A    
C35   H36   S    
C20   C24   S    
C14   N2    A    
C10   C14   A    
C26   H9    S    
C28   H14   S    
C23   C37   S    
C22   C37   T    
O5    Zn1   S    
C13   H42   S    
C35   H37   S    
C9    C40   S    
O1    Zn1   S    
C17   H43   S    
C9    H40   S    
O3    Zn1   S    
C36   H35   S    
C34   H39   S    
C4    C39   S    
C18   O7    A    
C23   C34   S    
C29   H18   S    
O8    Zn2   S    
C6    C7    A    
C33   H30   S    
C32   H27   S    
C5    C25   S    
C26   H7    S    
C29   H17   S    
C16   O6    A    
C20   H44   S    
C17   C31   S    
C9    H34   S    
C25   H5    S    
C15   C30   S    
C4    O3    A    
C20   C32   S    
C15   C17   S    
C18   C22   S    
C31   H24   S    
C34   H3    S    
C3    C5    A    
C27   H13   S    
O4    Zn2   S    
C32   H29   S    
C3    H23   S    
C35   H38   S    
C21   C23   S    
C2    C3    A    
C11   C13   A    
C5    C6    A    
C11   C28   S    
C11   N1    A    
C18   O8    A    
C12   C19   S    
C19   C24   S    
C34   C36   S    
N2    Zn1   S    
C33   H31   S    
C6    C16   S    
C2    C40   A    
C20   C21   S    
C16   O5    A    
C30   H21   S    
C8    C27   S    
C14   C15   S    
C19   H41   S    
C25   H6    S    
C19   H1    S    
