data_mof_unit_746.cif
_audit_creation_date              2012-12-11T15:48:43-0500
_audit_creation_method            fapswitch 2.2
_symmetry_space_group_name_H-M    P1
_symmetry_Int_Tables_number       1
_space_group_crystal_system       triclinic
_cell_length_a                    11.014236
_cell_length_b                    10.934948
_cell_length_c                    18.751391
_cell_angle_alpha                 90.08093
_cell_angle_beta                  89.369044
_cell_angle_gamma                 60.404696
_cell_volume                      1963.59558198

loop_
_atom_site_label
_atom_site_type_symbol
_atom_type_description
_atom_site_fract_x
_atom_site_fract_y
_atom_site_fract_z
_atom_type_partial_charge
C1    C     C_R   0.243892 0.643025 0.611999 0.536055
C2    C     C_3   0.626799 0.562157 0.813464 -0.242217
C3    C     C_3   0.683517 0.665686 0.817021 0.054048
C4    C     C_3   0.644929 0.624943 0.683846 0.050716
C5    C     C_3   0.796032 0.591030 0.695108 -0.235571
C6    C     C_3   0.611430 0.532777 0.734416 -0.243074
C7    C     C_R   0.687854 0.171855 0.828380 0.006627
C8    C     C_R   0.801819 0.139908 0.782859 -0.003685
C9    C     C_R   0.785898 0.153283 0.709128 -0.000526
C10   C     C_R   0.541005 0.249063 0.725701 -0.161359
C11   C     C_R   0.555211 0.240885 0.799113 -0.161491
C12   C     C_R   0.629072 0.591211 0.609080 0.552748
C13   C     C_3   0.938748 0.009797 0.775644 -0.248367
C14   C     C_3   0.921449 0.023524 0.695307 -0.273615
C15   C     C_R   0.655809 0.195444 0.679131 0.000350
C16   C     C_R   0.207565 0.654919 0.840506 -0.000338
C17   C     C_R   0.230164 0.534792 0.801909 -0.047223
C18   C     C_R   0.232873 0.534659 0.727689 0.042072
C19   C     C_R   0.231028 0.754180 0.729209 -0.177269
C20   C     C_R   0.232742 0.752021 0.803728 -0.174294
C21   C     C_3   0.160875 0.447579 0.803958 -0.254023
C22   C     C_3   0.152564 0.457811 0.722592 0.136089
C23   C     C_R   0.626531 0.231043 0.603827 0.535401
C24   C     C_R   0.220763 0.650047 0.689648 -0.021353
C25   C     C_R   0.671988 0.685074 0.174504 0.008663
C26   C     C_R   0.769007 0.564609 0.208675 0.026168
C27   C     C_R   0.772740 0.553559 0.280713 0.023186
C28   C     C_R   0.589490 0.794005 0.292059 -0.160680
C29   C     C_R   0.588608 0.805357 0.217041 -0.163296
C30   C     C_3   0.813205 0.414331 0.195227 -0.275961
C31   C     C_3   0.819053 0.399722 0.275444 -0.266820
C32   C     C_R   0.673381 0.662131 0.323652 0.015639
C33   C     C_R   0.687839 0.067950 0.186101 -0.031721
C34   C     C_R   0.221243 0.649799 0.401926 0.556874
C35   C     C_R   0.555690 0.137165 0.216772 -0.005719
C36   C     C_R   0.538766 0.179060 0.286077 -0.021400
C37   C     C_R   0.788121 0.062635 0.302826 0.239131
C38   C     C_R   0.805314 0.019859 0.230564 -0.137770
C39   C     C_3   0.426617 0.267057 0.194272 -0.252558
C40   C     C_3   0.407488 0.313086 0.271656 -0.255072
C41   C     C_R   0.652146 0.153461 0.328544 0.029879
C42   C     C_R   0.137647 0.672034 0.184242 0.006592
C43   C     C_R   0.184787 0.754117 0.215818 0.015173
C44   C     C_R   0.197434 0.755231 0.287364 0.041926
C45   C     C_R   0.645341 0.624778 0.393812 0.545615
C46   C     C_R   0.105061 0.597616 0.301883 -0.157512
C47   C     C_R   0.090123 0.598191 0.227668 -0.162538
C48   C     C_3   0.314122 0.760272 0.200363 -0.283147
C49   C     C_3   0.329391 0.761152 0.280245 -0.252466
C50   C     C_R   0.165048 0.672907 0.331504 0.057233
C51   C     C_R   0.703165 0.102550 0.896595 0.547779
C52   C     C_R   0.718927 0.685068 0.890506 0.542116
C53   C     C_R   0.122812 0.703568 0.906828 0.538804
C54   C     C_R   0.701796 0.040373 0.110352 0.565246
C55   C     C_R   0.698724 0.693340 0.099380 0.537476
C56   C     C_R   0.618770 0.224936 0.396624 0.568783
C57   C     C_R   0.091483 0.708972 0.112655 0.537980
C58   C     C_3   0.574526 0.807111 0.782527 -0.222784
C59   C     C_3   0.550461 0.782520 0.704303 -0.224876
C60   C     C_3   0.819637 0.605078 0.773076 -0.242407
Cr1   Cr    Cr6+3 0.392960 0.397920 0.502240 1.036630
Cr2   Cr    Cr6+3 0.398340 0.708480 0.501250 0.999290
Cr3   Cr    Cr6+3 0.708670 0.393570 0.496460 0.999135
Cr4   Cr    Cr6+3 0.937650 0.938540 0.007610 1.004992
Cr5   Cr    Cr6+3 0.625330 0.937370 0.994520 0.997779
Cr6   Cr    Cr6+3 0.937940 0.625230 0.001190 0.994880
H1    H     H_    0.612488 0.884469 0.784373 0.144802
H2    H     H_    0.686035 0.421265 0.722479 0.133265
H3    H     H_    0.889375 0.496703 0.792372 0.128762
H4    H     H_    0.869917 0.481142 0.678741 0.135009
H5    H     H_    0.440014 0.297753 0.704540 0.226944
H6    H     H_    0.463538 0.274527 0.832515 0.144843
H7    H     H_    0.936796 0.916102 0.797209 0.155590
H8    H     H_    0.023174 0.028257 0.795119 0.133445
H9    H     H_    0.997988 0.046815 0.668276 0.132569
H10   H     H_    0.909040 0.938099 0.670294 0.138486
H11   H     H_    0.230915 0.841937 0.702854 0.131339
H12   H     H_    0.473636 0.853312 0.812606 0.123280
H13   H     H_    0.232250 0.839036 0.831596 0.129927
H14   H     H_    0.062192 0.500186 0.833624 0.148476
H15   H     H_    0.231627 0.339496 0.823261 0.143498
H16   H     H_    0.051066 0.528031 0.698531 0.105383
H17   H     H_    0.517393 0.883614 0.324150 0.127074
H18   H     H_    0.520574 0.905554 0.192621 0.138436
H19   H     H_    0.917585 0.356633 0.168781 0.145660
H20   H     H_    0.729650 0.399531 0.170875 0.137579
H21   H     H_    0.740967 0.372734 0.297101 0.153968
H22   H     H_    0.439540 0.815041 0.696747 0.128107
H23   H     H_    0.927529 0.335631 0.294678 0.116945
H24   H     H_    0.908840 0.953494 0.209021 0.150195
H25   H     H_    0.344532 0.244107 0.175438 0.139320
H26   H     H_    0.448975 0.334854 0.158516 0.148779
H27   H     H_    0.418405 0.407715 0.280834 0.134792
H28   H     H_    0.315518 0.314880 0.297687 0.149447
H29   H     H_    0.076977 0.534095 0.334993 0.123925
H30   H     H_    0.042288 0.541780 0.204560 0.144732
H31   H     H_    0.291920 0.860834 0.174890 0.145186
H32   H     H_    0.574321 0.850067 0.669081 0.137664
H33   H     H_    0.396822 0.663181 0.173819 0.130024
H34   H     H_    0.420896 0.663853 0.299924 0.148320
H35   H     H_    0.315610 0.862230 0.301351 0.134870
H36   H     H_    0.868590 0.672610 0.778992 0.107056
H37   H     H_    0.819142 0.662438 0.662528 0.124842
H38   H     H_    0.698865 0.461798 0.840390 0.127582
H39   H     H_    0.524014 0.607519 0.841517 0.126670
H40   H     H_    0.505043 0.549857 0.725026 0.127457
O1    O     O_R   0.507380 0.255700 0.581440 -0.496398
O2    O     O_R   0.524480 0.695810 0.424040 -0.508598
O3    O     O_R   0.736390 0.504290 0.414790 -0.521074
O4    O     O_R   0.691300 0.277290 0.422170 -0.504476
O5    O     O_3   0.499990 0.499990 0.499980 -0.276441
O6    O     O_R   0.089400 0.825690 0.930570 -0.524920
O7    O     O_R   0.818460 0.054440 0.929850 -0.496161
O8    O     O_R   0.606060 0.077150 0.915510 -0.522231
O9    O     O_R   0.646550 0.806680 0.917570 -0.506368
O10   O     O_R   0.837170 0.593410 0.915250 -0.533728
O11   O     O_R   0.065200 0.635530 0.931570 -0.507630
O12   O     O_R   0.280320 0.527350 0.578930 -0.473265
O13   O     O_R   0.068260 0.828890 0.091840 -0.529023
O14   O     O_R   0.798870 0.057410 0.079340 -0.507014
O15   O     O_R   0.584930 0.080350 0.076780 -0.517758
O16   O     O_R   0.626960 0.809650 0.067060 -0.522603
O17   O     O_R   0.816040 0.596610 0.076510 -0.516461
O18   O     O_R   0.045610 0.638500 0.081060 -0.511768
O19   O     O_3   0.833640 0.833710 0.001100 -0.270603
O20   O     O_R   0.260510 0.739590 0.584590 -0.535626
O21   O     O_R   0.532300 0.695080 0.573820 -0.507117
O22   O     O_R   0.744840 0.503500 0.576370 -0.528466
O23   O     O_R   0.699120 0.276560 0.571960 -0.511500
O24   O     O_R   0.498940 0.256500 0.419860 -0.522118
O25   O     O_R   0.272500 0.528080 0.429150 -0.513677
O26   O     O_R   0.252060 0.740380 0.423010 -0.519292
O27   O     O_3   0.228214 0.326005 0.687967 -0.563233
C61   C     C_3   0.145120 0.261643 0.681832 -0.130404
H41   H     H_    0.075837 0.304495 0.635124 0.131865
H42   H     H_    0.083558 0.272075 0.731252 0.096487
H43   H     H_    0.214845 0.147542 0.671880 0.135298
O28   O     O_3   0.898900 0.002379 0.349284 -0.555565
C62   C     C_3   0.981494 0.067034 0.341608 -0.119646
H44   H     H_    0.080906 0.003076 0.369886 0.155322
H45   H     H_    0.930090 0.171164 0.368287 0.143198
H46   H     H_    0.007935 0.074831 0.284890 0.096810

loop_
_geom_bond_atom_site_label_1
_geom_bond_atom_site_label_2
_ccdc_geom_bond_type
C44   C49   S    
C5    H37   S    
C8    C13   S    
C54   O14   A    
Cr5   O8    S    
C35   C36   A    
C40   H27   S    
C9    C14   S    
C61   H43   S    
C7    C8    A    
C12   O21   A    
C7    C11   A    
C48   H31   S    
C26   C27   A    
C51   O7    A    
Cr4   O13   S    
Cr6   O10   S    
C18   C24   A    
C22   H16   S    
C28   C29   A    
C10   C15   A    
C49   H35   S    
Cr2   O21   S    
C62   H46   S    
C53   O11   A    
Cr4   O6    S    
Cr2   O2    S    
C23   O23   A    
C32   C45   S    
C56   O4    A    
C19   H11   S    
C16   C53   S    
C59   H22   S    
C46   H29   S    
C19   C20   A    
C16   C17   A    
C31   H23   S    
Cr6   O11   S    
C47   H30   S    
Cr5   O15   S    
C30   H20   S    
C43   C48   S    
Cr3   O22   S    
C20   H13   S    
C45   O2    A    
C57   O13   A    
C3    C60   S    
C15   C23   S    
Cr1   O12   S    
C55   O16   A    
C34   O26   A    
C21   C22   S    
C28   H17   S    
C37   C41   A    
Cr5   O9    S    
C36   C41   A    
C2    C6    S    
C60   H36   S    
C42   C57   S    
C39   H25   S    
C42   C47   A    
C52   O10   A    
C25   C29   A    
C62   H44   S    
C55   O17   A    
C34   C50   S    
C51   O8    A    
C31   H21   S    
Cr2   O5    S    
C22   O27   S    
C27   C31   S    
Cr2   O26   S    
C28   C32   A    
C1    O20   A    
C29   H18   S    
C4    C6    S    
C10   C11   A    
C40   H28   S    
C39   C40   S    
Cr2   O20   S    
C58   H12   S    
C11   H6    S    
C8    C9    A    
C61   H42   S    
C25   C26   A    
C17   C21   S    
Cr5   O19   S    
Cr3   O3    S    
C35   C39   S    
C43   C44   A    
C41   C56   S    
C37   C38   A    
C4    C59   S    
C36   C40   S    
C16   C20   A    
C23   O1    A    
C17   C18   A    
C6    H40   S    
Cr5   O16   S    
C30   H19   S    
Cr1   O24   S    
C53   O6    A    
C48   C49   S    
C54   O15   A    
C21   H15   S    
C2    H38   S    
C26   C30   S    
C37   O28   S    
O27   C61   S    
Cr6   O18   S    
C4    C12   S    
C42   C43   A    
Cr1   O5    S    
C39   H26   S    
C52   O9    A    
C44   C50   A    
C33   C54   S    
C48   H33   S    
C46   C50   A    
C46   C47   A    
Cr4   O7    S    
C5    C60   S    
C27   C32   A    
C18   C22   S    
C25   C55   S    
C13   H7    S    
C4    C5    S    
C5    H4    S    
C34   O25   A    
C3    C52   S    
C61   H41   S    
C12   O22   A    
C38   H24   S    
C2    H39   S    
C33   C38   A    
Cr4   O14   S    
Cr6   O19   S    
C14   H9    S    
Cr3   O4    S    
C19   C24   A    
C58   C59   S    
C7    C51   S    
C10   H5    S    
C57   O18   A    
C62   H45   S    
C30   C31   S    
C60   H3    S    
C21   H14   S    
C6    H2    S    
C33   C35   A    
C2    C3    S    
C45   O3    A    
C1    O12   A    
Cr3   O23   S    
Cr3   O5    S    
Cr1   O1    S    
O28   C62   S    
Cr1   O25   S    
C3    C58   S    
C58   H1    S    
C13   H8    S    
C1    C24   S    
Cr4   O19   S    
C59   H32   S    
Cr6   O17   S    
C13   C14   S    
C56   O24   A    
C9    C15   A    
C14   H10   S    
C49   H34   S    
