data_mof_unit_2146.cif
_audit_creation_date              2012-12-10T20:26:25-0500
_audit_creation_method            fapswitch 2.2
_symmetry_space_group_name_H-M    P1
_symmetry_Int_Tables_number       1
_space_group_crystal_system       triclinic
_cell_length_a                    10.669831
_cell_length_b                    10.680301
_cell_length_c                    9.882304
_cell_angle_alpha                 89.656745
_cell_angle_beta                  91.021864
_cell_angle_gamma                 90.263357
_cell_volume                      1125.94712382

loop_
_atom_site_label
_atom_site_type_symbol
_atom_type_description
_atom_site_fract_x
_atom_site_fract_y
_atom_site_fract_z
_atom_type_partial_charge
C1    C     C_R   0.505008 0.259917 0.500348 0.876386
C2    C     C_R   0.527924 0.128683 0.500164 -0.166618
C3    C     C_R   0.539193 0.065613 0.376640 -0.177012
C4    C     C_R   0.538778 0.936182 0.376036 -0.174672
C5    C     C_R   0.526616 0.871289 0.498881 -0.105958
C6    C     C_R   0.541154 0.934968 0.620599 0.068554
C7    C     C_3   0.468497 0.926019 0.748095 -0.494498
C8    C     C_3   0.471984 0.068074 0.750403 0.211149
C9    C     C_R   0.438397 0.408302 0.069917 0.151974
C10   C     C_R   0.566893 0.586258 0.072615 -0.027278
C11   C     C_R   0.566976 0.586258 0.928801 -0.090748
C12   C     C_R   0.262522 0.499536 0.498882 0.947469
C13   C     C_R   0.441551 0.406211 0.927812 0.258313
C14   C     C_3   0.307341 0.369946 0.914078 -0.524489
C15   C     C_3   0.300592 0.379082 0.066956 0.182358
C16   C     C_R   0.504364 0.740036 0.499614 0.879219
C17   C     C_R   0.737257 0.510061 0.501135 0.973174
C18   C     C_2   0.934751 0.578627 0.402452 0.449128
C19   C     C_2   0.868720 0.535065 0.507133 -0.441437
C20   C     C_2   0.070263 0.580872 0.413969 -0.124834
C21   C     C_2   0.130145 0.500147 0.495572 -0.373656
C22   C     C_R   0.543192 0.062867 0.621559 0.148982
H1    H     H_    0.618279 0.657928 0.127159 0.183629
H2    H     H_    0.619214 0.657380 0.875228 0.154388
H3    H     H_    0.250486 0.440585 0.857680 0.252177
H4    H     H_    0.295398 0.272704 0.876954 0.182461
H5    H     H_    0.277452 0.288934 0.117626 0.133864
H6    H     H_    0.912604 0.520442 0.605895 0.149827
H7    H     H_    0.122018 0.645192 0.349825 0.216743
H8    H     H_    0.083678 0.431855 0.559187 0.146325
H9    H     H_    0.538281 0.114916 0.280488 0.201784
H10   H     H_    0.537910 0.888284 0.279683 0.187901
H11   H     H_    0.372569 0.887305 0.731259 0.185328
H12   H     H_    0.523224 0.880360 0.831313 0.238024
H13   H     H_    0.378361 0.112260 0.738397 0.100788
N1    N     N_R   0.499170 0.499140 0.142800 -0.102183
N2    N     N_R   0.499170 0.499180 0.857150 -0.105716
O1    O     O_R   0.500020 0.316790 0.614690 -0.596266
O2    O     O_R   0.500000 0.316760 0.385350 -0.627295
O3    O     O_R   0.319080 0.500020 0.614640 -0.630547
O4    O     O_R   0.319070 0.499980 0.385300 -0.559736
O5    O     O_R   0.500000 0.683240 0.614650 -0.626516
O6    O     O_R   0.499980 0.683210 0.385310 -0.623547
O7    O     O_R   0.680930 0.500020 0.614700 -0.611973
O8    O     O_R   0.680920 0.499980 0.385360 -0.560534
Zn1   Zn    Zn3+2 0.500010 0.500020 0.653130 0.985445
Zn2   Zn    Zn3+2 0.499990 0.499980 0.346870 1.021619
Cl1   Cl    Cl    0.867807 0.635703 0.249631 -0.569712
Cl2   Cl    Cl    0.567255 0.127213 0.886126 -0.617416
Cl3   Cl    Cl    0.204587 0.508027 0.113128 -0.554366

loop_
_geom_bond_atom_site_label_1
_geom_bond_atom_site_label_2
_ccdc_geom_bond_type
C2    C22   A    
C9    N1    A    
C8    C22   S    
C12   O3    A    
C6    C7    S    
C10   H1    S    
C21   H8    S    
C15   H5    S    
C13   N2    A    
C2    C3    A    
O4    Zn2   S    
C17   O7    A    
C7    C8    S    
C13   C14   S    
C14   H4    S    
C3    H9    S    
C19   H6    S    
C7    H11   S    
C16   O6    A    
C4    H10   S    
C1    O1    A    
N1    Zn2   S    
C12   C21   S    
C17   C19   S    
O7    Zn1   S    
C1    C2    S    
C18   C20   S    
C20   H7    S    
O8    Zn2   S    
C14   H3    S    
C9    C15   S    
C5    C6    A    
C7    H12   S    
O1    Zn1   S    
C10   C11   A    
O3    Zn1   S    
C3    C4    A    
C6    C22   A    
C16   O5    A    
C11   H2    S    
C20   C21   D    
C12   O4    A    
O2    Zn2   S    
C18   C19   D    
O5    Zn1   S    
C15   Cl3   S    
C11   N2    A    
C1    O2    A    
C14   C15   S    
C5    C16   S    
C9    C13   A    
N2    Zn1   S    
O6    Zn2   S    
C8    Cl2   S    
C17   O8    A    
C4    C5    A    
C10   N1    A    
C8    H13   S    
C18   Cl1   S    
