data_mof_unit_839.cif
_audit_creation_date              2012-10-26T18:34:39-0400
_audit_creation_method            fapswitch 2.2
_symmetry_space_group_name_H-M    P1
_symmetry_Int_Tables_number       1
_space_group_crystal_system       triclinic
_cell_length_a                    11.033403
_cell_length_b                    9.62267
_cell_length_c                    17.770925
_cell_angle_alpha                 90.021805
_cell_angle_beta                  101.300805
_cell_angle_gamma                 90.031939
_cell_volume                      1850.17218494

loop_
_atom_site_label
_atom_site_type_symbol
_atom_type_description
_atom_site_fract_x
_atom_site_fract_y
_atom_site_fract_z
_atom_type_partial_charge
C1    C     C_R   0.263083 0.499107 0.503144 0.572959
C2    C     C_R   0.489463 0.500148 0.643248 0.602945
C3    C     C_R   0.870257 0.494931 0.493544 -0.060705
C4    C     C_R   0.129664 0.494838 0.506275 -0.061481
C5    C     C_R   0.536939 0.587849 0.854546 0.176935
C6    C     C_R   0.563288 0.360121 0.164447 0.201205
C7    C     C_R   0.461282 0.587584 0.145503 0.109284
C8    C     C_R   0.432795 0.361512 0.835104 0.134541
C9    C     C_R   0.506905 0.611765 0.774818 -0.016841
C10   C     C_R   0.573923 0.376357 0.244630 0.007241
C11   C     C_R   0.492382 0.611629 0.225186 -0.042814
C12   C     C_R   0.736887 0.499159 0.496789 0.572186
C13   C     C_R   0.424400 0.376762 0.755047 -0.008066
C14   C     C_R   0.471009 0.497969 0.724805 -0.037647
C15   C     C_R   0.528316 0.497862 0.275084 -0.038900
C16   C     C_R   0.416994 0.075251 0.443920 0.258992
C17   C     C_R   0.584958 0.924116 0.554425 0.284337
C18   C     C_R   0.583058 0.075456 0.556050 0.260490
C19   C     C_R   0.415069 0.923917 0.445563 0.288661
C20   C     C_R   0.493405 0.465856 0.884697 -0.003148
C21   C     C_R   0.503312 0.465038 0.115090 0.000442
C22   C     C_2   0.490121 0.757976 0.747400 0.370617
C23   C     C_1   0.497307 0.458114 0.965905 0.201378
C24   C     C_2   0.647706 0.274353 0.296832 0.354705
C25   C     C_2   0.510377 0.757816 0.252566 0.357829
C26   C     C_2   0.352507 0.273510 0.702697 0.340323
C27   C     C_2   0.120489 0.229483 0.487163 0.396680
C28   C     C_2   0.873407 0.741157 0.443232 0.352671
C29   C     C_2   0.878698 0.229271 0.511336 0.394128
C30   C     C_2   0.127054 0.740686 0.557302 0.354759
C31   C     C_1   0.499322 0.457799 0.033859 0.205830
C32   C     C_R   0.063000 0.366854 0.498102 0.017753
C33   C     C_R   0.935543 0.619930 0.487468 0.005195
C34   C     C_R   0.936616 0.366832 0.501182 0.017558
C35   C     C_R   0.064636 0.619802 0.512742 0.003336
C36   C     C_R   0.510462 0.500127 0.356742 0.599648
Cu1   Cu    Cu3+1 0.500000 0.640660 0.500000 1.183567
Cu2   Cu    Cu3+1 0.500000 0.359340 0.500000 1.152756
H1    H     H_    0.769202 0.860626 0.901122 0.407730
H2    H     H_    0.796901 0.645870 0.670379 0.364320
H3    H     H_    0.750740 0.361173 0.688609 0.361027
H4    H     H_    0.203609 0.645412 0.328985 0.354117
H5    H     H_    0.204452 0.194324 0.524333 0.172096
H6    H     H_    0.777743 0.735519 0.414727 0.162275
H7    H     H_    0.794604 0.194817 0.473968 0.169596
H8    H     H_    0.222703 0.734764 0.585793 0.162076
H9    H     H_    0.793994 0.089257 0.163504 0.398726
H10   H     H_    0.219788 0.699510 0.146232 0.353811
H11   H     H_    0.178124 0.274348 0.828309 0.361921
H12   H     H_    0.543144 0.841768 0.778289 0.228252
H13   H     H_    0.631403 0.163684 0.289100 0.192921
H14   H     H_    0.457971 0.841910 0.221681 0.236283
H15   H     H_    0.369628 0.163112 0.711069 0.206160
H16   H     H_    0.249664 0.360672 0.311395 0.358295
N1    N     N_R   0.500000 0.852070 0.500000 -0.315925
N2    N     N_R   0.500000 0.147930 0.500000 -0.334935
O1    O     O_R   0.319640 0.618740 0.499990 -0.474767
O2    O     O_2   0.691921 0.649636 0.990073 -0.234376
O3    O     O_3   0.736321 0.777802 0.870724 -0.481705
O4    O     O_2   0.550976 0.084349 0.145537 -0.218718
O5    O     O_2   0.623462 0.211144 0.043773 -0.195098
O6    O     O_3   0.772888 0.186318 0.174333 -0.475811
O7    O     O_2   0.453216 0.827167 0.067872 -0.116668
O8    O     O_2   0.304546 0.649676 0.010514 -0.233277
O9    O     O_3   0.263282 0.780715 0.129766 -0.438650
O10   O     O_2   0.442831 0.086548 0.857876 -0.173994
O11   O     O_2   0.362272 0.218189 0.954610 -0.190250
O12   O     O_R   0.680360 0.381260 0.500010 -0.473206
O13   O     O_3   0.221778 0.186665 0.821561 -0.440989
O14   O     O_2   0.407581 0.789236 0.693797 -0.501143
O15   O     O_2   0.732394 0.314224 0.346840 -0.530959
O16   O     O_2   0.593186 0.788610 0.306149 -0.503566
O17   O     O_2   0.268352 0.311896 0.651973 -0.539516
O18   O     O_2   0.391356 0.150946 0.296009 -0.287681
O19   O     O_2   0.197276 0.100609 0.333835 -0.119758
O20   O     O_3   0.283380 0.332457 0.365045 -0.497018
O21   O     O_2   0.826444 0.874581 0.599632 -0.191032
O22   O     O_2   0.706321 0.886426 0.701807 -0.213050
O23   O     O_R   0.680360 0.618740 0.500010 -0.476165
O24   O     O_3   0.716910 0.662069 0.634951 -0.498478
O25   O     O_2   0.609636 0.150916 0.704095 -0.294394
O26   O     O_2   0.803320 0.101424 0.665508 -0.122034
O27   O     O_3   0.716658 0.333096 0.634965 -0.496281
O28   O     O_2   0.173592 0.874335 0.399975 -0.193423
O29   O     O_2   0.294432 0.885630 0.298118 -0.220323
O30   O     O_3   0.283017 0.661564 0.365040 -0.505686
O31   O     O_2   0.067999 0.149093 0.438348 -0.366090
O32   O     O_2   0.930367 0.845488 0.432271 -0.353757
O33   O     O_2   0.930893 0.148007 0.559684 -0.364637
O34   O     O_R   0.319640 0.381260 0.499990 -0.472088
O35   O     O_2   0.070345 0.844983 0.568546 -0.347170
O36   O     O_R   0.500000 0.618830 0.391250 -0.420035
O37   O     O_R   0.500000 0.381170 0.608750 -0.438300
O38   O     O_R   0.500000 0.618830 0.608750 -0.422807
O39   O     O_R   0.500000 0.381170 0.391250 -0.442463
O40   O     O_2   0.545034 0.828288 0.931457 -0.165489
S1    S     S_3+6 0.627822 0.712696 0.915487 0.065246
S2    S     S_3+6 0.625444 0.207059 0.128477 0.085753
S3    S     S_3+6 0.370221 0.712566 0.084825 0.082533
S4    S     S_3+6 0.366808 0.210522 0.870799 0.097667
S5    S     S_3+6 0.321906 0.164820 0.360376 0.111737
S6    S     S_3+6 0.706977 0.834442 0.622285 0.120383
S7    S     S_3+6 0.678489 0.165273 0.639466 0.108651
S8    S     S_3+6 0.293200 0.833984 0.377609 0.110785

loop_
_geom_bond_atom_site_label_1
_geom_bond_atom_site_label_2
_ccdc_geom_bond_type
C1    O34   A    
O22   S6    D    
O5    S2    D    
C9    C14   A    
O30   S8    S    
H9    O6    S    
C29   O33   D    
C5    C20   A    
C7    C11   A    
Cu1   O23   S    
C8    C20   A    
O27   S7    S    
C30   C35   S    
C6    S2    S    
O4    S2    D    
C10   C15   A    
C9    C22   S    
C3    C33   A    
H3    O27   S    
C12   O23   A    
C26   O17   D    
O10   S4    D    
O7    S3    D    
C3    C12   S    
O6    S2    S    
C11   C15   A    
O8    S3    D    
Cu2   O39   S    
C28   O32   D    
O26   S7    D    
H2    O24   S    
H4    O30   S    
H10   O9    S    
C17   N1    A    
C18   N2    A    
C22   H12   S    
C36   O36   A    
C24   H13   S    
C4    C35   A    
H11   O13   S    
C13   C14   A    
O21   S6    D    
O2    S1    D    
C2    O38   A    
O9    S3    S    
C3    C34   A    
C10   C24   S    
C7    C21   A    
C6    C21   A    
C29   C34   S    
C28   H6    S    
C29   H7    S    
C23   C31   T    
C17   S6    S    
C16   N2    A    
C5    C9    A    
Cu1   Cu2   S    
C1    O1    A    
C12   O12   A    
C19   S8    S    
C20   C23   S    
H1    O3    S    
O40   S1    D    
C21   C31   S    
C17   C18   A    
C25   O16   D    
C27   O31   D    
C4    C32   A    
O29   S8    D    
C7    S3    S    
O11   S4    D    
O18   S5    D    
H16   O20   S    
Cu2   O12   S    
C28   C33   S    
O3    S1    S    
C13   C26   S    
C26   H15   S    
C15   C36   S    
O25   S7    D    
C19   N1    A    
O20   S5    S    
Cu1   O36   S    
C27   C32   S    
C30   H8    S    
C2    O37   A    
C5    S1    S    
C30   O35   D    
C6    C10   A    
Cu2   O34   S    
C1    C4    S    
C8    S4    S    
C25   H14   S    
C36   O39   A    
C16   C19   A    
O28   S8    D    
Cu2   O37   S    
C33   C35   A    
Cu1   O38   S    
C18   S7    S    
C8    C13   A    
C2    C14   S    
Cu1   N1    S    
O13   S4    S    
C27   H5    S    
C16   S5    S    
Cu2   N2    S    
O24   S6    S    
O19   S5    D    
C11   C25   S    
C22   O14   D    
Cu1   O1    S    
C24   O15   D    
C32   C34   A    
