data_mof_unit_1150.cif
_audit_creation_date              2012-12-11T16:23:29-0500
_audit_creation_method            fapswitch 2.2
_symmetry_space_group_name_H-M    P1
_symmetry_Int_Tables_number       1
_space_group_crystal_system       triclinic
_cell_length_a                    19.951054
_cell_length_b                    7.20749
_cell_length_c                    19.846307
_cell_angle_alpha                 89.999277
_cell_angle_beta                  98.923588
_cell_angle_gamma                 89.99886
_cell_volume                      2819.29722542

loop_
_atom_site_label
_atom_site_type_symbol
_atom_type_description
_atom_site_fract_x
_atom_site_fract_y
_atom_site_fract_z
_atom_type_partial_charge
O1    O     O_R   0.188410 0.619490 0.310050 -0.519515
O2    O     O_R   0.811590 0.380510 0.689950 -0.516316
O3    O     O_R   0.311590 0.119490 0.189950 -0.519693
O4    O     O_R   0.688410 0.880510 0.810050 -0.516340
O5    O     O_R   0.327280 0.288800 0.321740 -0.523200
O6    O     O_R   0.672720 0.711200 0.678260 -0.532062
O7    O     O_R   0.172720 0.788800 0.178260 -0.523202
O8    O     O_R   0.827280 0.211200 0.821740 -0.532064
C1    C     C_R   0.352619 0.457022 0.337523 0.731457
C2    C     C_R   0.647235 0.543184 0.662458 0.737686
C3    C     C_R   0.147380 0.957025 0.162478 0.731485
C4    C     C_R   0.852765 0.043180 0.837542 0.737709
O9    O     O_R   0.189900 0.289710 0.318190 -0.536869
O10   O     O_R   0.810100 0.710290 0.681810 -0.542651
O11   O     O_R   0.310100 0.789710 0.181810 -0.536884
O12   O     O_R   0.689900 0.210290 0.818190 -0.542667
O13   O     O_R   0.173230 0.120350 0.186370 -0.547223
O14   O     O_R   0.826770 0.879650 0.813630 -0.542888
O15   O     O_R   0.326770 0.620350 0.313630 -0.547170
O16   O     O_R   0.673230 0.379650 0.686370 -0.542892
C5    C     C_R   0.170705 0.458959 0.334558 0.669781
C6    C     C_R   0.829875 0.539860 0.664872 0.711326
C7    C     C_R   0.329290 0.958959 0.165437 0.669636
C8    C     C_R   0.670124 0.039861 0.835126 0.711296
O17   O     O_3   0.244690 0.453290 0.206760 -0.369046
O18   O     O_3   0.755310 0.546710 0.793240 -0.362850
O19   O     O_3   0.255310 0.953290 0.293240 -0.368870
O20   O     O_3   0.744690 0.046710 0.706760 -0.362821
V1    V     V_3+5 0.250980 0.178070 0.258020 1.548889
V2    V     V_3+5 0.749020 0.821930 0.741980 1.548304
V3    V     V_3+5 0.249020 0.678070 0.241980 1.548944
V4    V     V_3+5 0.750980 0.321930 0.758020 1.548287
C9    C     C_R   0.407225 0.099827 0.007880 -0.029209
C10   C     C_R   0.535873 0.844341 0.938131 -0.024240
C11   C     C_R   0.092867 0.599470 0.492220 -0.029077
C12   C     C_R   0.964100 0.344334 0.561829 -0.024463
C13   C     C_R   0.360410 0.088121 0.055416 -0.080834
C14   C     C_R   0.589826 0.849666 0.898970 0.026477
C15   C     C_R   0.139650 0.587829 0.444644 -0.080842
C16   C     C_R   0.910162 0.349662 0.601009 0.026460
C17   C     C_R   0.375496 0.972471 0.113829 -0.070845
C18   C     C_R   0.620762 0.022264 0.885544 -0.095401
C19   C     C_R   0.124499 0.472469 0.386165 -0.070568
C20   C     C_R   0.879232 0.522263 0.614448 -0.095333
C21   C     C_R   0.437335 0.877810 0.125807 -0.101555
C22   C     C_R   0.602844 0.179864 0.920115 -0.143527
C23   C     C_R   0.062602 0.378121 0.374125 -0.101470
C24   C     C_R   0.897150 0.679871 0.579878 -0.143677
H1    H     H_    0.450009 0.792611 0.170977 0.131073
H2    H     H_    0.627362 0.310106 0.914127 0.164899
H3    H     H_    0.049879 0.293155 0.328902 0.131013
H4    H     H_    0.872635 0.810116 0.585873 0.164862
C25   C     C_R   0.484300 0.895620 0.081137 -0.179028
C26   C     C_R   0.555265 0.170726 0.964865 -0.050792
C27   C     C_R   0.015641 0.395980 0.418795 -0.179265
C28   C     C_R   0.944728 0.670745 0.535127 -0.050103
H5    H     H_    0.532105 0.822071 0.092333 0.131327
H6    H     H_    0.544479 0.294591 0.992161 0.119450
H7    H     H_    0.967786 0.322699 0.407544 0.131375
H8    H     H_    0.955525 0.794621 0.507843 0.119583
C29   C     C_R   0.469721 0.001968 0.021463 0.023810
C30   C     C_R   0.520866 0.005180 0.973848 0.051333
C31   C     C_R   0.030286 0.502000 0.478542 0.024022
C32   C     C_R   0.979121 0.505195 0.526134 0.051745
C33   C     C_R   0.083795 0.957832 0.111278 -0.095428
C34   C     C_R   0.915795 0.044315 0.889845 -0.093168
C35   C     C_R   0.416203 0.457821 0.388725 -0.095442
C36   C     C_R   0.584205 0.544325 0.610153 -0.093173
C37   C     C_R   0.016959 0.207713 0.948212 -0.078962
C38   C     C_R   0.978339 0.807263 0.057037 -0.038955
C39   C     C_R   0.483041 0.707726 0.551781 -0.078956
C40   C     C_R   0.521658 0.307243 0.442971 -0.038943
C41   C     C_R   0.965345 0.186635 0.890794 -0.071537
C42   C     C_R   0.032377 0.822108 0.112637 -0.043457
C43   C     C_R   0.534656 0.686654 0.609199 -0.071513
C44   C     C_R   0.467619 0.322082 0.387373 -0.043442
C45   C     C_R   0.921940 0.917611 0.943982 -0.212360
C46   C     C_R   0.077443 0.084766 0.057332 -0.218754
C47   C     C_R   0.578059 0.417609 0.556022 -0.212376
C48   C     C_R   0.422557 0.584767 0.442665 -0.218803
C49   C     C_R   0.973887 0.933370 0.001260 0.110451
C50   C     C_R   0.022428 0.078068 0.002861 0.113839
C51   C     C_R   0.526112 0.433364 0.498743 0.110449
C52   C     C_R   0.477572 0.578071 0.497137 0.113801
H9    H     H_    0.118204 0.183321 0.056962 0.171623
H10   H     H_    0.884340 0.808847 0.941276 0.175138
H11   H     H_    0.381797 0.683331 0.443031 0.171702
H12   H     H_    0.615657 0.308837 0.558732 0.175148
C53   C     C_2   0.389305 0.203635 0.942648 0.444820
H13   H     H_    0.361707 0.333113 0.940725 0.123430
O21   O     O_2   0.404607 0.143725 0.889533 -0.489948
C54   C     C_2   0.494204 0.673079 0.941193 0.346217
H14   H     H_    0.468746 0.645409 0.984480 0.062937
O22   O     O_2   0.484930 0.564228 0.893560 -0.516450
C55   C     C_2   0.110931 0.702735 0.557574 0.443941
H15   H     H_    0.139228 0.831184 0.559763 0.123504
O23   O     O_2   0.095032 0.643432 0.610535 -0.489981
C56   C     C_2   0.005731 0.173027 0.558707 0.346418
H16   H     H_    0.031086 0.145282 0.515353 0.063106
O24   O     O_2   0.015085 0.064228 0.606356 -0.516181
C57   C     C_2   0.293349 0.182925 0.042903 0.384665
H17   H     H_    0.248534 0.111223 0.054158 0.024882
O25   O     O_2   0.287924 0.343956 0.023877 -0.531784
C58   C     C_2   0.619244 0.671599 0.881154 0.427799
H18   H     H_    0.590866 0.578491 0.844425 0.120898
O26   O     O_2   0.676259 0.628209 0.908282 -0.528931
C59   C     C_2   0.206733 0.682458 0.457155 0.383720
H19   H     H_    0.251559 0.610431 0.446108 0.024927
O27   O     O_2   0.212158 0.843703 0.475918 -0.531601
C60   C     C_2   0.880761 0.171593 0.618843 0.427700
H20   H     H_    0.909163 0.078476 0.655553 0.120919
O28   O     O_2   0.823737 0.128199 0.591743 -0.528929
C61   C     C_2   0.032381 0.701595 0.173761 0.399700
H21   H     H_    0.013703 0.560317 0.168456 0.031524
O29   O     O_2   0.051186 0.761534 0.231132 -0.530883
C62   C     C_2   0.964107 0.314766 0.831732 0.384238
H22   H     H_    0.977453 0.459891 0.839800 0.042495
O30   O     O_2   0.950307 0.257648 0.773359 -0.537347
C63   C     C_2   0.467611 0.201546 0.326256 0.399737
H23   H     H_    0.486264 0.060255 0.331570 0.031579
O31   O     O_2   0.448828 0.261477 0.268882 -0.530926
C64   C     C_2   0.535894 0.814798 0.668257 0.384183
H24   H     H_    0.522549 0.959924 0.660183 0.042486
O32   O     O_2   0.549693 0.757690 0.726632 -0.537369
C65   C     C_2   0.064957 0.366536 0.949873 0.323253
H25   H     H_    0.088135 0.398984 0.905315 0.088711
O33   O     O_2   0.076370 0.467321 0.999797 -0.535809
C66   C     C_2   0.925929 0.661556 0.058997 0.357552
H26   H     H_    0.940916 0.517631 0.067265 0.066801
O34   O     O_2   0.865962 0.702456 0.053836 -0.504995
C67   C     C_2   0.435042 0.866553 0.550116 0.323172
H27   H     H_    0.411865 0.899011 0.594674 0.088615
O35   O     O_2   0.423627 0.967329 0.500189 -0.535805
C68   C     C_2   0.574068 0.161527 0.441014 0.357554
H28   H     H_    0.559080 0.017607 0.432743 0.066803
O36   O     O_2   0.634036 0.202414 0.446181 -0.505008

loop_
_geom_bond_atom_site_label_1
_geom_bond_atom_site_label_2
_ccdc_geom_bond_type
O17   V3    S    
C47   C51   A    
O1    C5    A    
C57   H17   S    
C27   H7    S    
O19   V1    S    
C43   C64   S    
O13   V1    S    
O3    C7    A    
C55   H15   S    
C10   C30   A    
C40   C44   A    
O15   V3    S    
C66   H26   S    
C58   O26   D    
C49   C50   A    
C36   C43   A    
O7    C3    A    
C23   H3    S    
C41   C62   S    
O9    V1    S    
C14   C18   A    
C48   H11   S    
C26   H6    S    
O4    C8    A    
O1    V3    S    
C8    C18   S    
C62   H22   S    
O2    V4    S    
C18   C22   A    
O3    V1    S    
C38   C49   A    
C38   C42   A    
C58   H18   S    
C14   C58   S    
C37   C50   A    
C60   O28   D    
C12   C56   S    
C60   H20   S    
C25   C29   A    
C1    O15   A    
C6    C20   S    
C2    O16   A    
C27   C31   A    
O2    C6    A    
C59   H19   S    
C28   C32   A    
C37   C41   A    
O14   V2    S    
C21   H1    S    
C53   O21   D    
C48   C52   A    
C36   C47   A    
O11   C7    A    
C37   C65   S    
O12   C8    A    
C5    C19   S    
C59   O27   D    
O10   V2    S    
C47   H12   S    
O5    V1    S    
C63   O31   D    
C39   C43   A    
C44   C63   S    
O7    V3    S    
O8    V4    S    
C12   C16   A    
C25   H5    S    
O18   V4    S    
C16   C60   S    
C26   C30   A    
C42   C61   S    
C4    C34   S    
C9    C13   A    
C33   C42   A    
C28   H8    S    
C39   C52   A    
C11   C15   A    
C1    C35   S    
O5    C1    A    
C9    C53   S    
C46   C50   A    
C40   C68   S    
C51   C52   A    
C45   C49   A    
O8    C4    A    
C22   C26   A    
C54   O22   D    
O9    C5    A    
C46   H9    S    
C9    C29   A    
O6    V2    S    
C45   H10   S    
C56   O24   D    
C65   H25   S    
C64   O32   D    
C67   H27   S    
C23   C27   A    
C61   H21   S    
O16   V4    S    
C38   C66   S    
C24   C28   A    
C34   C45   A    
C3    O13   A    
C33   C46   A    
C68   O36   D    
C10   C14   A    
C35   C48   A    
C67   O35   D    
C66   O34   D    
O6    C2    A    
C15   C19   A    
C63   H23   S    
C55   O23   D    
O11   V3    S    
C68   H28   S    
C2    C36   S    
O12   V4    S    
C22   H2    S    
C7    C17   S    
O10   C6    A    
O20   V2    S    
C64   H24   S    
C12   C32   A    
C13   C57   S    
C34   C41   A    
C54   H14   S    
C62   O30   D    
C13   C17   A    
C29   C30   S    
C15   C59   S    
C10   C54   S    
C40   C51   A    
C21   C25   A    
C31   C32   S    
C3    C33   S    
C16   C20   A    
C39   C67   S    
C57   O25   D    
C56   H16   S    
C4    O14   A    
C65   O33   D    
C17   C21   A    
C11   C31   A    
C35   C44   A    
C53   H13   S    
C24   H4    S    
C19   C23   A    
O4    V2    S    
C20   C24   A    
C11   C55   S    
C61   O29   D    
