data_mof_unit_4997.cif
_audit_creation_date              2013-03-05T16:03:26-0500
_audit_creation_method            fapswitch 2.2
_symmetry_space_group_name_H-M    P1
_symmetry_Int_Tables_number       1
_space_group_crystal_system       triclinic
_cell_length_a                    6.952931
_cell_length_b                    18.294428
_cell_length_c                    20.215166
_cell_angle_alpha                 68.499991
_cell_angle_beta                  90.187416
_cell_angle_gamma                 90.426054
_cell_volume                      2392.37833023

loop_
_atom_site_label
_atom_site_type_symbol
_atom_site_description
_atom_site_fract_x
_atom_site_fract_y
_atom_site_fract_z
_atom_type_partial_charge
O1    O     O_R   0.488960 0.443750 0.941980 -0.596301
O2    O     O_R   0.823890 0.406510 0.087590 -0.594211
O3    O     O_R   0.999680 0.556250 0.058020 -0.567201
C1    C     C_R   0.655360 0.386328 0.116973 1.010796
O4    O     O_R   0.818360 0.434410 0.944340 -0.596000
O5    O     O_R   0.994110 0.584350 0.913750 -0.599375
C2    C     C_R   0.649922 0.420609 0.923753 0.962248
O6    O     O_R   0.494530 0.415650 0.086250 -0.564816
O7    O     O_3   0.662590 0.549160 0.990130 -0.263910
V1    V     V_3+5 0.935320 0.490880 0.001830 1.223917
O8    O     O_R   0.324180 0.593490 0.912410 -0.601943
C3    C     C_R   0.155144 0.617184 0.885979 0.943736
O9    O     O_R   0.329720 0.565590 0.055660 -0.551380
C4    C     C_R   0.161584 0.579961 0.075680 0.997917
V2    V     V_3+5 0.435990 0.509120 0.998170 1.239472
O10   O     O_3   0.158850 0.450840 0.009870 -0.272156
C5    C     C_3   0.005762 0.714824 0.302578 -0.111032
C6    C     C_3   0.189404 0.677847 0.286694 -0.000384
C7    C     C_1   0.154871 0.625463 0.120988 -0.154782
C8    C     C_1   0.109259 0.879504 0.374453 -0.136817
C9    C     C_3   0.955561 0.745244 0.222831 0.302183
C10   C     C_3   0.139975 0.708385 0.206654 -0.034780
C11   C     C_3   0.066925 0.821635 0.212458 -0.092542
C12   C     C_3   0.116861 0.791852 0.292588 0.032016
C13   C     C_3   0.253980 0.786084 0.195206 -0.106521
C14   C     C_3   0.300180 0.754335 0.276149 0.078613
C15   C     C_1   0.148953 0.662851 0.159573 0.170736
C16   C     C_1   0.111817 0.839971 0.337626 0.136268
H1    H     H_    0.353460 0.817420 0.151005 0.215521
H2    H     H_    0.164646 0.512698 0.693634 0.171188
C17   C     C_R   0.117597 0.773724 0.878546 -0.262047
C18   C     C_R   0.086856 0.848036 0.880285 -0.004936
C19   C     C_R   0.066822 0.912004 0.816607 0.371900
C20   C     C_R   0.083450 0.902151 0.750711 -0.204047
C21   C     C_R   0.109778 0.825181 0.747943 0.095062
C22   C     C_R   0.124932 0.760368 0.813909 0.079980
C23   C     C_R   0.119784 0.810942 0.682498 -0.234407
C24   C     C_R   0.138235 0.730878 0.684831 -0.117517
C25   C     C_R   0.146964 0.666607 0.752217 0.095392
C26   C     C_R   0.144959 0.682568 0.815943 -0.220362
C27   C     C_R   0.145585 0.711516 0.622107 0.198589
C28   C     C_R   0.153827 0.633143 0.625834 0.373028
C29   C     C_R   0.157127 0.572835 0.691075 -0.351247
C30   C     C_R   0.156053 0.587386 0.753637 -0.043673
H3    H     H_    0.131542 0.725871 0.929257 0.102781
C31   C     C_R   0.520448 0.104240 0.248852 -0.364517
C32   C     C_R   0.483716 0.094427 0.184325 0.285431
C33   C     C_R   0.509688 0.158557 0.119882 0.283842
C34   C     C_R   0.559387 0.232048 0.121514 -0.324914
C35   C     C_R   0.592152 0.243310 0.186209 0.091143
C36   C     C_R   0.576958 0.177603 0.251085 0.088854
C37   C     C_R   0.642132 0.318627 0.186422 -0.251230
C38   C     C_R   0.681050 0.327647 0.252663 -0.051497
C39   C     C_R   0.683307 0.259644 0.316781 0.080471
C40   C     C_R   0.622533 0.185530 0.316575 -0.221860
C41   C     C_R   0.718630 0.402238 0.257925 0.298940
C42   C     C_R   0.784259 0.406746 0.321876 -0.216749
C43   C     C_R   0.799457 0.339519 0.383127 0.048605
C44   C     C_R   0.743335 0.267273 0.380897 -0.191857
H4    H     H_    0.502307 0.053743 0.297522 0.174784
H5    H     H_    0.577900 0.279861 0.070977 0.155340
H6    H     H_    0.814000 0.463799 0.324641 0.161765
H7    H     H_    0.748491 0.217171 0.430368 0.117646
O11   O     O_R   0.770540 0.084530 0.414050 -0.603504
O12   O     O_R   0.445710 0.065660 0.555720 -0.598431
O13   O     O_R   0.270420 0.915650 0.586190 -0.572395
C45   C     C_R   0.614216 0.080292 0.575796 0.964202
O14   O     O_R   0.441140 0.093540 0.412470 -0.600264
O15   O     O_R   0.265820 0.943740 0.441930 -0.564756
C46   C     C_R   0.610275 0.116153 0.384765 0.915064
O16   O     O_R   0.775150 0.056440 0.558310 -0.605985
O17   O     O_3   0.602370 0.950960 0.510050 -0.235933
V3    V     V_3+5 0.329450 0.009140 0.498150 1.208769
O18   O     O_R   0.935790 0.934280 0.444060 -0.573322
C47   C     C_R   0.103228 0.925339 0.419713 1.054428
O19   O     O_R   0.940370 0.906390 0.587310 -0.581431
C48   C     C_R   0.109828 0.879861 0.612845 1.038879
V4    V     V_3+5 0.828810 0.990710 0.501460 1.220933
O20   O     O_3   0.105780 0.049100 0.489960 -0.298689
C49   C     C_3   0.732101 0.319300 0.715552 0.000787
C50   C     C_3   0.544715 0.297655 0.684998 -0.176029
H8    H     H_    0.470034 0.334156 0.635386 0.143600
C51   C     C_1   0.620660 0.127306 0.619884 -0.300703
C52   C     C_1   0.644305 0.375922 0.877693 -0.247081
C53   C     C_3   0.809725 0.236006 0.732601 -0.079298
C54   C     C_3   0.623509 0.212788 0.703654 0.061100
C55   C     C_3   0.720196 0.210385 0.807041 0.362565
C56   C     C_3   0.644675 0.294275 0.790661 -0.043422
C57   C     C_3   0.531841 0.185663 0.779250 -0.176319
C58   C     C_3   0.460110 0.270854 0.761113 0.014743
C59   C     C_1   0.621510 0.166289 0.657202 0.072207
C60   C     C_1   0.645159 0.339055 0.838593 0.093113
H9    H     H_    0.446128 0.131405 0.805823 0.214308
N1    N     N_3   0.256129 0.598964 0.328142 -0.199622
H10   H     H_    0.286069 0.597152 0.379407 0.149812
H11   H     H_    0.386634 0.591073 0.306261 0.180849
N2    N     N_R   0.026593 0.987911 0.818655 0.218881
O21   O     O_R   0.141454 0.018704 0.852420 -0.354882
O22   O     O_R   0.860211 0.019978 0.797072 -0.429722
N3    N     N_3   0.077753 0.971493 0.687457 -0.192348
H12   H     H_    0.944143 0.998230 0.684318 0.162467
H13   H     H_    0.185245 0.010456 0.690482 0.128631
N4    N     N_R   0.140514 0.769936 0.553137 0.203749
O23   O     O_R   0.304384 0.794310 0.521665 -0.380578
O24   O     O_R   0.986918 0.773556 0.515187 -0.415633
N5    N     N_R   0.156557 0.613706 0.562879 0.253210
O25   O     O_R   0.066192 0.551366 0.562332 -0.437846
O26   O     O_R   0.268466 0.651542 0.509697 -0.366712
N6    N     N_3   0.162990 0.519501 0.818105 -0.180676
H14   H     H_    0.287391 0.488001 0.817426 0.118279
H15   H     H_    0.044242 0.483630 0.819200 0.122135
N7    N     N_3   0.861154 0.344030 0.449384 -0.209245
H16   H     H_    0.892968 0.402189 0.443009 0.122200
H17   H     H_    0.989812 0.312911 0.463722 0.114928
N8    N     N_R   0.414151 0.019868 0.185287 0.249671
O27   O     O_R   0.291847 0.016647 0.137601 -0.338351
O28   O     O_R   0.452070 0.955872 0.238996 -0.462342
N9    N     N_R   0.495435 0.149352 0.052394 0.273457
O29   O     O_R   0.573410 0.089044 0.043729 -0.271093
O30   O     O_R   0.431168 0.206485 0.996926 -0.375878
N10   N     N_3   0.872416 0.675504 0.360256 -0.185628
H18   H     H_    0.831139 0.622567 0.355582 0.148698
H19   H     H_    0.949012 0.661089 0.407850 0.196499
N11   N     N_R   0.663964 0.474259 0.203198 0.219899
O31   O     O_R   0.481892 0.487374 0.189721 -0.414632
O32   O     O_R   0.782398 0.533634 0.184268 -0.382431
N12   N     N_3   0.839907 0.391731 0.680730 -0.176875
H20   H     H_    0.903890 0.387922 0.635417 0.151311
H21   H     H_    0.950759 0.393565 0.715006 0.111092
N13   N     N_3   0.269754 0.291732 0.777550 -0.182120
H22   H     H_    0.264448 0.353068 0.758653 0.088153
H23   H     H_    0.259734 0.272594 0.832875 0.204157
N14   N     N_R   0.816734 0.162622 0.872474 0.275543
O33   O     O_R   0.752861 0.092508 0.909283 -0.255126
O34   O     O_R   0.965233 0.190291 0.895017 -0.356445
N15   N     N_3   0.003107 0.217974 0.716039 -0.188197
H24   H     H_    0.013221 0.157084 0.731633 0.191368
H25   H     H_    0.018217 0.241382 0.660753 0.100036
N16   N     N_3   0.489249 0.755456 0.306871 -0.180497
H26   H     H_    0.540405 0.813160 0.287150 0.180801
H27   H     H_    0.471366 0.739582 0.361679 0.157758
N17   N     N_3   0.996589 0.900183 0.172073 -0.122329
H28   H     H_    0.980865 0.904922 0.119243 0.204311
H29   H     H_    0.859563 0.904862 0.191198 0.166343
N18   N     N_R   0.768296 0.739682 0.192518 0.232075
O35   O     O_R   0.675465 0.673156 0.215101 -0.379878
O36   O     O_R   0.714951 0.794341 0.133484 -0.430520
N19   N     N_3   0.071901 0.859031 0.946997 -0.141580
H30   H     H_    0.929099 0.873267 0.952675 0.182740
H31   H     H_    0.100790 0.806792 0.989602 0.111847

loop_
_geom_bond_atom_site_label_1
_geom_bond_atom_site_label_2
_geom_bond_distance
_ccdc_geom_bond_type
C55   C56   1.542428 S    
C45   C51   1.448172 S    
C27   C28   1.409505 A    
C55   N14   1.455821 S    
O2    C1    1.303669 A    
C21   C22   1.427306 A    
C6    C14   1.537248 S    
C1    O6    1.297733 A    
N7    H17   1.045588 S    
N18   O35   1.299693 A    
C42   H6    1.083876 S    
C53   C54   1.538919 S    
C32   N8    1.437237 S    
C49   C53   1.535630 S    
C1    C37   1.496017 S    
C43   N7    1.435812 S    
C41   N11   1.428513 S    
C21   C23   1.440988 A    
N19   H31   1.045870 S    
C54   C59   1.480165 S    
N6    H15   1.046070 S    
O5    C3    1.294818 A    
C24   C25   1.438167 A    
C45   O16   1.300127 A    
N5    O25   1.301576 A    
V2    O10   2.166423 S    
O12   V3    1.985063 S    
C41   C42   1.400010 A    
C5    C6    1.538127 S    
C20   C21   1.442599 A    
N9    O29   1.301192 A    
O17   V4    1.711720 S    
N2    O22   1.300757 A    
C31   C32   1.402761 A    
O8    V2    2.009950 S    
N17   H28   1.044772 S    
C56   C60   1.480469 S    
N8    O28   1.299999 A    
C10   C13   1.563892 S    
C20   N3    1.434328 S    
C11   C12   1.547099 S    
C11   N17   1.455509 S    
O15   V3    1.975958 S    
O1    V2    1.964965 S    
O11   C46   1.296566 A    
C7    C15   1.212302 T    
O7    V1    2.151944 S    
C36   C40   1.418261 A    
C50   C54   1.560454 S    
C30   N6    1.434290 S    
C2    C52   1.447109 S    
O1    C2    1.300612 A    
O9    C4    1.298163 A    
C57   H9    1.109715 S    
N7    H16   1.045845 S    
N18   O36   1.299816 A    
N2    O21   1.301022 A    
C39   C44   1.414855 A    
C53   C55   1.535062 S    
C13   H1    1.108211 S    
C5    C12   1.549031 S    
C34   H5    1.081469 S    
O18   C47   1.299967 A    
C22   C26   1.416637 A    
O19   C48   1.308096 A    
C24   C27   1.437281 A    
N15   H25   1.045360 S    
C14   N16   1.455280 S    
C25   C26   1.421584 A    
O4    C2    1.295353 A    
V4    O20   2.166552 S    
O17   V3    2.151972 S    
C33   N9    1.437606 S    
C8    C16   1.213502 T    
O12   C45   1.296487 A    
C13   C14   1.555843 S    
C38   C39   1.430437 A    
O13   V3    2.006071 S    
C23   C48   1.508790 S    
C31   C36   1.412160 A    
C50   H8    1.110044 S    
C27   N4    1.412584 S    
C8    C47   1.450889 S    
C9    N18   1.455917 S    
C3    C26   1.483077 S    
N13   H23   1.044706 S    
C29   C30   1.384660 A    
N12   H21   1.043287 S    
C23   C24   1.454717 A    
C35   C37   1.420079 A    
C32   C33   1.408632 A    
N16   H26   1.042458 S    
N3    H13   1.046006 S    
C35   C36   1.421116 A    
V3    O20   1.704956 S    
N4    O24   1.300720 A    
N19   H30   1.045633 S    
N1    H11   1.044628 S    
C28   N5    1.441658 S    
N10   H18   1.044987 S    
O3    C4    1.298641 A    
C50   C58   1.550041 S    
C5    N10   1.455651 S    
C33   C34   1.397727 A    
C56   C58   1.536733 S    
O6    V2    2.008456 S    
C10   C15   1.478491 S    
C9    C11   1.538427 S    
C17   H3    1.081420 S    
N14   O33   1.300119 A    
C6    N1    1.456349 S    
N17   H29   1.045168 S    
H2    C29   1.083938 S    
C43   C44   1.391789 A    
C28   C29   1.375060 A    
N12   H20   1.044874 S    
O2    V1    2.004439 S    
C37   C38   1.432646 A    
N11   O32   1.299424 A    
C38   C41   1.429208 A    
O13   C48   1.303939 A    
C39   C40   1.418642 A    
C31   H4    1.081762 S    
C6    C10   1.544293 S    
O11   V4    2.003744 S    
C4    C7    1.446952 S    
C17   C18   1.390880 A    
C12   C16   1.480958 S    
O19   V4    2.009915 S    
C49   C50   1.549885 S    
C54   C57   1.560002 S    
O5    V1    2.006009 S    
O8    C3    1.299384 A    
C25   C30   1.440888 A    
C18   N19   1.438762 S    
C49   N12   1.455396 S    
C51   C59   1.213264 T    
C44   H7    1.081614 S    
C18   C19   1.393915 A    
O9    V2    1.964915 S    
N13   H22   1.045343 S    
O14   V3    2.004437 S    
O4    V1    1.985097 S    
C49   C56   1.541709 S    
O3    V1    1.976138 S    
V1    O10   1.704846 S    
N6    H14   1.045802 S    
N16   H27   1.044928 S    
C12   C14   1.545673 S    
C42   C43   1.393463 A    
N5    O26   1.300906 A    
N3    H12   1.043984 S    
C19   C20   1.413392 A    
O15   C47   1.301880 A    
C19   N2    1.434005 S    
C11   C13   1.554967 S    
O7    V2    1.715383 S    
N1    H10   1.044956 S    
N9    O30   1.301552 A    
N10   H19   1.044791 S    
C40   C46   1.495004 S    
C53   N15   1.455779 S    
C58   N13   1.453085 S    
O14   C46   1.301921 A    
C34   C35   1.414047 A    
O18   V4    1.964833 S    
N4    O23   1.300396 A    
N14   O34   1.299305 A    
C55   C57   1.551739 S    
C17   C22   1.415729 A    
N15   H24   1.043452 S    
C52   C60   1.212645 T    
C57   C58   1.550385 S    
C9    C10   1.543689 S    
O16   V4    1.982011 S    
N8    O27   1.300547 A    
N11   O31   1.299510 A    
C5    C9    1.540125 S    
