data_mof_unit_1163.cif
_audit_creation_date              2012-12-10T17:01:35-0500
_audit_creation_method            fapswitch 2.2
_symmetry_space_group_name_H-M    P1
_symmetry_Int_Tables_number       1
_space_group_crystal_system       triclinic
_cell_length_a                    10.041217
_cell_length_b                    11.018475
_cell_length_c                    12.965446
_cell_angle_alpha                 85.360578
_cell_angle_beta                  75.365393
_cell_angle_gamma                 111.808431
_cell_volume                      1263.99343664

loop_
_atom_site_label
_atom_site_type_symbol
_atom_type_description
_atom_site_fract_x
_atom_site_fract_y
_atom_site_fract_z
_atom_type_partial_charge
C1    C     C_R   0.436931 0.252761 0.511490 0.723853
C2    C     C_R   0.563145 0.747428 0.488317 0.775077
C3    C     C_2   0.083310 0.513977 0.487213 0.331125
C4    C     C_2   0.916517 0.485755 0.512739 0.415082
C5    C     C_R   0.472452 0.495949 0.702195 0.860382
C6    C     C_R   0.526700 0.501136 0.298047 0.827454
C7    C     C_R   0.543213 0.504414 0.183232 -0.125232
C8    C     C_R   0.455601 0.485781 0.817250 -0.065379
C9    C     C_R   0.314823 0.362332 0.999247 0.166340
C10   C     C_R   0.693541 0.612922 0.998755 0.142242
C11   C     C_R   0.328423 0.385539 0.890048 -0.196382
C12   C     C_R   0.675827 0.596281 0.108770 -0.123833
C13   C     C_R   0.572386 0.569352 0.851661 0.117780
C14   C     C_R   0.427835 0.417557 0.148343 0.075289
C15   C     C_R   0.569517 0.542229 0.961276 0.012062
C16   C     C_R   0.436130 0.438766 0.037295 0.076499
C17   C     C_2   0.397631 0.109385 0.530933 0.222573
C18   C     C_2   0.602247 0.891109 0.468920 0.217611
C19   C     C_2   0.505841 0.068508 0.485289 -0.137906
C20   C     C_2   0.490863 0.930973 0.508413 -0.126959
Cu1   Cu    Cu3+1 0.647370 0.522180 0.481340 1.088209
Cu2   Cu    Cu3+1 0.352630 0.477820 0.518660 1.062355
H1    H     H_    0.768143 0.656436 0.136435 0.202112
H2    H     H_    0.238495 0.322939 0.861403 0.177744
H3    H     H_    0.382554 0.857168 0.559310 0.218179
H4    H     H_    0.610825 0.141387 0.429163 0.209879
H5    H     H_    0.939249 0.625150 0.385152 0.274773
H6    H     H_    0.061653 0.378479 0.616999 0.268456
N1    N     N_2   0.131210 0.444490 0.546730 -0.307354
N2    N     N_2   0.868790 0.555510 0.453270 -0.323790
O1    O     O_R   0.578710 0.332530 0.490040 -0.544440
O2    O     O_R   0.421290 0.667470 0.509960 -0.545426
O3    O     O_R   0.329810 0.295070 0.521560 -0.543104
O4    O     O_R   0.670190 0.704930 0.478440 -0.543363
O5    O     O_R   0.604230 0.515670 0.637800 -0.498864
O6    O     O_R   0.395770 0.484330 0.362200 -0.544966
O7    O     O_R   0.355330 0.478200 0.669330 -0.603794
O8    O     O_R   0.644670 0.521800 0.330670 -0.580431
N3    N     N_3   0.308440 0.303773 0.224349 -0.583030
H7    H     H_    0.354209 0.253248 0.266903 0.239705
H8    H     H_    0.236666 0.334059 0.278802 0.258036
N4    N     N_3   0.681324 0.688003 0.775453 -0.569274
H9    H     H_    0.786273 0.683786 0.749007 0.276559
H10   H     H_    0.684651 0.772403 0.807960 0.247258
N5    N     N_3   0.174723 0.260768 0.067564 -0.525032
H11   H     H_    0.123060 0.300832 0.127643 0.267764
H12   H     H_    0.192936 0.180861 0.100723 0.291913
N6    N     N_3   0.843116 0.694150 0.929413 -0.545007
H13   H     H_    0.849979 0.784566 0.892018 0.258932
H14   H     H_    0.880180 0.640728 0.874338 0.268580
S1    S     S_3+6 0.784231 0.001605 0.381770 0.042124
O9    O     O_2   0.768040 0.059342 0.278921 -0.253311
O10   O     O_2   0.854322 0.113643 0.435878 -0.257327
O11   O     O_3   0.899668 0.922975 0.348732 -0.474346
H15   H     H_    0.942571 0.922343 0.409614 0.391253
S2    S     S_3+6 0.220222 0.001092 0.625292 0.034811
O12   O     O_2   0.133206 0.899945 0.569524 -0.231432
O13   O     O_2   0.244449 0.929353 0.717854 -0.289702
O14   O     O_3   0.117542 0.085654 0.675814 -0.472755
H16   H     H_    0.165443 0.132170 0.727658 0.344386
S3    S     S_3+6 0.795128 0.354027 0.631099 0.022756
O15   O     O_2   0.627806 0.306369 0.662370 -0.264354
O16   O     O_2   0.827195 0.232781 0.615444 -0.272565
O17   O     O_3   0.846609 0.408341 0.738536 -0.580789
H17   H     H_    0.804911 0.327509 0.795982 0.381728
S4    S     S_3+6 0.204977 0.648274 0.370722 0.031539
O18   O     O_2   0.176033 0.769674 0.392081 -0.252615
O19   O     O_2   0.372154 0.693514 0.337078 -0.246071
O20   O     O_3   0.150876 0.603266 0.261881 -0.534356
H18   H     H_    0.172682 0.523946 0.250647 0.340772

loop_
_geom_bond_atom_site_label_1
_geom_bond_atom_site_label_2
_ccdc_geom_bond_type
S3    O17   S    
S4    O19   D    
C6    O8    A    
C9    N5    S    
C8    C13   A    
Cu1   O5    S    
Cu2   N1    S    
C5    O7    A    
C2    C18   S    
Cu1   O1    S    
Cu1   N2    S    
C1    C17   S    
C19   C20   S    
C17   S2    S    
S2    O14   S    
S1    O11   S    
O17   H17   S    
C2    O4    A    
N6    H14   S    
S4    O18   D    
C14   N3    S    
N4    H10   S    
C1    O3    A    
O14   H16   S    
N3    H8    S    
N5    H11   S    
H5    N2    S    
C9    C11   A    
C12   H1    S    
C3    N1    D    
C6    C7    S    
Cu2   O2    S    
Cu2   O3    S    
C8    C11   A    
N6    H13   S    
C5    O5    A    
H6    N1    S    
C17   C19   D    
C9    C16   A    
S2    O13   D    
C18   S1    S    
C18   C20   D    
C10   C15   A    
C13   C15   A    
C10   N6    S    
S3    O15   D    
C10   C12   A    
O20   H18   S    
C7    C12   A    
C3    S4    S    
C20   H3    S    
C15   C16   A    
S4    O20   S    
C11   H2    S    
C1    O1    A    
Cu2   O6    S    
S2    O12   D    
C3    C4    S    
C2    O2    A    
N4    H9    S    
N5    H12   S    
N3    H7    S    
S3    O16   D    
C19   H4    S    
C5    C8    S    
O11   H15   S    
C13   N4    S    
Cu1   O4    S    
C14   C16   A    
Cu1   Cu2   S    
Cu2   O7    S    
C4    S3    S    
C7    C14   A    
C4    N2    D    
Cu1   O8    S    
S1    O9    D    
C6    O6    A    
S1    O10   D    
