data_mof_unit_4226.cif
_audit_creation_date              2012-12-11T15:52:35-0500
_audit_creation_method            fapswitch 2.2
_symmetry_space_group_name_H-M    P1
_symmetry_Int_Tables_number       1
_space_group_crystal_system       triclinic
_cell_length_a                    6.926276
_cell_length_b                    14.558294
_cell_length_c                    16.019713
_cell_angle_alpha                 90.278693
_cell_angle_beta                  89.959118
_cell_angle_gamma                 90.015134
_cell_volume                      1615.32437779

loop_
_atom_site_label
_atom_site_type_symbol
_atom_type_description
_atom_site_fract_x
_atom_site_fract_y
_atom_site_fract_z
_atom_type_partial_charge
O1    O     O_R   0.494400 0.415640 0.412830 -0.546653
O2    O     O_R   0.823920 0.405510 0.586560 -0.549520
O3    O     O_R   0.994250 0.584360 0.587170 -0.513655
C1    C     C_R   0.654790 0.383247 0.615339 0.711412
O4    O     O_R   0.824110 0.404610 0.413450 -0.548789
O5    O     O_R   0.994440 0.583460 0.412820 -0.538687
C2    C     C_R   0.655065 0.382181 0.384330 0.672023
O6    O     O_R   0.494210 0.416540 0.587180 -0.545947
O7    O     O_3   0.660810 0.558680 0.500000 -0.346628
V1    V     V_3+5 0.935650 0.489110 0.500000 1.458378
O8    O     O_R   0.324150 0.594490 0.413440 -0.543472
C3    C     C_R   0.155124 0.616677 0.384359 0.712234
O9    O     O_R   0.323970 0.595390 0.586550 -0.540687
C4    C     C_R   0.154988 0.617877 0.615453 0.752384
V2    V     V_3+5 0.435660 0.510890 0.500000 1.464091
O10   O     O_3   0.160630 0.441320 0.500000 -0.382950
C5    C     C_3   0.041778 0.646269 0.763511 -0.406406
H1    H     H_    0.894011 0.622616 0.746661 0.180528
H2    H     H_    0.122999 0.584878 0.785104 0.142527
C6    C     C_3   0.028047 0.717510 0.835835 -0.346250
H3    H     H_    0.100499 0.689704 0.892305 0.141150
H4    H     H_    0.873566 0.728780 0.852116 0.154010
H5    H     H_    0.864635 0.861357 0.747137 0.151577
C7    C     C_3   0.028802 0.775347 0.658944 1.120238
C8    C     C_3   0.348837 0.719358 0.714081 -0.355689
C9    C     C_3   0.143802 0.688222 0.686005 -0.061539
H6    H     H_    0.427784 0.750520 0.660714 0.236601
H7    H     H_    0.434255 0.658867 0.734879 0.159412
C10   C     C_3   0.123116 0.809899 0.810720 -0.028499
C11   C     C_3   0.018303 0.846349 0.731912 -0.359514
C12   C     C_3   0.336802 0.789860 0.786253 -0.331301
H8    H     H_    0.416798 0.762791 0.841135 0.153665
H9    H     H_    0.409612 0.854533 0.766878 0.170502
H10   H     H_    0.084980 0.912407 0.712363 0.165989
C13   C     C_R   0.953239 0.773620 0.215887 -0.153288
H11   H     H_    0.812410 0.791752 0.191769 0.114880
C14   C     C_R   0.964320 0.710486 0.281462 -0.129809
H12   H     H_    0.831460 0.681794 0.305637 0.119281
C15   C     C_R   0.143998 0.684665 0.315169 -0.037480
C16   C     C_R   0.312272 0.723815 0.281367 -0.138800
H13   H     H_    0.453101 0.705684 0.305486 0.120684
C17   C     C_R   0.301191 0.786952 0.215794 -0.147485
H14   H     H_    0.434051 0.815648 0.191624 0.118629
C18   C     C_R   0.121516 0.812755 0.182071 -0.045940
C19   C     C_R   0.809264 0.265980 0.708318 -0.228226
H15   H     H_    0.946941 0.278084 0.678218 0.146933
C20   C     C_R   0.799547 0.200665 0.771935 0.620033
C21   C     C_R   0.623059 0.182545 0.813012 -0.176865
C22   C     C_R   0.457643 0.230993 0.787745 -0.212967
H16   H     H_    0.320035 0.219366 0.817919 0.206559
C23   C     C_R   0.467684 0.295764 0.723623 -0.149159
H17   H     H_    0.337214 0.331824 0.706136 0.136257
C24   C     C_R   0.643823 0.314250 0.683246 -0.131778
C25   C     C_R   0.812162 0.273955 0.281400 -0.151372
H18   H     H_    0.952990 0.292324 0.305555 0.116528
C26   C     C_R   0.801065 0.210089 0.215865 -0.144766
H19   H     H_    0.933912 0.181095 0.191753 0.119052
C27   C     C_R   0.621388 0.183949 0.182111 -0.043186
C28   C     C_R   0.453121 0.223491 0.215842 -0.151649
H20   H     H_    0.312298 0.205118 0.191684 0.116210
C29   C     C_R   0.464218 0.287360 0.281379 -0.147181
H21   H     H_    0.331379 0.316358 0.305495 0.116550
C30   C     C_R   0.643900 0.313498 0.315132 -0.042378
O11   O     O_R   0.771300 0.080930 0.910090 -0.497286
O12   O     O_R   0.441270 0.092800 0.083770 -0.547206
O13   O     O_R   0.271080 0.913920 0.084380 -0.545211
C31   C     C_R   0.610280 0.115262 0.112913 0.674887
O14   O     O_R   0.441580 0.091910 0.910670 -0.538053
O15   O     O_R   0.271390 0.913020 0.910040 -0.542084
C32   C     C_R   0.610928 0.113933 0.881548 0.745241
O16   O     O_R   0.770990 0.081830 0.084440 -0.544016
O17   O     O_3   0.604750 0.938760 0.997250 -0.382976
V3    V     V_3+5 0.329850 0.008280 0.997210 1.447064
O18   O     O_R   0.941680 0.901940 0.910610 -0.543007
C33   C     C_R   0.111019 0.879593 0.881677 0.724658
O19   O     O_R   0.941370 0.902830 0.083720 -0.548467
C34   C     C_R   0.110393 0.880705 0.112848 0.670935
V4    V     V_3+5 0.829860 0.986420 0.997150 1.450528
O20   O     O_3   0.104830 0.056030 0.997180 -0.353274
F1    F     F_    0.117834 0.815423 0.590625 -0.689695
F2    F     F_    0.963320 0.154708 0.792113 -0.703982
F3    F     F_    0.842641 0.751225 0.635636 -0.697860

loop_
_geom_bond_atom_site_label_1
_geom_bond_atom_site_label_2
_ccdc_geom_bond_type
C8    C12   S    
C1    C24   S    
C13   H11   S    
C1    O6    A    
C19   H15   S    
C8    H7    S    
C10   C11   S    
C5    C9    S    
C18   C34   S    
C13   C14   A    
O19   V4    S    
O5    C3    A    
C25   C30   A    
V2    O10   S    
C5    C6    S    
O12   V3    S    
C26   H19   S    
C29   C30   A    
C7    F3    S    
O17   V4    S    
O8    V2    S    
C7    F1    S    
C12   H8    S    
C22   C23   A    
C12   H9    S    
O15   V3    S    
O1    V2    S    
O11   C32   A    
O7    V1    S    
C16   C17   A    
C19   C24   A    
C28   H20   S    
O9    C4    A    
C17   C18   A    
C8    C9    S    
C6    C10   S    
C19   C20   A    
C25   C26   A    
C28   C29   A    
O18   C33   A    
C11   H10   S    
C23   H17   S    
H5    C11   S    
O19   C34   A    
C21   C32   S    
C15   C16   A    
O4    C2    A    
V4    O20   S    
O12   C31   A    
O14   V3    S    
O13   V3    S    
C23   C24   A    
O2    C1    A    
C14   H12   S    
C20   C21   A    
C10   C12   S    
C5    H1    S    
V3    O20   S    
C4    C9    S    
C13   C18   A    
C2    C30   S    
O3    C4    A    
C16   H13   S    
C6    H4    S    
O6    V2    S    
O9    V2    S    
C17   H14   S    
O2    V1    S    
O13   C34   A    
C25   H18   S    
C21   C22   A    
O1    C2    A    
O11   V4    S    
C7    C9    S    
O17   V3    S    
O5    V1    S    
O8    C3    A    
C10   C33   S    
C8    H6    S    
C3    C15   S    
C27   C28   A    
O4    V1    S    
C14   C15   A    
O3    V1    S    
V1    O10   S    
C5    H2    S    
C26   C27   A    
O15   C33   A    
C31   O16   A    
C20   F2    S    
O7    V2    S    
C29   H21   S    
C7    C11   S    
C27   C31   S    
C6    H3    S    
O14   C32   A    
C22   H16   S    
O18   V4    S    
O16   V4    S    
