data_mof_unit_2666.cif
_audit_creation_date              2012-12-11T17:09:37-0500
_audit_creation_method            fapswitch 2.2
_symmetry_space_group_name_H-M    P1
_symmetry_Int_Tables_number       1
_space_group_crystal_system       triclinic
_cell_length_a                    14.814291
_cell_length_b                    6.918382
_cell_length_c                    13.515969
_cell_angle_alpha                 90.001168
_cell_angle_beta                  99.83521
_cell_angle_gamma                 90.001177
_cell_volume                      1364.9050835

loop_
_atom_site_label
_atom_site_type_symbol
_atom_type_description
_atom_site_fract_x
_atom_site_fract_y
_atom_site_fract_z
_atom_type_partial_charge
O1    O     O_R   0.586930 0.505770 0.416350 -0.537987
O2    O     O_R   0.413070 0.005770 0.583650 -0.537967
O3    O     O_R   0.397900 0.173100 0.389630 -0.536589
O4    O     O_R   0.602100 0.673100 0.610370 -0.536580
C1    C     C_R   0.364213 0.345429 0.362844 0.728005
C2    C     C_R   0.635786 0.845433 0.637157 0.728011
O5    O     O_R   0.585280 0.175870 0.404330 -0.546861
O6    O     O_R   0.414720 0.675870 0.595670 -0.546860
O7    O     O_R   0.601790 0.008380 0.598460 -0.534436
O8    O     O_R   0.398210 0.508380 0.401540 -0.534439
C3    C     C_R   0.614621 0.344794 0.382834 0.722272
C4    C     C_R   0.385372 0.844792 0.617159 0.722299
O9    O     O_3   0.505200 0.340120 0.563670 -0.368085
O10   O     O_3   0.494800 0.840120 0.436330 -0.368109
V1    V     V_3+5 0.499040 0.064180 0.488190 1.440463
V2    V     V_3+5 0.500960 0.564180 0.511810 1.440476
C5    C     C_R   0.244230 0.986564 0.669142 0.093852
C6    C     C_R   0.755700 0.486794 0.330801 0.093689
C7    C     C_R   0.315855 0.852124 0.683760 -0.155919
C8    C     C_R   0.684149 0.352141 0.316241 -0.155963
C9    C     C_R   0.316435 0.715906 0.761332 -0.206886
C10   C     C_R   0.683609 0.215856 0.238712 -0.206780
H1    H     H_    0.369508 0.606540 0.773765 0.166460
H2    H     H_    0.630559 0.106436 0.226299 0.166376
C11   C     C_R   0.253391 0.728559 0.828567 0.367669
C12   C     C_R   0.746632 0.228537 0.171465 0.367713
C13   C     C_R   0.184856 0.874785 0.816622 -0.164538
C14   C     C_R   0.815147 0.374798 0.183389 -0.164591
C15   C     C_R   0.179979 0.996137 0.732839 0.021703
C16   C     C_R   0.819981 0.496341 0.267107 0.021364
C17   C     C_3   0.173955 0.210990 0.724541 -0.373276
C18   C     C_3   0.825648 0.711333 0.275012 -0.372847
C19   C     C_3   0.244735 0.200366 0.655254 -0.381101
C20   C     C_3   0.754840 0.700756 0.344237 -0.380606
H3    H     H_    0.105519 0.259910 0.685821 0.157175
H4    H     H_    0.894006 0.760920 0.313709 0.157183
H5    H     H_    0.217014 0.243423 0.576718 0.151320
H6    H     H_    0.782442 0.744611 0.422702 0.151270
C21   C     C_1   0.783479 0.877101 0.782842 -0.152256
C22   C     C_1   0.216520 0.377107 0.217159 -0.152267
C23   C     C_1   0.716223 0.860145 0.716795 -0.167095
C24   C     C_1   0.283775 0.360139 0.283205 -0.167105
O11   O     O_R   0.101720 0.231700 0.098560 -0.541377
O12   O     O_R   0.898280 0.731700 0.901440 -0.541385
O13   O     O_R   0.914700 0.558980 0.095690 -0.544436
O14   O     O_R   0.085300 0.058980 0.904310 -0.544393
C25   C     C_R   0.883638 0.389688 0.115281 0.751081
C26   C     C_R   0.116359 0.889687 0.884718 0.751099
O15   O     O_R   0.102080 0.561590 0.110390 -0.531594
O16   O     O_R   0.897920 0.061590 0.889610 -0.531593
O17   O     O_R   0.086950 0.728940 0.916330 -0.518713
O18   O     O_R   0.913050 0.228940 0.083670 -0.518708
C27   C     C_R   0.136092 0.391896 0.137519 0.773973
C28   C     C_R   0.863908 0.891893 0.862481 0.773929
O19   O     O_3   0.994770 0.394510 0.936380 -0.372119
O20   O     O_3   0.005230 0.894510 0.063620 -0.372137
V3    V     V_3+5 0.000970 0.670520 0.011800 1.508528
V4    V     V_3+5 0.999030 0.170520 0.988200 1.508583
Cl1   Cl    Cl    0.270902 0.573729 0.933726 -0.673708
Cl2   Cl    Cl    0.729082 0.073778 0.066274 -0.673962
H7    H     H_    0.199481 0.283917 0.796932 0.232881
H8    H     H_    0.800047 0.783656 0.202448 0.233058
H9    H     H_    0.311450 0.267299 0.687826 0.191445
H10   H     H_    0.688008 0.767064 0.311448 0.191389

loop_
_geom_bond_atom_site_label_1
_geom_bond_atom_site_label_2
_ccdc_geom_bond_type
C13   C26   S    
O4    V2    S    
O5    C3    A    
C1    C24   S    
C17   C19   S    
C14   C25   S    
O19   V3    S    
C25   O18   A    
O17   V3    S    
C11   C13   A    
C5    C15   A    
C17   H7    S    
C12   C14   A    
O1    C3    A    
O6    C4    A    
O12   V3    S    
C19   H9    S    
O2    C4    A    
C2    O7    A    
O5    V1    S    
O7    V1    S    
C18   H8    S    
C1    O8    A    
C15   C17   S    
O1    V2    S    
O8    V2    S    
O14   V4    S    
C16   C18   S    
O2    V1    S    
C6    C20   S    
O13   V3    S    
O16   C28   A    
O13   C25   A    
C5    C19   S    
O15   C27   A    
C18   H4    S    
C4    C7    S    
C14   C16   A    
C7    C9    A    
C8    C10   A    
C20   H10   S    
C22   C27   S    
C6    C8    A    
O9    V1    S    
C9    H1    S    
C6    C16   A    
O18   V4    S    
O10   V2    S    
C3    C8    S    
O19   V4    S    
C21   C28   S    
C13   C15   A    
O16   V4    S    
O14   C26   A    
O12   C28   A    
O15   V3    S    
O20   V3    S    
C21   C23   T    
O4    C2    A    
C10   C12   A    
O9    V2    S    
C9    C11   A    
O10   V1    S    
O3    V1    S    
C17   H3    S    
O6    V2    S    
C11   Cl1   S    
O11   V4    S    
C5    C7    A    
C20   H6    S    
C12   Cl2   S    
O11   C27   A    
C26   O17   A    
C19   H5    S    
C10   H2    S    
O20   V4    S    
C22   C24   T    
O3    C1    A    
C2    C23   S    
C18   C20   S    
