data_mof_unit_404.cif
_audit_creation_date              2012-10-26T19:20:36-0400
_audit_creation_method            fapswitch 2.2
_symmetry_space_group_name_H-M    P1
_symmetry_Int_Tables_number       1
_space_group_crystal_system       triclinic
_cell_length_a                    10.844858
_cell_length_b                    11.038797
_cell_length_c                    9.844722
_cell_angle_alpha                 111.132887
_cell_angle_beta                  100.254724
_cell_angle_gamma                 90.366667
_cell_volume                      1078.52803623

loop_
_atom_site_label
_atom_site_type_symbol
_atom_type_description
_atom_site_fract_x
_atom_site_fract_y
_atom_site_fract_z
_atom_type_partial_charge
Br1   Br    Br    0.679103 0.687714 0.986711 -0.464353
Br2   Br    Br    0.320880 0.312301 0.013293 -0.464350
C1    C     C_R   0.490889 0.253953 0.440505 0.555376
C2    C     C_R   0.737534 0.486525 0.498836 0.535313
C3    C     C_R   0.161148 0.650337 0.769667 -0.082065
C4    C     C_R   0.838859 0.349681 0.230336 -0.082068
C5    C     C_R   0.126500 0.671633 0.905745 0.006554
C6    C     C_R   0.873506 0.328395 0.094261 0.006553
C7    C     C_R   0.015018 0.611150 0.909229 -0.108097
C8    C     C_R   0.984984 0.388886 0.090779 -0.108093
C9    C     C_R   0.934375 0.537619 0.777016 -0.072891
C10   C     C_R   0.065627 0.462413 0.222994 -0.072889
C11   C     C_R   0.962045 0.525885 0.637416 0.013059
C12   C     C_R   0.509112 0.746047 0.559496 0.555372
C13   C     C_R   0.037957 0.474138 0.362590 0.013059
C14   C     C_R   0.084115 0.568069 0.634919 -0.002923
C15   C     C_R   0.915888 0.431950 0.365085 -0.002924
C16   C     C_R   0.873540 0.472253 0.501188 -0.031067
C17   C     C_R   0.126463 0.527763 0.498816 -0.031070
C18   C     C_1   0.207796 0.751556 0.042070 0.213803
C19   C     C_1   0.792219 0.248459 0.957938 0.213803
C20   C     C_2   0.487767 0.114670 0.406796 -0.104598
C21   C     C_2   0.512238 0.885330 0.593204 -0.104597
C22   C     C_2   0.499612 0.069426 0.516397 -0.133455
C23   C     C_2   0.500404 0.930574 0.483604 -0.133452
C24   C     C_2   0.509274 0.510439 0.082020 0.076064
C25   C     C_2   0.490729 0.489557 0.917979 0.076063
C26   C     C_R   0.262467 0.513480 0.501166 0.535315
Cu1   Cu    Cu3+1 0.521920 0.521810 0.644910 1.037279
Cu2   Cu    Cu3+1 0.478080 0.478190 0.355090 1.037282
H1    H     H_    0.010270 0.378459 0.985725 0.140914
H2    H     H_    0.476957 0.048746 0.291782 0.146688
H3    H     H_    0.419722 0.415983 0.840405 0.164537
H4    H     H_    0.580286 0.584008 0.159593 0.164536
H5    H     H_    0.989732 0.621582 0.014285 0.140912
H6    H     H_    0.247593 0.700104 0.769812 0.145903
H7    H     H_    0.752419 0.299906 0.230188 0.145902
H8    H     H_    0.853955 0.485794 0.787109 0.173083
H9    H     H_    0.146048 0.514240 0.212906 0.173079
H10   H     H_    0.491182 0.864886 0.368691 0.186556
H11   H     H_    0.508839 0.135115 0.631312 0.186551
H12   H     H_    0.523043 0.951253 0.708218 0.146683
N1    N     N_2   0.445130 0.445420 0.137360 -0.124204
N2    N     N_2   0.554870 0.554580 0.862640 -0.124207
N3    N     N_1   0.273068 0.815773 0.151703 -0.302382
N4    N     N_1   0.726957 0.184229 0.848309 -0.302380
O1    O     O_R   0.511700 0.332340 0.577400 -0.513675
O2    O     O_R   0.488300 0.667660 0.422600 -0.513673
O3    O     O_R   0.474680 0.295500 0.332650 -0.455369
O4    O     O_R   0.525320 0.704500 0.667350 -0.455369
O5    O     O_R   0.338170 0.518410 0.622370 -0.519513
O6    O     O_R   0.661830 0.481590 0.377630 -0.519517
O7    O     O_R   0.301150 0.481570 0.377630 -0.480526
O8    O     O_R   0.698850 0.518430 0.622370 -0.480533

loop_
_geom_bond_atom_site_label_1
_geom_bond_atom_site_label_2
_ccdc_geom_bond_type
C12   C21   S    
C9    H8    S    
C4    C6    A    
C26   O7    A    
Cu1   Cu2   S    
C17   C26   S    
C9    C11   A    
Br1   N2    S    
C18   N3    T    
C10   C13   A    
Br2   N1    S    
C24   H4    S    
C2    C16   S    
C10   H9    S    
C15   C16   A    
C1    O3    A    
C4    H7    S    
C23   H10   S    
C25   H3    S    
C13   C17   A    
C22   H11   S    
C7    C9    A    
C24   C25   S    
C12   O4    A    
C21   H12   S    
C20   H2    S    
C11   C16   A    
Cu1   O1    S    
C14   C17   A    
C8    C10   A    
C1    O1    A    
Cu2   O7    S    
Cu2   O3    S    
C2    O6    A    
C24   N1    D    
C6    C19   S    
C3    C5    A    
Cu1   O4    S    
C21   C23   D    
Cu1   N2    S    
C26   O5    A    
C20   C22   D    
Cu2   N1    S    
Cu1   O8    S    
C3    H6    S    
C5    C7    A    
C22   C23   S    
C7    H5    S    
C19   N4    T    
Cu1   O5    S    
C11   C14   A    
Cu2   O2    S    
C13   C15   A    
C4    C15   A    
Cu2   O6    S    
C3    C14   A    
C12   O2    A    
C2    O8    A    
C25   N2    D    
C8    H1    S    
C5    C18   S    
C6    C8    A    
C1    C20   S    
