data_mof_unit_4095.cif
_audit_creation_date              2012-12-10T17:12:29-0500
_audit_creation_method            fapswitch 2.2
_symmetry_space_group_name_H-M    P1
_symmetry_Int_Tables_number       1
_space_group_crystal_system       triclinic
_cell_length_a                    11.682826
_cell_length_b                    12.952248
_cell_length_c                    11.827173
_cell_angle_alpha                 99.756136
_cell_angle_beta                  92.648487
_cell_angle_gamma                 92.723464
_cell_volume                      1759.1214491

loop_
_atom_site_label
_atom_site_type_symbol
_atom_type_description
_atom_site_fract_x
_atom_site_fract_y
_atom_site_fract_z
_atom_type_partial_charge
C1    C     C_R   0.500195 0.299613 0.478603 0.825582
C2    C     C_R   0.497574 0.700373 0.521498 0.857608
C3    C     C_R   0.402529 0.389677 0.024843 -0.163466
C4    C     C_R   0.623603 0.590850 0.970971 -0.182823
C5    C     C_R   0.398475 0.412260 0.146446 0.587936
C6    C     C_R   0.605184 0.585915 0.850547 0.574267
C7    C     C_R   0.559450 0.533084 0.154558 0.053768
C8    C     C_R   0.447175 0.462041 0.846652 0.064552
C9    C     C_R   0.549621 0.530569 0.032205 -0.116737
C10   C     C_R   0.464366 0.461308 0.967471 -0.106127
C11   C     C_R   0.284340 0.500226 0.501016 0.810450
C12   C     C_R   0.715699 0.500371 0.499090 0.842846
C13   C     C_1   0.162701 0.501106 0.502705 -0.151211
C14   C     C_1   0.837423 0.500673 0.497682 -0.147747
C15   C     C_1   0.060075 0.501284 0.501506 0.014837
C16   C     C_1   0.940083 0.501020 0.498929 0.012917
C17   C     C_R   0.488328 0.813582 0.533978 -0.152213
C18   C     C_R   0.505436 0.186408 0.466368 -0.119472
C19   C     C_R   0.571658 0.021643 0.370861 -0.265060
C20   C     C_R   0.419820 0.977986 0.629359 -0.288892
C21   C     C_R   0.560694 0.129100 0.374406 0.420219
C22   C     C_R   0.430710 0.869526 0.625413 0.423452
C23   C     C_R   0.458121 0.135965 0.550451 -0.306214
C24   C     C_R   0.534710 0.864835 0.450411 -0.279549
C25   C     C_R   0.467272 0.028710 0.545488 0.127950
C26   C     C_R   0.524688 0.971533 0.455258 0.094492
Cu1   Cu    Cu3+1 0.508350 0.507730 0.615930 0.994769
Cu2   Cu    Cu3+1 0.491650 0.492270 0.384070 1.010658
H1    H     H_    0.578536 0.821582 0.380717 0.232498
H2    H     H_    0.414743 0.180506 0.620267 0.146847
H3    H     H_    0.618902 0.977900 0.303650 0.172582
H4    H     H_    0.372331 0.022732 0.695394 0.135107
N1    N     N_R   0.520920 0.519350 0.790130 -0.250506
N2    N     N_R   0.479080 0.480650 0.209870 -0.257859
O1    O     O_R   0.505930 0.354460 0.582000 -0.629831
O2    O     O_R   0.494070 0.645540 0.418000 -0.551077
O3    O     O_R   0.491820 0.341410 0.386200 -0.520520
O4    O     O_R   0.508180 0.658590 0.613800 -0.545371
O5    O     O_R   0.344250 0.506540 0.597900 -0.575635
O6    O     O_R   0.655750 0.493460 0.402100 -0.591282
O7    O     O_R   0.330140 0.493480 0.402100 -0.564952
O8    O     O_R   0.669860 0.506520 0.597900 -0.525938
O9    O     O_3   0.374645 0.813540 0.699326 -0.569141
C27   C     C_3   0.383953 0.866620 0.814378 0.043748
H5    H     H_    0.319727 0.927510 0.827830 0.167866
H6    H     H_    0.471833 0.903300 0.838912 0.117971
C28   C     C_3   0.357929 0.788334 0.893537 -0.716145
H7    H     H_    0.417389 0.723669 0.880054 0.239415
H8    H     H_    0.368199 0.828191 0.984540 0.199271
H9    H     H_    0.268442 0.754634 0.875438 0.258473
O10   O     O_3   0.617674 0.180712 0.298289 -0.576491
C29   C     C_3   0.562218 0.153768 0.187828 0.106323
H10   H     H_    0.470988 0.175226 0.189465 0.197170
H11   H     H_    0.565616 0.068477 0.153823 0.133061
C30   C     C_3   0.623117 0.213865 0.106034 -0.757058
H12   H     H_    0.714110 0.192999 0.101727 0.246934
H13   H     H_    0.580619 0.193564 0.018634 0.190345
H14   H     H_    0.620335 0.299611 0.136316 0.237692
C31   C     C_2   0.341547 0.410925 0.784005 0.403915
H15   H     H_    0.345291 0.358087 0.703345 0.083520
O11   O     O_2   0.247981 0.427502 0.823224 -0.557693
C32   C     C_2   0.663891 0.580484 0.220356 0.556578
H16   H     H_    0.743870 0.541681 0.208285 -0.004232
O12   O     O_2   0.663558 0.664420 0.284676 -0.533358
O13   O     O_3   0.679767 0.640535 0.790354 -0.561592
C33   C     C_3   0.670813 0.750919 0.818269 0.066576
H17   H     H_    0.627054 0.778037 0.898632 0.152959
H18   H     H_    0.621230 0.779117 0.749072 0.179119
C34   C     C_3   0.789965 0.805459 0.825805 -0.762846
H19   H     H_    0.830789 0.785185 0.742535 0.249779
H20   H     H_    0.783251 0.891824 0.845499 0.206502
H21   H     H_    0.844983 0.780934 0.894355 0.257576
O14   O     O_3   0.324887 0.354261 0.202924 -0.538008
C35   C     C_3   0.210956 0.382598 0.183215 0.120629
H22   H     H_    0.185524 0.373966 0.090071 0.172169
H23   H     H_    0.200395 0.465485 0.223271 0.139102
C36   C     C_3   0.128986 0.311599 0.235792 -0.735996
H24   H     H_    0.153309 0.315290 0.328269 0.237450
H25   H     H_    0.039970 0.336864 0.226967 0.195103
H26   H     H_    0.132225 0.229249 0.191071 0.265673
C37   C     C_2   0.363743 0.282456 0.962229 0.390456
H27   H     H_    0.392305 0.254717 0.877065 0.033906
O15   O     O_2   0.305443 0.221141 0.006409 -0.544227
C38   C     C_2   0.725544 0.655381 0.025951 0.340986
H28   H     H_    0.810741 0.629138 0.008347 0.082491
O16   O     O_2   0.714859 0.740303 0.086425 -0.526822

loop_
_geom_bond_atom_site_label_1
_geom_bond_atom_site_label_2
_ccdc_geom_bond_type
C33   H18   S    
C30   H12   S    
C18   C21   A    
O14   C35   S    
C19   H3    S    
C37   H27   S    
C28   H8    S    
C36   H24   S    
C27   H5    S    
C1    C18   S    
C35   H23   S    
C19   C21   A    
C24   C26   A    
C8    C31   S    
C33   C34   S    
C20   C25   A    
Cu2   O6    S    
Cu1   O4    S    
C15   C16   S    
Cu2   O7    S    
C34   H20   S    
C19   C26   A    
C24   H1    S    
C12   O8    A    
C6    O13   S    
C28   H7    S    
C27   H6    S    
C35   C36   S    
C3    C37   S    
C32   O12   D    
C9    C10   A    
C27   C28   S    
C1    O3    A    
C33   H17   S    
Cu2   N2    S    
C31   H15   S    
C2    C17   S    
C37   O15   D    
C29   H11   S    
C28   H9    S    
C36   H25   S    
C31   O11   D    
C17   C24   A    
C35   H22   S    
C18   C23   A    
C23   H2    S    
C38   H28   S    
C4    C6    A    
Cu1   O5    S    
Cu1   O1    S    
C25   C26   A    
Cu1   N1    S    
O10   C29   S    
C12   O6    A    
C34   H21   S    
O9    C27   S    
C7    C32   S    
C32   H16   S    
C2    O4    A    
C22   O9    S    
C4    C38   S    
C5    N2    A    
C11   O5    A    
C20   C22   A    
C30   H13   S    
C7    N2    A    
C14   C16   T    
C21   O10   S    
C29   H10   S    
C1    O1    A    
C20   H4    S    
C36   H26   S    
C2    O2    A    
C7    C9    A    
C12   C14   S    
C3    C5    A    
C29   C30   S    
C17   C22   A    
C6    N1    A    
C13   C15   T    
C3    C10   A    
C11   C13   S    
Cu1   O8    S    
Cu2   O3    S    
C11   O7    A    
C8    N1    A    
C23   C25   A    
C5    O14   S    
C34   H19   S    
Cu2   O2    S    
C8    C10   A    
O13   C33   S    
C30   H14   S    
Cu1   Cu2   S    
C38   O16   D    
C4    C9    A    
