data_mof_unit_948.cif
_audit_creation_date              2012-12-11T19:58:29-0500
_audit_creation_method            fapswitch 2.2
_symmetry_space_group_name_H-M    P1
_symmetry_Int_Tables_number       1
_space_group_crystal_system       triclinic
_cell_length_a                    8.268119
_cell_length_b                    16.369899
_cell_length_c                    22.830201
_cell_angle_alpha                 108.282206
_cell_angle_beta                  88.926251
_cell_angle_gamma                 84.140021
_cell_volume                      2914.50175967

loop_
_atom_site_label
_atom_site_type_symbol
_atom_type_description
_atom_site_fract_x
_atom_site_fract_y
_atom_site_fract_z
_atom_type_partial_charge
Ba1   Ba    Ba6+2 0.335320 0.541410 0.478120 1.673461
Ba2   Ba    Ba6+2 0.854470 0.458670 0.521900 1.654808
C1    C     C_3   0.023529 0.859060 0.370864 -0.210454
C2    C     C_R   0.560025 0.576128 0.953436 -0.048360
C3    C     C_R   0.517290 0.570921 0.892317 0.593602
C4    C     C_3   0.545609 0.790086 0.357593 0.775236
C5    C     C_R   0.487919 0.420212 0.869851 0.569506
C6    C     C_R   0.534065 0.423094 0.929711 -0.012182
C7    C     C_R   0.569598 0.501685 0.972013 -0.053363
C8    C     C_R   0.592572 0.654518 0.996380 -0.065200
C9    C     C_R   0.633647 0.660462 0.057139 0.050016
C10   C     C_R   0.645083 0.584908 0.076458 -0.029178
C11   C     C_R   0.613730 0.505528 0.033002 -0.066301
C12   C     C_3   0.030040 0.768425 0.377199 0.391868
C13   C     C_R   0.545306 0.348370 0.948014 -0.078186
C14   C     C_R   0.591482 0.351326 0.006963 -0.075292
C15   C     C_R   0.625903 0.429355 0.050123 -0.019496
C16   C     C_3   0.476364 0.829069 0.309445 -0.282576
C17   C     C_R   0.673123 0.432075 0.109773 0.576291
C18   C     C_R   0.685908 0.585262 0.137265 0.596838
C19   C     C_2   0.311991 0.445963 0.761827 -0.109199
C20   C     C_3   0.293957 0.423295 0.693151 -0.073674
C21   C     C_1   0.490253 0.523705 0.690714 0.088712
C22   C     C_2   0.537366 0.525646 0.747040 -0.116393
C23   C     C_3   0.149609 0.298297 0.313045 0.361794
C24   C     C_2   0.439697 0.487854 0.787292 0.197754
C25   C     C_R   0.892278 0.547637 0.238570 -0.123970
C26   C     C_R   0.934074 0.553490 0.298964 -0.044301
C27   C     C_R   0.700796 0.480533 0.311944 0.064084
C28   C     C_3   0.612473 0.723428 0.625650 0.335906
C29   C     C_R   0.656752 0.475897 0.251671 -0.036270
C30   C     C_R   0.750219 0.510977 0.214586 0.247974
C31   C     C_2   0.361182 0.486766 0.666749 -0.220857
C32   C     C_2   0.397031 0.244023 0.494915 -0.290150
C33   C     C_R   0.811603 0.746591 0.505289 -0.299979
C34   C     C_3   0.257430 0.261648 0.252352 0.291926
C35   C     C_2   0.227741 0.129847 0.445414 -0.117859
C36   C     C_2   0.252669 0.213513 0.461936 0.060548
C37   C     C_2   0.508110 0.189567 0.509906 0.010940
C38   C     C_3   0.465482 0.101072 0.507779 -0.046534
C39   C     C_3   0.349587 0.063088 0.457039 -0.021776
C40   C     C_3   0.593315 0.821910 0.654175 0.177735
C41   C     C_2   0.608611 0.035757 0.504351 -0.083012
C42   C     C_2   0.583249 0.962628 0.515330 -0.101529
C43   C     C_R   0.858142 0.921545 0.544495 -0.007479
C44   C     C_R   0.716208 0.895800 0.515085 -0.042819
C45   C     C_3   0.677690 0.279860 0.659792 0.360928
C46   C     C_R   0.972352 0.861029 0.556480 -0.102569
C47   C     C_R   0.945117 0.774058 0.539629 0.093364
C48   C     C_R   0.693625 0.807334 0.494615 -0.034568
C49   C     C_3   0.583917 0.276909 0.375509 0.286374
C50   C     C_3   0.614205 0.178636 0.348833 -0.385493
C51   C     C_3   0.098346 0.677859 0.682232 0.664956
C52   C     C_3   0.000733 0.699428 0.744404 -0.209433
C53   C     C_3   0.074690 0.651074 0.786560 -0.433565
C54   C     C_3   0.971290 0.311640 0.299952 -0.222813
C55   C     C_3   0.257186 0.324550 0.214666 -0.442263
C56   C     C_3   0.711385 0.259083 0.719420 -0.190751
C57   C     C_3   0.967371 0.861319 0.308013 -0.372294
C58   C     C_3   0.611708 0.188851 0.726374 -0.364085
C59   C     C_3   0.085943 0.083819 0.624910 -0.393390
C60   C     C_3   0.665392 0.748503 0.099177 -0.328203
C61   C     C_3   0.170194 0.229837 0.626948 0.395952
C62   C     C_3   0.206276 0.149968 0.648013 -0.233975
C63   C     C_R   0.836210 0.521765 0.335470 -0.234715
H1    H     H_    0.084296 0.771321 0.421866 0.052327
H2    H     H_    0.145625 0.882093 0.377722 0.129790
H3    H     H_    0.994076 0.770087 0.769281 0.123529
H4    H     H_    0.874211 0.683531 0.735540 0.120562
H5    H     H_    0.904109 0.750801 0.378125 -0.078632
H6    H     H_    0.938026 0.904383 0.407645 0.063226
H7    H     H_    0.189063 0.361283 0.340193 0.002687
H8    H     H_    0.384358 0.250068 0.265311 0.084077
H9    H     H_    0.571203 0.823522 0.272932 0.077561
H10   H     H_    0.730852 0.340467 0.662448 0.078217
H11   H     H_    0.544162 0.290533 0.655889 -0.060027
H12   H     H_    0.600321 0.852084 0.617265 0.036857
H13   H     H_    0.682498 0.319018 0.758996 0.119106
H14   H     H_    0.842340 0.237473 0.720645 0.147514
H15   H     H_    0.289242 0.254211 0.623089 -0.100973
H16   H     H_    0.119765 0.211648 0.580421 0.068451
H17   H     H_    0.330240 0.117784 0.629883 0.078928
H18   H     H_    0.205128 0.169935 0.699272 0.129846
H19   H     H_    0.599320 0.291932 0.018742 0.124305
H20   H     H_    0.519377 0.286794 0.916542 0.120619
H21   H     H_    0.968341 0.572822 0.210726 0.097586
H22   H     H_    0.585263 0.712265 0.982503 0.122309
H23   H     H_    0.471299 0.844901 0.678653 0.045119
H24   H     H_    0.646397 0.554772 0.764231 0.118743
H25   H     H_    0.233249 0.420171 0.788550 0.122122
H26   H     H_    0.550240 0.445246 0.233732 0.095359
H27   H     H_    0.870019 0.525618 0.381729 0.071856
H28   H     H_    0.646807 0.827223 0.378959 -0.140564
H29   H     H_    0.313294 0.494112 0.624510 0.073790
H30   H     H_    0.128385 0.107247 0.416425 0.096528
H31   H     H_    0.076477 0.882804 0.582384 0.093236
H32   H     H_    0.419159 0.310474 0.501756 0.060307
H33   H     H_    0.791276 0.679122 0.492398 0.068019
H34   H     H_    0.456678 0.296332 0.393680 -0.011367
H35   H     H_    0.729855 0.045455 0.490790 0.103151
H36   H     H_    0.459645 0.952790 0.525849 0.108545
H37   H     H_    0.373357 0.794504 0.287476 0.148221
H38   H     H_    0.432279 0.898648 0.331768 0.051444
H39   H     H_    0.737260 0.700305 0.605324 -0.022422
H40   H     H_    0.524430 0.706025 0.588983 0.035976
H41   H     H_    0.686317 0.838410 0.733749 0.319240
H42   H     H_    0.275038 0.745065 0.715455 0.304809
H43   H     H_    0.196384 0.671039 0.800405 0.177431
H44   H     H_    0.994198 0.665787 0.828907 0.141025
H45   H     H_    0.666553 0.298137 0.413633 0.094957
H46   H     H_    0.086822 0.580692 0.762757 0.144146
H47   H     H_    0.924520 0.248789 0.276949 0.164058
H48   H     H_    0.904127 0.343098 0.344884 0.061633
H49   H     H_    0.951762 0.353756 0.270603 0.003477
H50   H     H_    0.299535 0.152671 0.185611 0.308734
H51   H     H_    0.141178 0.327906 0.191403 0.151385
H52   H     H_    0.275855 0.390151 0.244738 0.115683
H53   H     H_    0.357899 0.302037 0.178433 0.139022
H54   H     H_    0.952688 0.929261 0.307472 0.119056
H55   H     H_    0.058739 0.822889 0.270759 0.157983
H56   H     H_    0.527314 0.154081 0.312706 0.128000
H57   H     H_    0.849123 0.834730 0.298773 0.118630
H58   H     H_    0.640562 0.128330 0.686888 0.136424
H59   H     H_    0.640758 0.174915 0.769806 0.144578
H60   H     H_    0.479745 0.211020 0.728466 0.148170
H61   H     H_    0.120522 0.027265 0.640782 0.120534
H62   H     H_    0.960954 0.111588 0.643666 0.179166
H63   H     H_    0.088549 0.061453 0.573608 0.128504
H64   H     H_    0.702242 0.700808 0.304376 0.279332
H65   H     H_    0.791391 0.745595 0.114998 0.147695
H66   H     H_    0.653412 0.798466 0.075496 0.088165
H67   H     H_    0.598491 0.148759 0.385597 0.066389
H68   H     H_    0.575840 0.770563 0.139374 0.150233
H69   H     H_    0.740560 0.158878 0.328279 0.129377
H70   H     H_    0.081157 0.610741 0.653872 0.028470
N1    N     N_R   0.482817 0.493204 0.850640 -0.419894
N2    N     N_R   0.701875 0.509372 0.152882 -0.423808
O1    O     O_2   0.414630 0.451750 0.353890 -0.470268
O2    O     O_2   0.843518 0.189844 0.495138 -0.492244
O3    O     O_3   0.750225 0.211430 0.609345 -0.601696
O4    O     O_3   0.654720 0.452660 0.425060 -0.500228
O5    O     O_3   0.021450 0.605740 0.544090 -0.501250
O6    O     O_2   0.953100 0.285520 0.441860 -0.459426
O7    O     O_3   0.167351 0.237403 0.344924 -0.636686
O8    O     O_2   0.943595 0.456839 0.703426 -0.509792
O9    O     O_3   0.058320 0.292207 0.669465 -0.602937
O10   O     O_2   0.508060 0.636115 0.876781 -0.601816
O11   O     O_2   0.452659 0.351944 0.834748 -0.627633
O12   O     O_3   0.040639 0.739409 0.654373 -0.627900
O13   O     O_2   0.690600 0.365088 0.123095 -0.603922
O14   O     O_2   0.705453 0.653192 0.176703 -0.617587
O15   O     O_3   0.116150 0.611500 0.411510 -0.486902
O16   O     O_2   0.274383 0.551700 0.301273 -0.459797
O17   O     O_3   0.612280 0.312656 0.328559 -0.654423
O18   O     O_3   0.126290 0.707930 0.328183 -0.575674
O19   O     O_2   0.236590 0.714510 0.558180 -0.457364
O20   O     O_3   0.511480 0.656670 0.446630 -0.435524
O21   O     O_2   0.366909 0.809318 0.516041 -0.517642
O22   O     O_3   0.717262 0.848497 0.694574 -0.713776
O23   O     O_3   0.420826 0.798179 0.402225 -0.582822
O24   O     O_3   0.263619 0.683690 0.692155 -0.767260
O25   O     O_3   0.207991 0.182655 0.216011 -0.698159
O26   O     O_3   0.601081 0.702317 0.328871 -0.713882
O27   O     O_2   0.775060 0.548280 0.646150 -0.483530
O28   O     O_3   0.534950 0.547420 0.574950 -0.491449
O29   O     O_3   0.073530 0.388570 0.588510 -0.470365
O30   O     O_3   0.582407 0.687123 0.672027 -0.613831
O31   O     O_3   0.168220 0.394330 0.455930 -0.483940
O32   O     O_3   0.678190 0.343400 0.553390 -0.498274
P1    P     P_3+3 0.594550 0.425840 0.359090 0.975730
P2    P     P_3+3 0.065650 0.701630 0.573510 1.021346
P3    P     P_3+3 0.500795 0.768904 0.464204 0.991017
P4    P     P_3+3 0.595130 0.574230 0.640920 1.034284
P5    P     P_3+3 0.696725 0.232244 0.541350 0.942333
P6    P     P_3+3 0.113423 0.604368 0.333532 0.998423
P7    P     P_3+3 0.138597 0.284140 0.425680 0.946186
P8    P     P_3+3 0.089406 0.394588 0.665619 0.944083

loop_
_geom_bond_atom_site_label_1
_geom_bond_atom_site_label_2
_ccdc_geom_bond_type
C63   H27   S    
C34   O25   S    
C19   C24   D    
C49   O17   S    
C57   H55   S    
C3    O10   D    
C12   O18   S    
O1    P1    D    
C50   H69   S    
C60   H65   S    
C40   O22   S    
C51   H70   S    
C23   C54   S    
C9    C60   S    
O21   P3    D    
C22   H24   S    
C17   O13   D    
C28   H39   S    
C5    C6    A    
C51   C52   S    
H64   O26   S    
C61   H16   S    
C60   H68   S    
C58   H60   S    
C22   C24   S    
C45   H11   S    
C37   P5    S    
O20   P3    S    
C52   H3    S    
C56   C58   S    
C13   C14   A    
Ba1   P1    S    
C14   H19   S    
C32   H32   S    
Ba2   P4    S    
O17   P1    S    
Ba1   O15   S    
Ba1   Ba2   S    
C16   H37   S    
C58   H59   S    
C7    C11   A    
Ba1   O5    S    
O15   P6    S    
C38   C41   S    
H42   O24   S    
C14   C15   A    
C21   C31   D    
C45   O3    S    
C33   C47   A    
O32   P5    S    
C59   H61   S    
C27   P1    S    
C55   H51   S    
C33   H33   S    
Ba2   O29   S    
C61   O9    S    
C21   C22   D    
C17   N2    Am   
O30   P4    S    
Ba1   O19   S    
C57   H57   S    
C16   H9    S    
O12   P2    S    
C19   C20   S    
C31   H29   S    
C51   O12   S    
Ba2   O6    S    
C12   H5    S    
C10   C18   A    
O6    P7    D    
C20   P8    S    
C42   C44   S    
C3    N1    Am   
C61   H15   S    
C49   H34   S    
C4    C16   S    
C8    H22   S    
C32   C37   D    
C50   H67   S    
Ba1   O4    S    
C41   H35   S    
C34   C55   S    
C8    C9    A    
Ba2   O27   S    
C37   C38   S    
C47   P2    S    
C6    C7    A    
C23   C34   S    
Ba1   O31   S    
C43   C44   A    
Ba1   P2    S    
C49   C50   S    
O9    P8    S    
C18   N2    Am   
C59   C62   S    
C1    H6    S    
C41   C42   D    
C62   H18   S    
C35   C36   D    
C50   H56   S    
C36   P7    S    
C29   C30   A    
Ba1   O28   S    
C54   H48   S    
C4    H28   S    
O7    P7    S    
C33   C48   A    
C12   H1    S    
O27   P4    D    
C59   H62   S    
O29   P8    S    
C10   C11   A    
Ba2   O28   S    
C62   H17   S    
C1    C12   S    
C56   H14   S    
C27   C63   A    
C46   C47   A    
C49   H45   S    
C29   H26   S    
C28   H40   S    
Ba2   O5    S    
C25   H21   S    
C23   O7    S    
C40   H23   S    
C2    C8    A    
Ba2   O31   S    
C55   H52   S    
C5    O11   D    
C43   C46   A    
O18   P6    S    
O31   P7    S    
C20   C31   S    
O16   P6    D    
C52   C53   S    
C38   C39   S    
C57   H54   S    
C46   H31   S    
C53   H46   S    
C25   C30   A    
C32   C36   S    
C60   H66   S    
C1    H2    S    
C2    C3    A    
C28   O30   S    
C4    O23   S    
C42   H36   S    
C26   P6    S    
C21   P4    S    
C11   C15   A    
C6    C13   A    
C44   C48   A    
O19   P2    D    
C18   O14   D    
C13   H20   S    
C53   H43   S    
H50   O25   S    
Ba1   O20   S    
C26   C63   A    
C45   H10   S    
C30   N2    S    
C27   C29   A    
C45   C56   S    
C51   O24   S    
C52   H4    S    
C23   H7    S    
O4    P1    S    
C15   C17   A    
C59   H63   S    
C16   H38   S    
C35   C39   S    
C19   H25   S    
C35   H30   S    
C24   N1    S    
C34   H8    S    
C56   H13   S    
Ba2   O32   S    
C61   C62   S    
C5    N1    Am   
C58   H58   S    
C4    O26   S    
C55   H53   S    
C40   H12   S    
O3    P5    S    
O8    P8    D    
C25   C26   A    
Ba2   O4    S    
C54   H49   S    
O23   P3    S    
C28   C40   S    
O2    P5    D    
C48   P3    S    
C2    C7    A    
O28   P4    S    
C54   H47   S    
C53   H44   S    
Ba1   O1    S    
H41   O22   S    
C9    C10   A    
O5    P2    S    
C1    C57   S    
