data_mof_unit_4131.cif
_audit_creation_date              2013-03-05T16:06:17-0500
_audit_creation_method            fapswitch 2.2
_symmetry_space_group_name_H-M    P1
_symmetry_Int_Tables_number       1
_space_group_crystal_system       triclinic
_cell_length_a                    10.832204
_cell_length_b                    9.507261
_cell_length_c                    27.800602
_cell_angle_alpha                 90.24491
_cell_angle_beta                  90.002512
_cell_angle_gamma                 89.96342
_cell_volume                      2863.00687488

loop_
_atom_site_label
_atom_site_type_symbol
_atom_site_description
_atom_site_fract_x
_atom_site_fract_y
_atom_site_fract_z
_atom_type_partial_charge
O1    O     O_R   0.319640 0.618740 0.500000 -0.591768
O2    O     O_R   0.680360 0.381260 0.500000 -0.591550
O3    O     O_R   0.680360 0.618740 0.500000 -0.588311
O4    O     O_R   0.319640 0.381260 0.500000 -0.588011
C1    C     C_R   0.262025 0.500024 0.499924 0.796201
C2    C     C_R   0.737976 0.499976 0.500065 0.794939
O5    O     O_R   0.500020 0.618770 0.430260 -0.577487
O6    O     O_R   0.499980 0.381230 0.569740 -0.578118
O7    O     O_R   0.499980 0.618770 0.569740 -0.569966
O8    O     O_R   0.500020 0.381230 0.430260 -0.569890
C3    C     C_R   0.498056 0.499731 0.407632 0.812887
C4    C     C_R   0.502063 0.500251 0.592400 0.812525
Cu1   Cu    Cu3+1 0.500000 0.640660 0.500000 0.961773
Cu2   Cu    Cu3+1 0.500000 0.359340 0.500000 0.961564
C5    C     C_R   0.457367 0.623143 0.178432 0.531145
C6    C     C_R   0.553286 0.380761 0.821453 0.532903
O9    O     O_2   0.418650 0.735469 0.204100 -0.518304
O10   O     O_2   0.603560 0.275029 0.795555 -0.520432
N1    N     N_R   0.491922 0.504215 0.202420 -0.465615
N2    N     N_R   0.504192 0.493169 0.797648 -0.465020
C7    C     C_R   0.531183 0.386808 0.178514 0.544392
C8    C     C_R   0.451436 0.603191 0.821663 0.542893
C9    C     C_R   0.577573 0.578862 0.279512 -0.130898
C10   C     C_R   0.424159 0.413947 0.720209 -0.131391
C11   C     C_R   0.578847 0.578294 0.329470 -0.227077
C12   C     C_R   0.423940 0.415284 0.670246 -0.226385
C13   C     C_R   0.400102 0.423137 0.329973 -0.058283
C14   C     C_R   0.594059 0.582595 0.670639 -0.057358
C15   C     C_R   0.396492 0.426350 0.279153 0.156779
C16   C     C_R   0.595853 0.579852 0.721476 0.152097
C17   C     C_R   0.487998 0.503024 0.254080 0.345842
C18   C     C_R   0.508508 0.496009 0.746043 0.350267
C19   C     C_R   0.497492 0.504496 0.102190 -0.054391
C20   C     C_R   0.500819 0.491987 0.897855 -0.052388
C21   C     C_R   0.460846 0.627420 0.127468 -0.066937
C22   C     C_R   0.552193 0.376369 0.872440 -0.068570
C23   C     C_R   0.429928 0.749061 0.100853 -0.019733
C24   C     C_R   0.601468 0.262631 0.898960 -0.022382
C25   C     C_R   0.532978 0.383950 0.128179 -0.017972
C26   C     C_R   0.449919 0.605514 0.871999 -0.017405
C27   C     C_R   0.492155 0.499239 0.354952 -0.109793
C28   C     C_R   0.506868 0.500562 0.645156 -0.111495
C29   C     C_R   0.453066 0.614587 0.973842 0.051427
C30   C     C_R   0.538947 0.378259 0.026259 0.052229
C31   C     C_R   0.545896 0.378151 0.975116 0.032122
C32   C     C_R   0.459812 0.621069 0.024890 0.033363
C33   C     C_R   0.499949 0.494769 0.949089 0.070454
C34   C     C_R   0.498814 0.501393 0.050961 0.070413
C35   C     C_R   0.399047 0.723617 0.946538 -0.208496
C36   C     C_R   0.570017 0.258555 0.053769 -0.210688
C37   C     C_R   0.397979 0.719099 0.896723 -0.138247
C38   C     C_R   0.568088 0.262079 0.103588 -0.129665
O11   O     O_2   0.401462 0.710666 0.796718 -0.526358
O12   O     O_2   0.567634 0.272721 0.203559 -0.520418
C39   C     C_R   0.430518 0.744792 0.050737 -0.248947
C40   C     C_R   0.598444 0.265163 0.949080 -0.246438
H1    H     H_    0.357327 0.351238 0.651037 0.163679
H2    H     H_    0.649262 0.637671 0.348366 0.161688
H3    H     H_    0.358005 0.349138 0.739122 0.155656
H4    H     H_    0.646993 0.638209 0.260276 0.156211
H5    H     H_    0.356040 0.805986 0.877597 0.189800
H6    H     H_    0.593506 0.167511 0.122829 0.193037
H7    H     H_    0.353446 0.812971 0.962559 0.143814
H8    H     H_    0.593722 0.158457 0.038047 0.138971
H9    H     H_    0.410659 0.842403 0.032680 0.135948
H10   H     H_    0.641430 0.177402 0.966904 0.138719
C41   C     C_R   0.063938 0.372305 0.497848 -0.157321
C42   C     C_R   0.936064 0.627698 0.502109 -0.159830
C43   C     C_R   0.936227 0.372271 0.497977 -0.176626
C44   C     C_R   0.063774 0.627732 0.501977 -0.177018
H11   H     H_    0.112055 0.272489 0.496099 0.154724
H12   H     H_    0.887947 0.727515 0.503858 0.154799
H13   H     H_    0.888234 0.272437 0.496340 0.152531
H14   H     H_    0.111769 0.727567 0.503613 0.152551
C45   C     C_R   0.871796 0.499968 0.500083 -0.021344
C46   C     C_R   0.128206 0.500035 0.499883 -0.020402
C47   C     C_R   0.418813 0.074139 0.471994 -0.015855
C48   C     C_R   0.581259 0.925884 0.527957 -0.016258
C49   C     C_R   0.581215 0.074762 0.527996 -0.013190
C50   C     C_R   0.418805 0.925243 0.471987 -0.012777
H15   H     H_    0.353806 0.130028 0.449594 0.144392
H16   H     H_    0.646424 0.870033 0.550260 0.146299
H17   H     H_    0.646220 0.131169 0.550437 0.128930
H18   H     H_    0.353835 0.868829 0.449534 0.128376
N3    N     N_R   0.500000 0.852070 0.500000 -0.164441
N4    N     N_R   0.500000 0.147930 0.500000 -0.164439
C51   C     C_1   0.306139 0.347293 0.356437 0.248395
N5    N     N_1   0.230883 0.287055 0.377517 -0.302344
C52   C     C_1   0.685683 0.663667 0.644778 0.252291
N6    N     N_1   0.759298 0.728001 0.624251 -0.303165
C53   C     C_3   0.294283 0.350573 0.252470 -0.759277
H19   H     H_    0.301555 0.235716 0.258968 0.252743
H20   H     H_    0.203235 0.388470 0.265542 0.223722
H21   H     H_    0.296474 0.368330 0.213121 0.231954
C54   C     C_3   0.691726 0.664145 0.748763 -0.759137
H22   H     H_    0.785581 0.632197 0.736920 0.227467
H23   H     H_    0.678662 0.777903 0.741432 0.250709
H24   H     H_    0.687446 0.648644 0.788203 0.231991
C55   C     C_1   0.398387 0.882282 0.123087 0.330668
N7    N     N_1   0.373047 0.989047 0.140668 -0.243022
C56   C     C_1   0.656021 0.139571 0.876642 0.342098
N8    N     N_1   0.699669 0.040776 0.859031 -0.245749

loop_
_geom_bond_atom_site_label_1
_geom_bond_atom_site_label_2
_geom_bond_distance
_ccdc_geom_bond_type
C16   C18   1.415169 A    
C51   N5    1.157342 T    
C56   N8    1.158019 T    
C35   H7    1.077175 S    
C13   C15   1.413846 A    
C36   H8    1.076467 S    
C54   H22   1.110424 S    
C37   H5    1.083846 S    
C15   C53   1.513753 S    
C50   H18   1.081753 S    
O3    C2    1.289784 A    
N1    C17   1.436895 S    
C54   H24   1.107912 S    
C2    C45   1.449566 S    
C42   C45   1.401071 A    
O5    C3    1.292654 A    
C29   C32   1.422141 A    
C16   C54   1.513936 S    
O1    C1    1.290063 A    
N1    C7    1.364405 A    
C10   C12   1.389102 A    
C24   C56   1.447727 S    
C7    O12   1.350204 S    
C48   H16   1.080262 S    
O7    Cu1   1.950836 S    
C31   C40   1.412240 A    
C35   C37   1.385417 A    
C32   C39   1.411716 A    
C44   H14   1.083278 S    
C36   C38   1.385416 A    
C43   H13   1.083277 S    
C14   C52   1.449742 S    
C20   C22   1.417668 A    
O3    Cu1   1.964647 S    
C6    N2    1.366813 A    
C25   C38   1.395410 A    
Cu1   Cu2   2.674583 S    
O2    C2    1.290068 A    
C5    C21   1.418087 A    
C39   H9    1.078532 S    
C8    O11   1.350316 S    
C31   C33   1.416549 A    
C9    H4    1.083024 S    
C32   C34   1.415900 A    
C4    C28   1.467552 S    
Cu2   N4    2.009931 S    
O8    Cu2   1.950836 S    
C11   C27   1.397897 A    
C53   H19   1.110331 S    
C48   C49   1.415416 A    
C29   C35   1.413849 A    
C42   H12   1.083312 S    
C41   C43   1.383392 A    
C9    C17   1.399178 A    
C5    N1    1.367176 A    
C10   C18   1.398361 A    
C50   N3    1.366672 A    
C53   H20   1.110421 S    
C13   C27   1.412985 A    
C55   N7    1.157571 T    
C7    C25   1.399643 A    
C47   H15   1.080879 S    
O6    C4    1.292961 A    
C8    C26   1.399531 A    
C19   C25   1.410568 A    
C13   C51   1.450077 S    
C48   N3    1.366527 A    
C6    O10   1.348537 S    
N2    C8    1.363723 A    
C47   N4    1.366682 A    
C44   C46   1.400981 A    
C20   C26   1.411204 A    
O1    Cu1   1.964912 S    
C11   H2    1.083698 S    
C23   C55   1.447673 S    
C30   C31   1.423810 A    
C12   C28   1.398783 A    
N2    C18   1.435773 S    
C47   C50   1.415597 A    
C30   C36   1.414314 A    
C5    O9    1.348516 S    
O6    Cu2   1.949067 S    
C21   C23   1.415582 A    
O7    C4    1.293470 A    
O4    C1    1.289786 A    
C54   H23   1.110381 S    
C41   C46   1.401065 A    
C26   C37   1.395720 A    
C1    C46   1.449555 S    
C22   C24   1.415551 A    
C14   C16   1.413789 A    
C15   C17   1.416002 A    
C38   H6    1.083542 S    
C6    C22   1.418338 A    
C53   H21   1.107852 S    
C49   H17   1.081756 S    
C10   H3    1.083052 S    
C40   H10   1.077741 S    
C14   C28   1.413627 A    
C19   C21   1.417609 A    
C43   C45   1.400987 A    
C41   H11   1.083310 S    
C9    C11   1.388953 A    
O4    Cu2   1.964647 S    
O2    Cu2   1.964912 S    
C12   H1    1.083669 S    
O8    C3    1.292868 A    
C23   C39   1.393674 A    
O5    Cu1   1.949067 S    
C24   C40   1.393866 A    
C42   C44   1.383395 A    
C3    C27   1.465917 S    
Cu1   N3    2.009930 S    
C19   C34   1.424463 A    
C20   C33   1.424506 A    
C52   N6    1.157270 T    
C29   C33   1.421846 A    
C49   N4    1.366525 A    
C30   C34   1.422508 A    
