data_mof_unit_824.cif
_audit_creation_date              2012-12-11T14:45:27-0500
_audit_creation_method            fapswitch 2.2
_symmetry_space_group_name_H-M    P1
_symmetry_Int_Tables_number       1
_space_group_crystal_system       triclinic
_cell_length_a                    24.929407
_cell_length_b                    7.169999
_cell_length_c                    14.406978
_cell_angle_alpha                 90.023648
_cell_angle_beta                  102.597814
_cell_angle_gamma                 89.817875
_cell_volume                      2513.14880861

loop_
_atom_site_label
_atom_site_type_symbol
_atom_type_description
_atom_site_fract_x
_atom_site_fract_y
_atom_site_fract_z
_atom_type_partial_charge
O1    O     O_R   0.319150 0.364170 0.330530 -0.540719
O2    O     O_R   0.680850 0.635830 0.669470 -0.544699
O3    O     O_R   0.180850 0.864170 0.169470 -0.536901
O4    O     O_R   0.819150 0.135830 0.830530 -0.518973
O5    O     O_R   0.210330 0.696850 0.354180 -0.532983
O6    O     O_R   0.789670 0.303150 0.645820 -0.529360
O7    O     O_R   0.289670 0.196850 0.145820 -0.532019
O8    O     O_R   0.710330 0.803150 0.854180 -0.536693
C1    C     C_R   0.197472 0.525695 0.378609 0.723590
C2    C     C_R   0.802480 0.474451 0.621365 0.701646
C3    C     C_R   0.302397 0.025374 0.121190 0.730949
C4    C     C_R   0.697411 0.974740 0.878453 0.676698
O9    O     O_R   0.320550 0.694110 0.341970 -0.541222
O10   O     O_R   0.679450 0.305890 0.658030 -0.542608
O11   O     O_R   0.179450 0.194110 0.158030 -0.544463
O12   O     O_R   0.820550 0.805890 0.841970 -0.547166
O13   O     O_R   0.291860 0.861000 0.157170 -0.544784
O14   O     O_R   0.708140 0.139000 0.842830 -0.541380
O15   O     O_R   0.208140 0.361000 0.342830 -0.546179
O16   O     O_R   0.791860 0.639000 0.657170 -0.540055
C5    C     C_R   0.342031 0.525732 0.361511 0.707629
C6    C     C_R   0.657791 0.474053 0.639360 0.696868
C7    C     C_R   0.157910 0.026358 0.138642 0.709637
C8    C     C_R   0.841924 0.973457 0.861621 0.729202
O17   O     O_3   0.240460 0.529330 0.189380 -0.380250
O18   O     O_3   0.759540 0.470670 0.810620 -0.374708
O19   O     O_3   0.259540 0.029330 0.310620 -0.379391
O20   O     O_3   0.740460 0.970670 0.689380 -0.379706
V1    V     V_3+5 0.251770 0.805510 0.261240 1.406218
V2    V     V_3+5 0.748230 0.194490 0.738760 1.427889
V3    V     V_3+5 0.248230 0.305510 0.238760 1.402529
V4    V     V_3+5 0.751770 0.694490 0.761240 1.406701
C9    C     C_R   0.102320 0.024872 0.075507 -0.109622
C10   C     C_R   0.897527 0.974303 0.924301 -0.080419
C11   C     C_R   0.397384 0.522515 0.425349 -0.111269
C12   C     C_R   0.602163 0.476559 0.576882 -0.104210
C13   C     C_R   0.961094 0.832710 0.057734 -0.160250
C14   C     C_R   0.039019 0.167177 0.941387 -0.200575
C15   C     C_R   0.539194 0.332208 0.443650 -0.168131
C16   C     C_R   0.460280 0.666049 0.559114 -0.181410
C17   C     C_R   0.908307 0.852388 0.002108 -0.262256
C18   C     C_R   0.091415 0.150449 0.999092 -0.232820
C19   C     C_R   0.591990 0.355619 0.498562 -0.239315
C20   C     C_R   0.408087 0.650225 0.500887 -0.252377
C21   C     C_R   0.940807 0.080267 0.902332 0.237554
C22   C     C_R   0.059190 0.912056 0.093591 0.231687
C23   C     C_R   0.557854 0.578628 0.599475 0.233689
C24   C     C_R   0.440588 0.406354 0.408943 0.228637
C25   C     C_R   0.994864 0.062754 0.959996 0.041062
C26   C     C_R   0.005182 0.934697 0.037310 0.081256
C27   C     C_R   0.504324 0.559307 0.541496 0.074092
C28   C     C_R   0.494555 0.431139 0.464580 0.073181
H1    H     H_    0.123974 0.236971 0.983688 0.152216
H2    H     H_    0.875543 0.769389 0.019298 0.142129
H3    H     H_    0.375583 0.739223 0.515102 0.153807
H4    H     H_    0.625224 0.275203 0.480759 0.139774
H5    H     H_    0.967010 0.736186 0.116879 0.167926
H6    H     H_    0.033731 0.264811 0.882952 0.136322
H7    H     H_    0.533733 0.236160 0.384329 0.166120
H8    H     H_    0.466134 0.766470 0.616591 0.168975
C29   C     C_R   0.665709 0.981853 0.952755 -0.095121
C30   C     C_R   0.334117 0.019729 0.046742 -0.064500
C31   C     C_R   0.833941 0.480296 0.546656 -0.104629
C32   C     C_R   0.165535 0.520735 0.452692 -0.061042
C33   C     C_R   0.657174 0.937183 0.115172 -0.175723
C34   C     C_R   0.342700 0.079364 0.885407 -0.235555
C35   C     C_R   0.842963 0.421714 0.385516 -0.175874
C36   C     C_R   0.156553 0.581666 0.613696 -0.236712
C37   C     C_R   0.690264 0.942978 0.048391 0.288109
C38   C     C_R   0.309561 0.063404 0.951873 0.291491
C39   C     C_R   0.809796 0.431757 0.452083 0.285351
C40   C     C_R   0.189858 0.564895 0.547538 0.291688
C41   C     C_R   0.608992 0.012241 0.925146 -0.278864
C42   C     C_R   0.390902 0.991450 0.073855 -0.284917
C43   C     C_R   0.890340 0.516411 0.573357 -0.276299
C44   C     C_R   0.108809 0.492008 0.425266 -0.286748
C45   C     C_R   0.574627 0.999082 0.991109 0.080027
C46   C     C_R   0.425334 0.013563 0.008529 0.087339
C47   C     C_R   0.924952 0.496503 0.508085 0.079239
C48   C     C_R   0.074270 0.512024 0.490716 0.086736
C49   C     C_R   0.600061 0.962021 0.087365 0.082268
C50   C     C_R   0.399902 0.055501 0.912848 0.104967
C51   C     C_R   0.899882 0.450268 0.412821 0.081718
C52   C     C_R   0.099454 0.556672 0.586161 0.105545
C53   C     C_R   0.516030 0.018313 0.964601 0.067504
C54   C     C_R   0.483994 0.998060 0.035271 0.070867
C55   C     C_R   0.983477 0.517142 0.534479 0.070190
C56   C     C_R   0.015720 0.492581 0.464324 0.071588
C57   C     C_R   0.511736 0.965801 0.130515 -0.178325
C58   C     C_R   0.488373 0.056695 0.869928 -0.195925
C59   C     C_R   0.988313 0.450079 0.370111 -0.175713
C60   C     C_R   0.010905 0.559196 0.628771 -0.198401
C61   C     C_R   0.568447 0.948452 0.155633 -0.186135
C62   C     C_R   0.431647 0.075583 0.845063 -0.186255
C63   C     C_R   0.931719 0.429977 0.345218 -0.188219
C64   C     C_R   0.067568 0.578445 0.653672 -0.188052
H9    H     H_    0.587755 0.922455 0.229546 0.121755
H10   H     H_    0.412409 0.106971 0.771696 0.122271
H11   H     H_    0.912714 0.395739 0.272131 0.122601
H12   H     H_    0.086639 0.611861 0.726833 0.121603
H13   H     H_    0.406825 0.956958 0.147242 0.112718
H14   H     H_    0.593018 0.039173 0.850697 0.119421
H15   H     H_    0.093033 0.460435 0.351374 0.117719
H16   H     H_    0.905977 0.552086 0.646879 0.118523
H17   H     H_    0.676180 0.911432 0.189236 0.127060
H18   H     H_    0.323698 0.112634 0.812155 0.111873
H19   H     H_    0.824229 0.388770 0.312156 0.128745
H20   H     H_    0.175352 0.616310 0.686826 0.112096
H21   H     H_    0.491016 0.954085 0.188386 0.129586
H22   H     H_    0.509257 0.075002 0.812645 0.129160
H23   H     H_    0.009274 0.429717 0.313142 0.120994
H24   H     H_    0.989932 0.578536 0.685902 0.119951
N1    N     N_2   0.069093 0.780121 0.169545 -0.540889
H25   H     H_    0.094658 0.821901 0.232294 0.257557
C65   C     C_3   0.076649 0.588473 0.142650 -0.515634
H26   H     H_    0.050624 0.496009 0.175897 0.177798
H27   H     H_    0.120274 0.546186 0.167910 0.209998
H28   H     H_    0.064869 0.568120 0.064264 0.196989
N2    N     N_2   0.929959 0.193133 0.818871 -0.520331
H29   H     H_    0.945896 0.326019 0.827436 0.244225
C66   C     C_3   0.938987 0.099254 0.734619 -0.533600
H30   H     H_    0.983235 0.064828 0.742428 0.191466
H31   H     H_    0.925983 0.191138 0.671900 0.206377
H32   H     H_    0.914381 0.969103 0.721744 0.194336
N3    N     N_2   0.430873 0.267302 0.336415 -0.543698
H33   H     H_    0.403806 0.303981 0.274269 0.260840
C67   C     C_3   0.421664 0.082558 0.370417 -0.503172
H34   H     H_    0.417488 0.980536 0.311518 0.174892
H35   H     H_    0.383494 0.080119 0.398274 0.210035
H36   H     H_    0.456882 0.038452 0.427701 0.197752
N4    N     N_2   0.565423 0.689950 0.683333 -0.546958
H37   H     H_    0.598187 0.780304 0.693816 0.270015
C68   C     C_3   0.560762 0.588284 0.767940 -0.541974
H38   H     H_    0.561755 0.687306 0.827408 0.207593
H39   H     H_    0.595417 0.488081 0.788459 0.190962
H40   H     H_    0.521177 0.511501 0.755722 0.205487
N5    N     N_2   0.251929 0.096597 0.923516 -0.530968
H41   H     H_    0.241105 0.187611 0.867009 0.254159
C69   C     C_3   0.218749 0.929477 0.909872 -0.576357
H42   H     H_    0.174556 0.968489 0.891466 0.198625
H43   H     H_    0.226094 0.844666 0.975898 0.209260
H44   H     H_    0.228334 0.844640 0.850904 0.191339
N6    N     N_2   0.748131 0.915336 0.079007 -0.526698
H45   H     H_    0.771687 0.971453 0.035439 0.235881
C70   C     C_3   0.764667 0.727584 0.109591 -0.538059
H46   H     H_    0.809948 0.722287 0.136071 0.187676
H47   H     H_    0.753019 0.629053 0.049007 0.201186
H48   H     H_    0.745241 0.683604 0.168454 0.208785
N7    N     N_2   0.247404 0.598483 0.576082 -0.530116
H49   H     H_    0.257941 0.689898 0.632413 0.254024
C71   C     C_3   0.280990 0.431586 0.590184 -0.576598
H50   H     H_    0.325085 0.470902 0.608686 0.199517
H51   H     H_    0.273944 0.346349 0.524333 0.208053
H52   H     H_    0.271524 0.347054 0.649248 0.191207
N8    N     N_2   0.752196 0.398686 0.422193 -0.526186
H53   H     H_    0.728141 0.456769 0.464549 0.235585
C72   C     C_3   0.737316 0.208033 0.395531 -0.534151
H54   H     H_    0.692087 0.198370 0.369422 0.185023
H55   H     H_    0.749928 0.114481 0.458039 0.201744
H56   H     H_    0.757023 0.161008 0.337445 0.208241

loop_
_geom_bond_atom_site_label_1
_geom_bond_atom_site_label_2
_ccdc_geom_bond_type
O17   V3    S    
C55   C56   A    
O1    C5    A    
C72   H54   S    
C50   C62   A    
O19   V1    S    
C1    C32   S    
O13   V1    S    
O3    C7    A    
C2    C31   S    
C60   C64   A    
C48   C52   A    
C3    C30   S    
O15   V3    S    
C46   C54   A    
C47   C55   A    
C70   H46   S    
C14   C25   A    
C34   C38   A    
C53   C54   A    
O7    C3    A    
N5    C69   S    
N3    H33   S    
C16   H8    S    
C9    C18   A    
O9    V1    S    
O10   V2    S    
C14   C18   A    
N7    C71   S    
C18   H1    S    
O4    C8    A    
C69   H44   S    
C63   H11   S    
N8    C72   S    
C62   H10   S    
C65   H26   S    
C57   H21   S    
O1    V3    S    
C30   C38   A    
C12   C23   A    
O2    V4    S    
C52   C64   A    
C71   H52   S    
C59   H23   S    
O3    V1    S    
C66   H32   S    
C24   N3    S    
C14   H6    S    
C1    O15   A    
C2    O16   A    
C7    C9    S    
O2    C6    A    
C68   H40   S    
C71   H50   S    
O14   V2    S    
C45   C49   A    
C16   C20   A    
C36   C40   A    
C21   N2    S    
C44   H15   S    
O11   C7    A    
C15   C28   A    
C39   N8    S    
C72   H55   S    
C55   C60   A    
C57   C61   A    
C9    C22   A    
C10   C17   A    
C34   H18   S    
C11   C24   A    
C33   H17   S    
C70   H47   S    
C58   C62   A    
O5    V1    S    
N2    C66   S    
C69   H42   S    
O7    V3    S    
C27   C28   A    
C36   C52   A    
O18   V4    S    
C60   H24   S    
C15   C19   A    
C29   C41   A    
C59   C63   A    
C8    C10   S    
C23   N4    S    
O8    V4    S    
C67   H35   S    
O5    C1    A    
C34   C50   A    
C49   C61   A    
C46   C50   A    
C33   C49   A    
C56   C59   A    
C21   C25   A    
O8    C4    A    
C65   H28   S    
C15   H7    S    
C32   C44   A    
O9    C5    A    
C10   C21   A    
C51   C63   A    
N2    H29   S    
C11   C20   A    
C66   H30   S    
C42   H13   S    
C41   H14   S    
O6    V2    S    
C31   C39   A    
C40   N7    S    
C72   H56   S    
C43   H16   S    
C37   N6    S    
C58   H22   S    
C67   H34   S    
C61   H9    S    
C70   H48   S    
C35   C51   A    
N3    C67   S    
N1    H25   S    
O16   V4    S    
C29   C37   A    
N6    C70   S    
C65   H27   S    
C3    O13   A    
C22   N1    S    
C44   C48   A    
N4    C68   S    
C54   C57   A    
O6    C2    A    
C23   C27   A    
C53   C58   A    
O11   V3    S    
C5    C11   S    
O12   V4    S    
C16   C27   A    
C6    C12   S    
N5    H41   S    
C22   C26   A    
O10   C6    A    
O20   V2    S    
N6    H45   S    
C67   H36   S    
C48   C56   A    
N7    H49   S    
C47   C51   A    
C4    C29   S    
C69   H43   S    
C20   H3    S    
C35   H19   S    
C68   H38   S    
C31   C43   A    
C33   C37   A    
C64   H12   S    
C13   C26   A    
C35   C39   A    
C71   H51   S    
C13   C17   A    
O4    V2    S    
C17   H2    S    
C66   H31   S    
C45   C53   A    
C19   H4    S    
C24   C28   A    
C38   N5    S    
O12   C8    A    
C25   C26   A    
C42   C46   A    
C4    O14   A    
N8    H53   S    
C68   H39   S    
C41   C45   A    
C30   C42   A    
C12   C19   A    
C36   H20   S    
C43   C47   A    
C13   H5    S    
N4    H37   S    
C32   C40   A    
N1    C65   S    
