data_mof_unit_2693.cif
_audit_creation_date              2012-12-11T15:41:12-0500
_audit_creation_method            fapswitch 2.2
_symmetry_space_group_name_H-M    P1
_symmetry_Int_Tables_number       1
_space_group_crystal_system       triclinic
_cell_length_a                    19.054192
_cell_length_b                    10.993094
_cell_length_c                    18.790111
_cell_angle_alpha                 89.803029
_cell_angle_beta                  90.132571
_cell_angle_gamma                 89.788086
_cell_volume                      3935.80082177

loop_
_atom_site_label
_atom_site_type_symbol
_atom_type_description
_atom_site_fract_x
_atom_site_fract_y
_atom_site_fract_z
_atom_type_partial_charge
C1    C     C_R   0.724393 0.962134 0.856213 0.547179
C2    C     C_R   0.275524 0.962112 0.143799 0.545681
C3    C     C_R   0.227294 0.456081 0.853301 0.547905
C4    C     C_R   0.772740 0.456292 0.146630 0.546549
C5    C     C_R   0.698299 0.472145 0.038490 0.014791
C6    C     C_R   0.302045 0.470591 0.961062 0.016308
C7    C     C_R   0.202528 0.978090 0.034855 0.009735
C8    C     C_R   0.797025 0.978567 0.965080 0.009931
C9    C     C_R   0.692923 0.454281 0.965819 0.016230
C10   C     C_R   0.307479 0.452578 0.033745 0.016252
C11   C     C_R   0.194742 0.965869 0.961915 0.009783
C12   C     C_R   0.804794 0.966611 0.038054 0.009206
C13   C     C_R   0.781684 0.298047 0.973978 -0.147185
C14   C     C_R   0.218941 0.297097 0.026160 -0.146934
C15   C     C_R   0.317215 0.914043 0.951397 -0.158194
C16   C     C_R   0.682487 0.915022 0.048680 -0.158087
C17   C     C_R   0.785364 0.313008 0.047264 -0.157251
C18   C     C_R   0.215201 0.312169 0.952849 -0.157537
C19   C     C_R   0.323750 0.919091 0.025012 -0.150111
C20   C     C_R   0.676050 0.919580 0.975042 -0.151104
C21   C     C_3   0.686156 0.606036 0.030648 -0.247415
C22   C     C_3   0.314226 0.604340 0.968493 -0.247156
C23   C     C_3   0.130418 0.933115 0.049510 -0.291637
C24   C     C_3   0.869361 0.933775 0.950675 -0.289774
C25   C     C_3   0.679505 0.585732 0.951192 -0.280458
C26   C     C_3   0.321020 0.583755 0.047992 -0.281057
C27   C     C_3   0.121898 0.917530 0.969796 -0.261613
C28   C     C_3   0.877875 0.918334 0.030455 -0.262421
C29   C     C_R   0.739481 0.375989 0.931828 0.019640
C30   C     C_R   0.260935 0.374862 0.067980 0.021210
C31   C     C_R   0.250690 0.925080 0.919792 0.012341
C32   C     C_R   0.748973 0.925863 0.080261 0.013365
C33   C     C_R   0.510134 0.174227 0.419741 -0.045985
C34   C     C_R   0.548824 0.175666 0.562487 -0.023997
C35   C     C_R   0.010131 0.674227 0.419742 -0.046240
C36   C     C_R   0.048826 0.675668 0.562487 -0.024197
C37   C     C_R   0.513295 0.282837 0.457792 -0.042214
C38   C     C_R   0.531110 0.283097 0.527720 -0.095501
C39   C     C_R   0.013291 0.782837 0.457794 -0.042333
C40   C     C_R   0.031107 0.783098 0.527721 -0.095416
C41   C     C_R   0.556057 0.068299 0.522479 0.324319
C42   C     C_R   0.536249 0.067500 0.450679 0.345686
C43   C     C_R   0.056063 0.568303 0.522479 0.324247
C44   C     C_R   0.036249 0.567500 0.450680 0.345789
C45   C     C_R   0.529596 0.177738 0.850605 0.562801
C46   C     C_R   0.470307 0.177761 0.149331 0.550392
C47   C     C_R   0.030168 0.677515 0.850874 0.556043
C48   C     C_R   0.969908 0.677555 0.149177 0.543648
C49   C     C_3   0.457206 0.376745 0.468872 0.280395
C50   C     C_3   0.478227 0.379244 0.546061 0.279204
C51   C     C_3   0.957202 0.876744 0.468875 0.280461
C52   C     C_3   0.978226 0.879246 0.546063 0.279124
C53   C     C_R   0.750295 0.393195 0.417507 0.008044
C54   C     C_R   0.245973 0.422684 0.574760 0.039682
C55   C     C_R   0.250304 0.893215 0.417515 0.007637
C56   C     C_R   0.745968 0.922689 0.574757 0.039170
C57   C     C_R   0.799639 0.322944 0.455135 0.001857
C58   C     C_R   0.197938 0.352177 0.538619 0.111015
C59   C     C_R   0.299659 0.823000 0.455151 0.001772
C60   C     C_R   0.697926 0.852199 0.538613 0.110898
C61   C     C_R   0.792030 0.301278 0.526552 0.031783
C62   C     C_R   0.193280 0.349710 0.465908 0.124093
C63   C     C_R   0.292043 0.801312 0.526564 0.031969
C64   C     C_R   0.693272 0.849732 0.465901 0.124244
C65   C     C_R   0.678900 0.398200 0.524297 -0.175344
C66   C     C_R   0.292146 0.486388 0.459425 -0.180225
C67   C     C_R   0.178900 0.898189 0.524298 -0.175238
C68   C     C_R   0.792148 0.986387 0.459423 -0.180086
C69   C     C_R   0.686310 0.419312 0.450875 -0.169192
C70   C     C_R   0.292029 0.494379 0.534047 -0.128447
C71   C     C_R   0.186312 0.919302 0.450877 -0.169382
C72   C     C_R   0.792031 0.994372 0.534046 -0.128658
C73   C     C_3   0.878127 0.330431 0.460658 -0.215468
C74   C     C_3   0.177199 0.224090 0.549697 -0.266236
C75   C     C_3   0.378143 0.830540 0.460687 -0.215500
C76   C     C_3   0.677180 0.724114 0.549687 -0.266248
C77   C     C_3   0.869860 0.309421 0.540218 -0.117865
C78   C     C_3   0.167820 0.219527 0.469294 -0.130874
C79   C     C_3   0.369869 0.809474 0.540243 -0.117633
C80   C     C_3   0.667808 0.719552 0.469283 -0.130741
C81   C     C_R   0.733315 0.342412 0.563471 0.007866
C82   C     C_R   0.245707 0.406527 0.425009 -0.009028
C83   C     C_R   0.233318 0.842418 0.563476 0.008199
C84   C     C_R   0.745704 0.906539 0.425004 -0.008752
C85   C     C_R   0.735962 0.355120 0.855762 0.556401
C86   C     C_R   0.264173 0.354615 0.144118 0.550436
C87   C     C_R   0.238297 0.865096 0.852168 0.546607
C88   C     C_R   0.761603 0.865263 0.147882 0.539679
C89   C     C_R   0.728270 0.955618 0.647449 0.563534
C90   C     C_R   0.271832 0.952488 0.351560 0.535926
C91   C     C_R   0.228270 0.455618 0.647450 0.562279
C92   C     C_R   0.771831 0.452485 0.351560 0.534592
C93   C     C_R   0.563015 0.180830 0.637661 0.587149
C94   C     C_R   0.471163 0.176774 0.354241 0.564899
C95   C     C_R   0.063017 0.680831 0.637662 0.587832
C96   C     C_R   0.971162 0.676774 0.354241 0.565800
C97   C     C_R   0.726773 0.315034 0.638924 0.534844
C98   C     C_R   0.260186 0.360923 0.353969 0.543659
C99   C     C_R   0.226773 0.815034 0.638925 0.535192
C100  C     C_R   0.760185 0.860928 0.353967 0.542509
C101  C     C_2   0.497478 0.169902 0.921100 -0.103925
C102  C     C_2   0.502204 0.169933 0.078733 -0.104147
C103  C     C_2   0.998506 0.668017 0.921346 -0.128552
C104  C     C_2   0.001842 0.668239 0.078827 -0.128762
C105  C     C_2   0.494416 0.069667 0.038869 -0.164031
C106  C     C_2   0.505246 0.069548 0.961312 -0.166036
C107  C     C_2   0.992736 0.568629 0.038581 -0.161734
C108  C     C_2   0.008488 0.568625 0.962045 -0.163884
C109  C     C_R   0.748391 0.408429 0.079197 0.016107
C110  C     C_R   0.251903 0.407516 0.920663 0.017784
C111  C     C_R   0.265053 0.943567 0.068016 0.019097
C112  C     C_R   0.734730 0.943702 0.932040 0.019009
Cr1   Cr    Cr6+3 0.769260 0.163750 0.750730 1.014650
Cr2   Cr    Cr6+3 0.230740 0.163750 0.249270 0.994487
Cr3   Cr    Cr6+3 0.269260 0.663750 0.750730 1.010117
Cr4   Cr    Cr6+3 0.730740 0.663750 0.249270 0.990097
Cr5   Cr    Cr6+3 0.612640 0.009910 0.748780 1.037993
Cr6   Cr    Cr6+3 0.387360 0.009910 0.251220 1.035695
Cr7   Cr    Cr6+3 0.112640 0.509910 0.748780 1.042108
Cr8   Cr    Cr6+3 0.887360 0.509910 0.251220 1.039806
Cr9   Cr    Cr6+3 0.614190 0.322400 0.747710 1.025987
Cr10  Cr    Cr6+3 0.385810 0.322400 0.252290 1.050690
Cr11  Cr    Cr6+3 0.114190 0.822400 0.747710 1.017607
Cr12  Cr    Cr6+3 0.885810 0.822400 0.252290 1.042441
H1    H     H_    0.479291 0.984549 0.063534 0.136132
H2    H     H_    0.520339 0.984261 0.936950 0.134975
H3    H     H_    0.972220 0.485222 0.061511 0.159395
H4    H     H_    0.029612 0.485394 0.939467 0.158657
H5    H     H_    0.903698 0.840885 0.458927 0.153979
H6    H     H_    0.001993 0.966255 0.563798 0.136259
H7    H     H_    0.403702 0.340888 0.458923 0.153793
H8    H     H_    0.501992 0.466252 0.563798 0.136208
H9    H     H_    0.632732 0.431872 0.551061 0.129393
H10   H     H_    0.331341 0.535715 0.429442 0.177366
H11   H     H_    0.132727 0.931847 0.551060 0.129546
H12   H     H_    0.831348 0.035705 0.429441 0.177402
H13   H     H_    0.645001 0.465309 0.421975 0.151775
H14   H     H_    0.328263 0.554706 0.560036 0.157089
H15   H     H_    0.144998 0.965274 0.421972 0.151658
H16   H     H_    0.828271 0.054682 0.560037 0.156947
H17   H     H_    0.899455 0.420934 0.445956 0.197879
H18   H     H_    0.128202 0.216361 0.581450 0.172276
H19   H     H_    0.399446 0.921071 0.446006 0.197805
H20   H     H_    0.628179 0.716391 0.581435 0.172259
H21   H     H_    0.904254 0.253028 0.433350 0.161119
H22   H     H_    0.221396 0.167121 0.569076 0.112755
H23   H     H_    0.404294 0.753174 0.433367 0.161167
H24   H     H_    0.721372 0.667138 0.569070 0.112804
H25   H     H_    0.893450 0.221325 0.556782 0.134816
H26   H     H_    0.204720 0.155591 0.443366 0.156437
H27   H     H_    0.393462 0.721369 0.556788 0.134848
H28   H     H_    0.704709 0.655613 0.443360 0.156714
H29   H     H_    0.522161 0.253411 0.055407 0.112637
H30   H     H_    0.477452 0.253548 0.944143 0.113588
H31   H     H_    0.023584 0.750270 0.055783 0.103098
H32   H     H_    0.976295 0.749908 0.944096 0.102868
H33   H     H_    0.814450 0.228680 0.950217 0.150281
H34   H     H_    0.186276 0.228010 0.050191 0.151172
H35   H     H_    0.362581 0.886905 0.920530 0.135332
H36   H     H_    0.637184 0.888063 0.079629 0.135801
H37   H     H_    0.822439 0.258235 0.077366 0.138627
H38   H     H_    0.178193 0.257770 0.922950 0.138999
H39   H     H_    0.374295 0.898881 0.048239 0.132832
H40   H     H_    0.625659 0.899171 0.951826 0.132934
H41   H     H_    0.096057 0.005345 0.071887 0.139408
H42   H     H_    0.903365 0.006064 0.928000 0.141256
H43   H     H_    0.733234 0.660209 0.044942 0.158765
H44   H     H_    0.267117 0.659171 0.954170 0.157748
H45   H     H_    0.636308 0.635958 0.055852 0.142740
H46   H     H_    0.364026 0.633709 0.943106 0.143925
H47   H     H_    0.130956 0.845994 0.079719 0.133363
H48   H     H_    0.869243 0.846643 0.920841 0.136202
H49   H     H_    0.625558 0.602332 0.930630 0.142621
H50   H     H_    0.375028 0.599447 0.068396 0.142693
H51   H     H_    0.117790 0.820607 0.953816 0.151936
H52   H     H_    0.882396 0.821433 0.046839 0.153298
H53   H     H_    0.722117 0.629267 0.919872 0.139346
H54   H     H_    0.278499 0.627845 0.079266 0.138145
H55   H     H_    0.081763 0.979380 0.946236 0.141732
H56   H     H_    0.917708 0.980240 0.053775 0.141207
O1    O     O_R   0.784290 0.290360 0.830540 -0.522976
O2    O     O_R   0.215710 0.290360 0.169460 -0.527238
O3    O     O_R   0.284290 0.790360 0.830540 -0.528166
O4    O     O_R   0.715710 0.790360 0.169460 -0.531659
O5    O     O_R   0.554690 0.080440 0.673480 -0.449687
O6    O     O_R   0.445310 0.080440 0.326520 -0.459357
O7    O     O_R   0.054690 0.580440 0.673480 -0.448873
O8    O     O_R   0.945310 0.580440 0.326520 -0.458690
O9    O     O_R   0.543980 0.282110 0.666770 -0.479224
O10   O     O_R   0.456020 0.282110 0.333230 -0.488878
O11   O     O_R   0.043980 0.782110 0.666770 -0.478244
O12   O     O_R   0.956020 0.782110 0.333230 -0.487995
O13   O     O_R   0.679070 0.374030 0.674430 -0.524100
O14   O     O_R   0.320930 0.374030 0.325570 -0.492402
O15   O     O_R   0.179070 0.874030 0.674430 -0.524348
O16   O     O_R   0.820930 0.874030 0.325570 -0.492323
O17   O     O_3   0.665360 0.165350 0.749070 -0.303758
O18   O     O_3   0.334640 0.165350 0.250930 -0.264460
O19   O     O_3   0.165360 0.665350 0.749070 -0.300512
O20   O     O_3   0.834640 0.665350 0.250930 -0.260939
O21   O     O_R   0.762610 0.041070 0.825230 -0.495348
O22   O     O_R   0.237390 0.041070 0.174770 -0.500501
O23   O     O_R   0.262610 0.541070 0.825230 -0.496754
O24   O     O_R   0.737390 0.541070 0.174770 -0.501444
O25   O     O_R   0.667390 0.924160 0.829970 -0.531405
O26   O     O_R   0.332610 0.924160 0.170030 -0.528392
O27   O     O_R   0.167390 0.424160 0.829970 -0.527610
O28   O     O_R   0.832610 0.424160 0.170030 -0.524252
O29   O     O_R   0.553980 0.081420 0.821780 -0.501326
O30   O     O_R   0.446020 0.081420 0.178220 -0.501453
O31   O     O_R   0.053980 0.581420 0.821780 -0.493918
O32   O     O_R   0.946020 0.581420 0.178220 -0.494085
O33   O     O_R   0.543210 0.283170 0.826740 -0.504962
O34   O     O_R   0.456790 0.283170 0.173260 -0.513292
O35   O     O_R   0.043210 0.783170 0.826740 -0.515409
O36   O     O_R   0.956790 0.783170 0.173260 -0.523812
O37   O     O_R   0.678350 0.375000 0.822720 -0.490957
O38   O     O_R   0.321650 0.375000 0.177280 -0.493889
O39   O     O_R   0.178350 0.875000 0.822720 -0.495050
O40   O     O_R   0.821650 0.875000 0.177280 -0.497669
O41   O     O_R   0.785060 0.289300 0.670580 -0.517481
O42   O     O_R   0.214940 0.289300 0.329420 -0.529225
O43   O     O_R   0.285060 0.789300 0.670580 -0.518440
O44   O     O_R   0.714940 0.789300 0.329420 -0.530024
O45   O     O_R   0.763330 0.040090 0.676940 -0.516573
O46   O     O_R   0.236670 0.040090 0.323060 -0.522275
O47   O     O_R   0.263330 0.540090 0.676940 -0.516605
O48   O     O_R   0.736670 0.540090 0.323060 -0.522334
O49   O     O_R   0.668160 0.923110 0.670000 -0.474540
O50   O     O_R   0.331840 0.923110 0.330000 -0.512915
O51   O     O_R   0.168160 0.423110 0.670000 -0.475786
O52   O     O_R   0.831840 0.423110 0.330000 -0.514220
F1    F     F_    0.471946 0.484186 0.433678 -0.698457
F2    F     F_    0.425270 0.336633 0.589806 -0.666322
F3    F     F_    0.971940 0.984183 0.433679 -0.698447
F4    F     F_    0.925271 0.836640 0.589812 -0.666532
C113  C     C_3   0.897280 0.415285 0.586601 -0.258497
C114  C     C_3   0.859664 0.537775 0.578062 -0.404096
H57   H     H_    0.852283 0.563253 0.521370 0.138971
H58   H     H_    0.808266 0.535151 0.605266 0.165762
H59   H     H_    0.891407 0.609403 0.604100 0.213213
H60   H     H_    0.896447 0.388580 0.643540 0.186249
H61   H     H_    0.953034 0.427765 0.573496 0.216369
C115  C     C_3   0.089643 0.201183 0.450083 -0.236913
C116  C     C_3   0.075126 0.199207 0.370218 -0.328463
H62   H     H_    0.086299 0.288936 0.345876 0.227267
H63   H     H_    0.107011 0.127982 0.343811 0.161082
H64   H     H_    0.018841 0.178891 0.360886 0.177857
H65   H     H_    0.072593 0.113075 0.472995 0.166991
H66   H     H_    0.056388 0.271754 0.475384 0.253808
C117  C     C_3   0.397276 0.915307 0.586661 -0.258684
C118  C     C_3   0.359642 0.037786 0.578164 -0.404294
H67   H     H_    0.352257 0.063311 0.521480 0.139064
H68   H     H_    0.308246 0.035116 0.605368 0.165530
H69   H     H_    0.391373 0.109404 0.604224 0.213188
H70   H     H_    0.396452 0.888548 0.643591 0.185208
H71   H     H_    0.453026 0.927827 0.573557 0.216457
C119  C     C_3   0.589634 0.701213 0.450062 -0.236694
C120  C     C_3   0.575125 0.699241 0.370194 -0.328910
H72   H     H_    0.586302 0.788971 0.345850 0.226432
H73   H     H_    0.607012 0.628010 0.343792 0.161566
H74   H     H_    0.518841 0.678926 0.360855 0.177814
H75   H     H_    0.572583 0.613104 0.472971 0.166979
H76   H     H_    0.556375 0.771776 0.475363 0.253831
F5    F     F_    0.573908 0.962626 0.554571 -0.655698
F6    F     F_    0.536387 0.962356 0.413663 -0.663071
F7    F     F_    0.073923 0.462632 0.554570 -0.655659
F8    F     F_    0.036386 0.462352 0.413668 -0.662784

loop_
_geom_bond_atom_site_label_1
_geom_bond_atom_site_label_2
_ccdc_geom_bond_type
Cr8   O32   S    
C39   C51   S    
C4    C109  S    
C48   O36   A    
C67   C83   A    
C75   H19   S    
C47   O31   A    
C16   H36   S    
C3    O23   A    
C41   C42   A    
C14   C18   A    
C41   F5    S    
C119  H75   S    
C2    O22   A    
C34   C93   S    
C120  H74   S    
C53   C69   A    
C33   C94   S    
Cr8   O52   S    
Cr12  O40   S    
C51   H5    S    
C9    C25   S    
C117  C118  S    
C44   F8    S    
C63   C79   S    
C35   C96   S    
C65   C69   A    
C15   C19   A    
C49   H7    S    
C114  H59   S    
C58   C74   S    
Cr11  O35   S    
C37   C38   A    
C75   C79   S    
C115  H66   S    
C113  H60   S    
C14   H34   S    
C86   O2    A    
Cr7   O19   S    
C33   C42   A    
C13   C29   A    
Cr6   O26   S    
C27   H55   S    
C55   C90   S    
Cr5   O25   S    
C8    C112  A    
C1    C112  S    
C87   O3    A    
C35   C39   A    
Cr4   O20   S    
C25   H53   S    
C4    O24   A    
Cr2   O46   S    
C100  O44   A    
C3    C110  S    
C97   O13   A    
C20   H40   S    
C99   O15   A    
C92   O48   A    
Cr10  O34   S    
C115  C116  S    
C98   O14   A    
C102  C105  D    
C51   F3    S    
C86   O38   A    
C118  H67   S    
C57   C73   S    
C50   F2    S    
C85   O37   A    
C64   C84   A    
C36   C40   A    
C49   F1    S    
C81   C97   S    
Cr8   O20   S    
C20   C112  A    
C65   C81   A    
Cr1   O1    S    
C48   O32   A    
C61   C77   S    
C56   C72   A    
C47   O35   A    
C73   H21   S    
C45   O33   A    
C107  C108  S    
Cr2   O22   S    
C92   O52   A    
C4    O28   A    
C103  C108  D    
C2    O26   A    
C87   O39   A    
Cr4   O44   S    
C30   C86   S    
C1    O25   A    
C98   O42   A    
C29   C85   S    
C7    C23   S    
C79   C117  S    
C9    C29   A    
C17   H37   S    
C22   H44   S    
C19   C111  A    
C10   C26   S    
C6    C22   S    
C26   H54   S    
C74   H18   S    
C1    O21   A    
C83   C99   S    
C116  H62   S    
C12   C32   A    
C77   C113  S    
C64   C80   S    
Cr11  O15   S    
C80   C119  S    
Cr11  O39   S    
Cr10  O14   S    
Cr8   O8    S    
C13   H33   S    
Cr4   O24   S    
C90   O46   A    
C60   C64   A    
Cr10  O10   S    
C99   O43   A    
C23   C27   S    
C100  O16   A    
C69   H13   S    
C62   C78   S    
C114  H58   S    
C2    C111  S    
C31   C87   S    
C115  H65   S    
C113  H61   S    
C95   O7    A    
C51   C52   S    
C68   C84   A    
C94   O6    A    
C68   H12   S    
C47   C103  S    
C93   O5    A    
C27   H51   S    
C39   C40   A    
C53   C57   A    
C45   C101  S    
C73   H17   S    
C7    C111  A    
C75   H23   S    
C40   C52   S    
C106  H2    S    
Cr3   O19   S    
C60   C76   S    
C78   C115  S    
C56   C60   A    
C91   O51   A    
C68   C72   A    
Cr8   O28   S    
C6    C110  A    
C7    C11   A    
C43   C44   A    
C94   O10   A    
Cr3   O23   S    
Cr3   O47   S    
C67   H11   S    
C66   C82   A    
C37   C49   S    
C10   C30   A    
Cr1   O45   S    
C45   O29   A    
C54   C70   A    
C11   C27   S    
C16   C20   A    
Cr1   O41   S    
Cr12  O16   S    
C53   C92   S    
C54   C58   A    
C23   H47   S    
C78   H26   S    
C19   H39   S    
Cr10  O18   S    
C57   C61   A    
C35   C44   A    
C28   H56   S    
C102  H29   S    
Cr9   O17   S    
C43   F7    S    
C22   H46   S    
C50   H8    S    
C58   C62   A    
C118  H69   S    
C65   H9    S    
C76   H20   S    
Cr2   O42   S    
C56   C89   S    
C84   C100  S    
Cr4   O48   S    
C70   H14   S    
Cr1   O21   S    
C116  H63   S    
C88   O40   A    
Cr2   O18   S    
C82   C98   S    
Cr5   O5    S    
C59   C63   A    
C32   C88   S    
C42   F6    S    
C77   H25   S    
C120  H72   S    
Cr9   O13   S    
Cr6   O18   S    
C59   C75   S    
C46   O30   A    
Cr12  O12   S    
Cr5   O17   S    
C55   C59   A    
C52   F4    S    
C118  H68   S    
Cr12  O36   S    
C79   H27   S    
Cr11  O19   S    
C101  C106  D    
C80   H28   S    
C26   H50   S    
C21   C25   S    
C114  H57   S    
Cr1   O17   S    
C95   O11   A    
Cr10  O38   S    
C91   O47   A    
C34   C38   A    
Cr9   O37   S    
C74   H22   S    
C28   H52   S    
C24   C28   S    
C89   O45   A    
C119  H76   S    
C120  H73   S    
C17   C109  A    
C15   H35   S    
C6    C10   A    
Cr7   O27   S    
C71   H15   S    
C76   C80   S    
C93   O9    A    
C15   C31   A    
C38   C50   S    
C85   O1    A    
Cr7   O51   S    
C16   C32   A    
C89   O49   A    
C105  C106  S    
Cr12  O20   S    
Cr7   O31   S    
C21   H43   S    
C105  H1    S    
C107  H3    S    
Cr6   O30   S    
C3    O27   A    
C96   O12   A    
Cr5   O29   S    
C119  C120  S    
C14   C30   A    
C54   C91   S    
C34   C41   A    
Cr2   O2    S    
C117  H71   S    
Cr9   O9    S    
C52   H6    S    
C18   H38   S    
C36   C95   S    
C117  H70   S    
C66   C70   A    
C5    C109  A    
C101  H30   S    
Cr6   O50   S    
C21   H45   S    
Cr4   O4    S    
Cr5   O49   S    
C8    C24   S    
C97   O41   A    
C33   C37   A    
C67   C71   A    
C104  H31   S    
C62   C82   A    
C24   H42   S    
C24   H48   S    
Cr7   O7    S    
C88   O4    A    
Cr3   O43   S    
C11   C31   A    
C13   C17   A    
C25   H49   S    
C103  H32   S    
C72   H16   S    
C5    C21   S    
C76   H24   S    
C46   O34   A    
C18   C110  A    
C49   C50   S    
C22   C26   S    
C116  H64   S    
C63   C83   A    
Cr6   O6    S    
C23   H41   S    
C73   C77   S    
C90   O50   A    
C36   C43   A    
C61   C81   A    
C5    C9    A    
C108  H4    S    
C12   C28   S    
C66   H10   S    
C113  C114  S    
Cr11  O11   S    
C96   O8    A    
C104  C107  D    
C55   C71   A    
Cr3   O3    S    
C8    C12   A    
Cr9   O33   S    
C74   C78   S    
C46   C102  S    
C48   C104  S    
