data_mof_unit_2077.cif
_audit_creation_date              2012-10-26T20:07:49-0400
_audit_creation_method            fapswitch 2.2
_symmetry_space_group_name_H-M    P1
_symmetry_Int_Tables_number       1
_space_group_crystal_system       triclinic
_cell_length_a                    9.546441
_cell_length_b                    10.892297
_cell_length_c                    17.111223
_cell_angle_alpha                 89.191885
_cell_angle_beta                  93.846264
_cell_angle_gamma                 89.031645
_cell_volume                      1774.80248578

loop_
_atom_site_label
_atom_site_type_symbol
_atom_type_description
_atom_site_fract_x
_atom_site_fract_y
_atom_site_fract_z
_atom_type_partial_charge
C1    C     C_R   0.501358 0.262235 0.499135 0.547859
C2    C     C_R   0.065843 0.544072 0.436909 0.013871
C3    C     C_R   0.517341 0.498784 0.650855 0.550020
C4    C     C_R   0.482659 0.501216 0.349145 0.550020
C5    C     C_R   0.526574 0.498990 0.736715 0.007567
C6    C     C_R   0.473426 0.501010 0.263285 0.007567
C7    C     C_R   0.403389 0.503452 0.777000 -0.164335
C8    C     C_R   0.596611 0.496548 0.222999 -0.164335
C9    C     C_R   0.410904 0.503533 0.858346 -0.092344
C10   C     C_R   0.589095 0.496467 0.141654 -0.092344
C11   C     C_R   0.542617 0.499141 0.901050 0.227215
C12   C     C_R   0.498642 0.737765 0.500865 0.547859
C13   C     C_R   0.457383 0.500859 0.098950 0.227215
C14   C     C_R   0.665179 0.495055 0.860733 -0.113216
C15   C     C_R   0.334821 0.504945 0.139267 -0.113216
C16   C     C_R   0.657664 0.494990 0.779144 -0.156578
C17   C     C_R   0.342335 0.505010 0.220856 -0.156578
C18   C     C_R   0.381018 0.068231 0.515379 -0.156604
C19   C     C_R   0.618982 0.931769 0.484621 -0.156604
C20   C     C_R   0.240177 0.886577 0.533414 0.057780
C21   C     C_R   0.134200 0.878793 0.473079 -0.074180
C22   C     C_R   0.005277 0.828496 0.488115 -0.108359
C23   C     C_R   0.375277 0.941254 0.516907 -0.034579
C24   C     C_R   0.980591 0.787194 0.563650 -0.100681
C25   C     C_R   0.086088 0.794717 0.624053 -0.115079
C26   C     C_R   0.215950 0.844345 0.609086 -0.070764
C27   C     C_R   0.759823 0.113423 0.466585 0.057780
C28   C     C_R   0.784050 0.155655 0.390914 -0.070764
C29   C     C_R   0.913912 0.205283 0.375947 -0.115079
C30   C     C_R   0.019409 0.212806 0.436350 -0.100681
C31   C     C_R   0.994723 0.171504 0.511884 -0.108359
C32   C     C_R   0.865800 0.121207 0.526921 -0.074180
C33   C     C_R   0.624723 0.058745 0.483093 -0.034579
C34   C     C_R   0.496126 0.871718 0.501292 -0.005069
C35   C     C_R   0.503874 0.128282 0.498708 -0.005069
C36   C     C_R   0.082597 0.455999 0.563140 0.009501
C37   C     C_R   0.917403 0.544001 0.436860 0.009501
C38   C     C_R   0.934157 0.455928 0.563091 0.013871
Cu1   Cu    Cu3+1 0.640660 0.500020 0.500000 0.931539
Cu2   Cu    Cu3+1 0.359340 0.499980 0.500000 0.931539
H1    H     H_    0.699163 0.492981 0.254228 0.119072
H2    H     H_    0.233047 0.508219 0.107186 0.111737
H3    H     H_    0.288710 0.120410 0.528355 0.128899
H4    H     H_    0.711290 0.879590 0.471644 0.128899
H5    H     H_    0.151908 0.910947 0.414423 0.103666
H6    H     H_    0.925810 0.820086 0.440601 0.093819
H7    H     H_    0.880398 0.748273 0.575216 0.138364
H8    H     H_    0.067324 0.761885 0.682353 0.098184
H9    H     H_    0.297251 0.849985 0.656116 0.101180
H10   H     H_    0.702749 0.150014 0.343884 0.101180
H11   H     H_    0.932676 0.238115 0.317646 0.098184
H12   H     H_    0.300837 0.507019 0.745772 0.119072
H13   H     H_    0.119602 0.251727 0.424784 0.138364
H14   H     H_    0.074190 0.179914 0.559399 0.093819
H15   H     H_    0.848092 0.089053 0.585577 0.103666
H16   H     H_    0.144444 0.419237 0.613578 0.102157
H17   H     H_    0.855556 0.580763 0.386422 0.102157
H18   H     H_    0.754304 0.491636 0.749441 0.117752
H19   H     H_    0.245696 0.508364 0.250559 0.117752
H20   H     H_    0.885715 0.419120 0.613475 0.104698
H21   H     H_    0.114285 0.580880 0.386525 0.104698
H22   H     H_    0.686383 0.492976 0.112623 0.131114
H23   H     H_    0.313617 0.507024 0.887377 0.131114
H24   H     H_    0.766953 0.491781 0.892814 0.111737
N1    N     N_2   0.556826 0.498670 0.984061 -0.254683
N2    N     N_2   0.443174 0.501330 0.015939 -0.254683
N3    N     N_R   0.852070 0.500030 0.499980 -0.222129
N4    N     N_R   0.147930 0.499970 0.500020 -0.222130
O1    O     O_R   0.618740 0.319660 0.500000 -0.481619
O2    O     O_R   0.381260 0.680340 0.500000 -0.481619
O3    O     O_R   0.381170 0.319630 0.500010 -0.519366
O4    O     O_R   0.618830 0.680370 0.499990 -0.519366
O5    O     O_R   0.631780 0.498870 0.613920 -0.515683
O6    O     O_R   0.368220 0.501130 0.386080 -0.515683
O7    O     O_R   0.394210 0.498840 0.613930 -0.510726
O8    O     O_R   0.605790 0.501160 0.386070 -0.510726

loop_
_geom_bond_atom_site_label_1
_geom_bond_atom_site_label_2
_ccdc_geom_bond_type
C24   C25   A    
Cu2   O3    S    
C27   C33   S    
C1    O3    A    
Cu2   O2    S    
C28   C29   A    
C7    H12   S    
C2    N4    A    
C30   C31   A    
C11   C14   A    
C7    C9    A    
C5    C16   A    
C28   H10   S    
Cu1   O4    S    
C3    O7    A    
C18   C35   A    
C32   H15   S    
C4    O6    A    
C2    H21   S    
C12   O4    A    
C21   C22   A    
C10   H22   S    
C21   H5    S    
C13   N2    S    
C30   H13   S    
C18   C23   A    
C8    H1    S    
C4    C6    S    
C19   C33   A    
C26   H9    S    
Cu1   Cu2   S    
C5    C7    A    
C6    C8    A    
C25   C26   A    
C10   C13   A    
C1    O1    A    
C29   C30   A    
C36   H16   S    
C31   C32   A    
C20   C23   S    
C23   C34   A    
C14   H24   S    
Cu1   O1    S    
C16   H18   S    
Cu1   O8    S    
C38   N3    A    
C9    C11   A    
C25   H8    S    
C17   H19   S    
C38   H20   S    
C22   H6    S    
C13   C15   A    
C14   C16   A    
C12   C34   S    
C19   H4    S    
C1    C35   S    
C29   H11   S    
C15   C17   A    
C6    C17   A    
C12   O2    A    
C27   C32   A    
C9    H23   S    
C24   H7    S    
Cu1   N3    S    
C15   H2    S    
C3    C5    S    
C19   C34   A    
C36   N4    A    
Cu2   O7    S    
C36   C38   A    
C18   H3    S    
C2    C37   A    
C20   C26   A    
C37   N3    A    
C33   C35   A    
Cu2   O6    S    
C22   C24   A    
Cu1   O5    S    
C31   H14   S    
C3    O5    A    
C4    O8    A    
C20   C21   A    
C8    C10   A    
N1    N2    D    
Cu2   N4    S    
C27   C28   A    
C37   H17   S    
C11   N1    S    
