data_mof_unit_1385.cif
_audit_creation_date              2012-12-11T15:10:46-0500
_audit_creation_method            fapswitch 2.2
_symmetry_space_group_name_H-M    P1
_symmetry_Int_Tables_number       1
_space_group_crystal_system       triclinic
_cell_length_a                    21.217813
_cell_length_b                    7.229348
_cell_length_c                    18.257925
_cell_angle_alpha                 90.062479
_cell_angle_beta                  93.172643
_cell_angle_gamma                 90.043807
_cell_volume                      2796.30544565

loop_
_atom_site_label
_atom_site_type_symbol
_atom_type_description
_atom_site_fract_x
_atom_site_fract_y
_atom_site_fract_z
_atom_type_partial_charge
O1    O     O_R   0.448880 0.506250 0.415280 -0.524594
O2    O     O_R   0.551120 0.006250 0.584720 -0.525094
O3    O     O_R   0.434830 0.174000 0.557310 -0.528503
O4    O     O_R   0.565170 0.674000 0.442690 -0.527895
C1    C     C_R   0.417000 0.344586 0.579702 0.757045
C2    C     C_R   0.582977 0.844548 0.420270 0.757837
O5    O     O_R   0.441680 0.176440 0.414130 -0.542439
O6    O     O_R   0.558320 0.676440 0.585870 -0.541679
O7    O     O_R   0.558020 0.007570 0.440520 -0.520126
O8    O     O_R   0.441980 0.507570 0.559480 -0.519510
C3    C     C_R   0.427068 0.345156 0.389198 0.773397
C4    C     C_R   0.572879 0.845468 0.610847 0.774030
O9    O     O_3   0.538160 0.339670 0.508820 -0.380057
O10   O     O_3   0.461840 0.839670 0.491180 -0.381096
V1    V     V_3+5 0.492920 0.064260 0.498360 1.385461
V2    V     V_3+5 0.507080 0.564260 0.501640 1.387902
C5    C     C_R   0.881080 0.913630 0.687245 -0.191132
C6    C     C_R   0.119194 0.431784 0.313039 -0.189838
H1    H     H_    0.905239 0.912409 0.636514 0.183357
H2    H     H_    0.095189 0.434184 0.363870 0.183084
C7    C     C_R   0.888281 0.936526 0.819499 -0.219903
C8    C     C_R   0.111717 0.439412 0.180485 -0.221924
C9    C     C_R   0.585239 0.809417 0.743754 -0.176375
C10   C     C_R   0.414183 0.300640 0.256810 -0.175837
C11   C     C_R   0.620477 0.792508 0.809638 -0.148634
C12   C     C_R   0.378612 0.278343 0.191431 -0.150061
C13   C     C_R   0.685311 0.821805 0.812827 -0.091247
C14   C     C_R   0.313910 0.309428 0.188203 -0.090901
C15   C     C_R   0.716881 0.876641 0.750216 0.038282
C16   C     C_R   0.282829 0.372251 0.250076 0.038448
C17   C     C_R   0.680899 0.887445 0.681342 -0.091621
C18   C     C_R   0.319092 0.387632 0.318667 -0.091330
C19   C     C_R   0.783824 0.908895 0.753342 -0.090193
C20   C     C_R   0.216106 0.408644 0.246643 -0.088480
C21   C     C_R   0.814778 0.911659 0.686393 -0.139933
C22   C     C_R   0.185393 0.421010 0.313637 -0.139924
C23   C     C_R   0.779462 0.915499 0.618967 0.398699
C24   C     C_R   0.220853 0.425945 0.380948 0.395833
C25   C     C_R   0.713231 0.925783 0.617277 0.292641
C26   C     C_R   0.287137 0.431925 0.382453 0.292347
C27   C     C_R   0.821690 0.939649 0.820009 0.352537
C28   C     C_R   0.178254 0.433965 0.179598 0.355711
C29   C     C_R   0.917666 0.916047 0.753204 0.364608
C30   C     C_R   0.082475 0.439749 0.247323 0.366125
C31   C     C_R   0.614151 0.853537 0.679044 -0.059598
C32   C     C_R   0.385711 0.351589 0.321062 -0.059951
H3    H     H_    0.534978 0.781689 0.742774 0.101673
H4    H     H_    0.464304 0.270941 0.257917 0.101968
H5    H     H_    0.597518 0.751123 0.858534 0.120799
H6    H     H_    0.401175 0.231106 0.143054 0.120854
C33   C     C_1   0.864825 0.938862 0.132489 -0.185936
C34   C     C_1   0.135178 0.439027 0.867512 -0.188934
C35   C     C_1   0.822131 0.924746 0.176449 -0.000120
C36   C     C_1   0.177873 0.425077 0.823545 0.000848
C37   C     C_1   0.771686 0.905610 0.228720 -0.000648
C38   C     C_1   0.228313 0.406010 0.771262 -0.000027
C39   C     C_1   0.729127 0.889006 0.272734 -0.000937
C40   C     C_1   0.270863 0.389368 0.727238 -0.001852
C41   C     C_1   0.678473 0.869937 0.324731 -0.003178
C42   C     C_1   0.321506 0.370186 0.675232 -0.004064
C43   C     C_1   0.635454 0.855901 0.368262 -0.194680
C44   C     C_1   0.364519 0.356042 0.631698 -0.195061
O11   O     O_R   0.058070 0.289240 0.940580 -0.517271
O12   O     O_R   0.941930 0.789240 0.059420 -0.523811
O13   O     O_R   0.058330 0.616740 0.085880 -0.546720
O14   O     O_R   0.941670 0.116740 0.914120 -0.538356
C45   C     C_R   0.071886 0.448576 0.111594 0.818088
C46   C     C_R   0.928073 0.948163 0.888418 0.819501
O15   O     O_R   0.065180 0.619040 0.942700 -0.524592
O16   O     O_R   0.934820 0.119040 0.057300 -0.519293
O17   O     O_R   0.948870 0.787780 0.915270 -0.539185
O18   O     O_R   0.051130 0.287780 0.084730 -0.529829
C47   C     C_R   0.083119 0.450330 0.920080 0.714778
C48   C     C_R   0.916885 0.950310 0.079922 0.717860
O19   O     O_3   0.961870 0.453310 0.991210 -0.374932
O20   O     O_3   0.038130 0.953310 0.008790 -0.373354
V3    V     V_3+5 0.007070 0.728770 0.001630 1.427530
V4    V     V_3+5 0.992930 0.228770 0.998370 1.458671
O21   O     O_3   0.982837 0.917932 0.752611 -0.554269
C49   C     C_3   0.003886 0.737054 0.738454 -0.222527
H7    H     H_    0.988863 0.691988 0.681878 0.133907
H8    H     H_    0.987262 0.636543 0.779394 0.129475
H9    H     H_    0.056242 0.736218 0.742989 0.164674
O22   O     O_3   0.017321 0.441646 0.248257 -0.553558
C50   C     C_3   0.997602 0.623029 0.263928 -0.230882
H10   H     H_    0.014372 0.724331 0.223394 0.131124
H11   H     H_    0.013570 0.665056 0.320585 0.137563
H12   H     H_    0.945251 0.626740 0.260247 0.165697
O23   O     O_3   0.809924 0.928466 0.554026 -0.548228
C51   C     C_3   0.808841 0.752939 0.520190 -0.215675
H13   H     H_    0.759811 0.709022 0.503707 0.158067
H14   H     H_    0.832395 0.646872 0.556433 0.117365
H15   H     H_    0.835333 0.761421 0.469600 0.164239
O24   O     O_3   0.190628 0.445221 0.445827 -0.550674
C52   C     C_3   0.190313 0.271886 0.481170 -0.213735
H16   H     H_    0.238987 0.225545 0.497929 0.157884
H17   H     H_    0.165807 0.165256 0.445895 0.121219
H18   H     H_    0.164010 0.285490 0.531735 0.165404
O25   O     O_3   0.795141 0.979906 0.885628 -0.571910
C53   C     C_3   0.778897 0.169106 0.885871 -0.257203
H19   H     H_    0.741723 0.201332 0.842387 0.146920
H20   H     H_    0.820945 0.258761 0.879608 0.144657
H21   H     H_    0.759556 0.202822 0.939487 0.162657
O26   O     O_3   0.204845 0.461987 0.113061 -0.571614
C54   C     C_3   0.222666 0.649503 0.108439 -0.265426
H22   H     H_    0.260107 0.685661 0.151148 0.148036
H23   H     H_    0.181393 0.743197 0.112554 0.145353
H24   H     H_    0.242262 0.673215 0.054160 0.164219
H25   H     H_    0.710065 0.790530 0.864393 0.169863
H26   H     H_    0.288899 0.273192 0.137309 0.171231
O27   O     O_3   0.680838 0.964974 0.551385 -0.565881
C55   C     C_3   0.683769 0.157899 0.539641 -0.146348
H27   H     H_    0.733166 0.207768 0.536595 0.140660
H28   H     H_    0.659831 0.234896 0.583036 0.123002
H29   H     H_    0.659042 0.190683 0.486215 0.159858
O28   O     O_3   0.319900 0.472345 0.448053 -0.566154
C56   C     C_3   0.317947 0.665755 0.459013 -0.141436
H30   H     H_    0.268845 0.717948 0.461865 0.139524
H31   H     H_    0.342264 0.740251 0.415297 0.123094
H32   H     H_    0.342821 0.699162 0.512333 0.160573

loop_
_geom_bond_atom_site_label_1
_geom_bond_atom_site_label_2
_ccdc_geom_bond_type
O14   C46   A    
C9    C31   A    
C13   C15   A    
O12   V3    S    
O15   V3    S    
O27   C55   S    
O1    C3    A    
C33   C48   S    
O2    C4    A    
C2    O7    A    
C55   H28   S    
C52   H18   S    
C26   O28   S    
C50   H10   S    
O5    C3    A    
C54   H23   S    
C2    C43   S    
C21   C23   A    
C10   C12   A    
C56   H31   S    
C39   C41   S    
O16   V4    S    
C29   O21   S    
C15   C19   A    
O28   C56   S    
C42   C44   T    
C45   O18   A    
C55   H27   S    
O18   V4    S    
C19   C21   A    
C7    C29   A    
C8    C30   A    
C52   H16   S    
C38   C40   T    
O13   C45   A    
C20   C28   A    
O16   C48   A    
C27   O25   S    
O15   C47   A    
C16   C18   A    
C20   C22   A    
C25   O27   S    
O6    V2    S    
C49   H9    S    
O26   C54   S    
C34   C36   T    
C40   C42   S    
C35   C37   S    
O14   V4    S    
C54   H24   S    
C36   C38   S    
C41   C43   T    
O13   V3    S    
C16   C20   A    
C50   H11   S    
C10   H4    S    
C9    H3    S    
O20   V3    S    
O4    C2    A    
C34   C47   S    
C56   H32   S    
C49   H7    S    
O11   C47   A    
C14   H26   S    
C53   H21   S    
C33   C35   T    
O4    V2    S    
C5    C29   A    
C6    C30   A    
C51   H14   S    
O25   C53   S    
O6    C4    A    
C24   O24   S    
C53   H20   S    
O1    V2    S    
O22   C50   S    
O2    V1    S    
C7    C27   A    
C49   H8    S    
C37   C39   T    
C7    C46   S    
C22   C24   A    
O17   V3    S    
O3    V1    S    
C51   H15   S    
C50   H12   S    
C18   C32   A    
C4    C31   S    
O3    C1    A    
C28   O26   S    
C52   H17   S    
C23   O23   S    
C11   C13   A    
C54   H22   S    
C12   C14   A    
C30   O22   S    
C19   C27   A    
C12   H6    S    
O7    V1    S    
C10   C32   A    
C14   C16   A    
C23   C25   A    
O8    V2    S    
C56   H30   S    
C24   C26   A    
C51   H13   S    
C8    C28   A    
C46   O17   A    
O5    V1    S    
C53   H19   S    
C5    H1    S    
C17   C25   A    
C1    C44   S    
C6    H2    S    
C18   C26   A    
O24   C52   S    
O19   V4    S    
C11   H5    S    
C8    C45   S    
O21   C49   S    
C1    O8    A    
C9    C11   A    
C13   H25   S    
C15   C17   A    
C17   C31   A    
O9    V2    S    
O12   C48   A    
O10   V1    S    
C3    C32   S    
C5    C21   A    
O23   C51   S    
C6    C22   A    
C55   H29   S    
O11   V4    S    
