data_mof_unit_4347.cif
_audit_creation_date              2013-03-05T15:50:41-0500
_audit_creation_method            fapswitch 2.2
_symmetry_space_group_name_H-M    P1
_symmetry_Int_Tables_number       1
_space_group_crystal_system       triclinic
_cell_length_a                    15.078725
_cell_length_b                    10.864453
_cell_length_c                    9.569793
_cell_angle_alpha                 90.613564
_cell_angle_beta                  90.004704
_cell_angle_gamma                 92.597633
_cell_volume                      1566.0425798

loop_
_atom_site_label
_atom_site_type_symbol
_atom_site_description
_atom_site_fract_x
_atom_site_fract_y
_atom_site_fract_z
_atom_type_partial_charge
O1    O     O_R   0.499990 0.319640 0.618810 -0.591728
O2    O     O_R   0.500000 0.319660 0.381240 -0.579861
C1    C     C_R   0.507461 0.263243 0.499957 0.802034
O3    O     O_R   0.370250 0.499960 0.618800 -0.586786
O4    O     O_R   0.370260 0.499980 0.381230 -0.584262
C2    C     C_R   0.328634 0.500090 0.500017 0.820328
Cu1   Cu    Cu3+1 0.499990 0.499990 0.640660 0.928787
Cu2   Cu    Cu3+1 0.500010 0.500010 0.359340 0.936841
O5    O     O_R   0.500000 0.680340 0.618760 -0.611409
O6    O     O_R   0.500010 0.680360 0.381190 -0.599632
O7    O     O_R   0.629740 0.500020 0.618770 -0.606440
O8    O     O_R   0.629750 0.500040 0.381200 -0.602262
C3    C     C_R   0.495954 0.737828 0.501892 0.802362
C4    C     C_R   0.671364 0.501304 0.500013 0.811228
C5    C     C_R   0.814900 0.510552 0.627086 -0.191687
C6    C     C_R   0.768313 0.503904 0.500020 -0.064835
C7    C     C_R   0.814566 0.499786 0.372882 -0.234990
C8    C     C_R   0.906972 0.500513 0.371960 0.109831
C9    C     C_R   0.953590 0.505884 0.499956 0.060786
C10   C     C_R   0.907331 0.511439 0.627949 0.110029
C11   C     C_R   0.953470 0.495223 0.245297 -0.187755
C12   C     C_R   0.045905 0.494464 0.245316 -0.200971
C13   C     C_R   0.092771 0.499077 0.371994 0.109190
C14   C     C_R   0.046548 0.505144 0.499969 0.066929
C15   C     C_R   0.093163 0.509963 0.627967 0.108619
C16   C     C_R   0.046668 0.516263 0.754592 -0.200556
C17   C     C_R   0.954219 0.517067 0.754580 -0.174061
C18   C     C_R   0.185122 0.497429 0.372930 -0.239341
C19   C     C_R   0.231715 0.501707 0.500032 -0.076282
C20   C     C_R   0.185521 0.508160 0.627101 -0.239896
H1    H     H_    0.779396 0.514640 0.725487 0.157957
H2    H     H_    0.778799 0.495227 0.274472 0.162843
H3    H     H_    0.918351 0.491239 0.146374 0.142868
H4    H     H_    0.080706 0.489945 0.146399 0.137757
H5    H     H_    0.220558 0.492496 0.274539 0.154328
H6    H     H_    0.221288 0.511865 0.725510 0.154612
H7    H     H_    0.081773 0.520244 0.853519 0.137760
H8    H     H_    0.919394 0.521631 0.853483 0.143464
H9    H     H_    0.491133 0.108324 0.279531 0.161125
C21   C     C_R   0.567021 0.125801 0.749642 -0.121162
H10   H     H_    0.601965 0.214764 0.745189 0.159323
C22   C     C_R   0.561059 0.069249 0.879368 -0.101750
H11   H     H_    0.587371 0.116394 0.971687 0.139914
C23   C     C_R   0.517917 0.954276 0.890687 -0.145192
H12   H     H_    0.508234 0.913124 0.992429 0.134337
C24   C     C_R   0.489198 0.890526 0.770581 -0.163269
H13   H     H_    0.452437 0.804610 0.787266 0.167327
C25   C     C_R   0.503965 0.941022 0.635800 0.119827
C26   C     C_R   0.530002 0.066973 0.628731 0.098467
C27   C     C_R   0.516466 0.129729 0.501770 -0.119510
C28   C     C_R   0.499379 0.062597 0.378450 -0.198733
H14   H     H_    0.483183 0.886235 0.282328 0.163843
C29   C     C_R   0.492116 0.935424 0.380777 -0.205936
C30   C     C_R   0.493799 0.872742 0.507912 -0.104432
H15   H     H_    0.399209 0.360945 0.127756 0.134524
C31   C     C_R   0.618884 0.662803 0.145961 -0.238231
H16   H     H_    0.624260 0.671143 0.256112 0.227625
C32   C     C_R   0.677362 0.741982 0.074900 -0.298848
H17   H     H_    0.722037 0.803327 0.134371 0.205150
C33   C     C_R   0.678164 0.742969 0.930012 0.331427
C34   C     C_R   0.618978 0.662667 0.857627 -0.260803
H18   H     H_    0.622015 0.669675 0.747772 0.240936
C35   C     C_R   0.558554 0.580035 0.926198 0.141440
C36   C     C_R   0.558492 0.580047 0.075735 0.219978
N1    N     N_R   0.500860 0.501210 0.147910 -0.190582
C37   C     C_R   0.444578 0.423548 0.073049 -0.072923
H19   H     H_    0.399253 0.360984 0.868654 0.140650
C38   C     C_R   0.444595 0.423590 0.924939 -0.063785
N2    N     N_R   0.500890 0.501290 0.852040 -0.192180
N3    N     N_R   0.738090 0.826501 0.856092 0.135293
O9    O     O_R   0.791991 0.902433 0.924246 -0.354608
O10   O     O_R   0.738967 0.828247 0.720098 -0.375043

loop_
_geom_bond_atom_site_label_1
_geom_bond_atom_site_label_2
_geom_bond_distance
_ccdc_geom_bond_type
C37   C38   1.417386 A    
C8    C11   1.402312 A    
H9    C28   1.083522 S    
C9    C10   1.411689 A    
Cu1   Cu2   2.692177 S    
C29   C30   1.401412 A    
C23   H12   1.082892 S    
C25   C30   1.428934 A    
C16   C17   1.394433 A    
C18   C19   1.403906 A    
O4    C2    1.298600 A    
O7    C4    1.298216 A    
C11   H3    1.084179 S    
C17   H8    1.084191 S    
C32   C33   1.386757 A    
C21   C26   1.417976 A    
C31   H16   1.059834 S    
C8    C9    1.411562 A    
C34   C35   1.416085 A    
O5    C3    1.289591 A    
C35   N2    1.382405 A    
C18   H5    1.084690 S    
C6    C7    1.403758 A    
C13   C14   1.411589 A    
C31   C36   1.414929 A    
N3    O9    1.301596 A    
C21   C22   1.392167 A    
Cu2   N1    2.023562 S    
C11   C12   1.394194 A    
C22   C23   1.387254 A    
O3    Cu1   1.967436 S    
C1    C27   1.463299 S    
C23   C24   1.394280 A    
C7    C8    1.393055 A    
C5    C10   1.393352 A    
C12   H4    1.084113 S    
C24   C25   1.420678 A    
H19   C38   1.081734 S    
C14   C15   1.411513 A    
O3    C2    1.298432 A    
C38   N2    1.366611 A    
C32   H17   1.083056 S    
C33   C34   1.397794 A    
O1    C1    1.293498 A    
Cu1   O7    1.967649 S    
C19   C20   1.404117 A    
C33   N3    1.442236 S    
Cu2   O8    1.967435 S    
C27   C28   1.398417 A    
C13   C18   1.393479 A    
C21   H10   1.080909 S    
O8    C4    1.298271 A    
N1    C37   1.366537 A    
C4    C6    1.460858 S    
C22   H11   1.082647 S    
H15   C37   1.081753 S    
H14   C29   1.083527 S    
C3    C30   1.468114 S    
C15   C20   1.393698 A    
Cu1   O5    1.972803 S    
C24   H13   1.077197 S    
C25   C26   1.408715 A    
O1    Cu1   1.968302 S    
O2    Cu2   1.972805 S    
O6    C3    1.309897 A    
Cu1   N2    2.022800 S    
O4    Cu2   1.967649 S    
C16   H7    1.084106 S    
C5    H1    1.084747 S    
C10   C17   1.402321 A    
C20   H6    1.084682 S    
C36   N1    1.382452 A    
O2    C1    1.303924 A    
C15   C16   1.402602 A    
C31   C32   1.387028 A    
C9    C14   1.402079 A    
C34   H18   1.055711 S    
C35   C36   1.431035 A    
C2    C19   1.462311 S    
Cu2   O6    1.968302 S    
C26   C27   1.418819 A    
C7    H2    1.084776 S    
C12   C13   1.402458 A    
N3    O10   1.301843 A    
C28   C29   1.381467 A    
C5    C6    1.403825 A    
