data_mof_unit_4230.cif
_audit_creation_date              2012-12-10T18:53:46-0500
_audit_creation_method            fapswitch 2.2
_symmetry_space_group_name_H-M    P1
_symmetry_Int_Tables_number       1
_space_group_crystal_system       triclinic
_cell_length_a                    10.612168
_cell_length_b                    9.996701
_cell_length_c                    19.259872
_cell_angle_alpha                 89.627314
_cell_angle_beta                  93.26852
_cell_angle_gamma                 89.331568
_cell_volume                      2039.70055952

loop_
_atom_site_label
_atom_site_type_symbol
_atom_type_description
_atom_site_fract_x
_atom_site_fract_y
_atom_site_fract_z
_atom_type_partial_charge
C1    C     C_R   0.261066 0.500344 0.500121 0.921250
C2    C     C_R   0.058586 0.531264 0.437128 0.156272
C3    C     C_R   0.871774 0.499965 0.500307 -0.129678
C4    C     C_R   0.128225 0.500035 0.499693 -0.129678
C5    C     C_R   0.594241 0.070334 0.535712 0.177924
C6    C     C_R   0.405759 0.929666 0.464288 0.177925
C7    C     C_R   0.408305 0.073130 0.462116 0.196185
C8    C     C_R   0.591695 0.926870 0.537884 0.196183
C9    C     C_R   0.440780 0.603366 0.249712 0.137319
C10   C     C_R   0.559212 0.396632 0.750289 0.137317
C11   C     C_R   0.436283 0.606136 0.744241 0.130648
C12   C     C_R   0.738934 0.499655 0.499879 0.921251
C13   C     C_R   0.563711 0.393864 0.255758 0.130646
C14   C     C_R   0.431793 0.595577 0.177067 0.153830
C15   C     C_R   0.568193 0.404419 0.822934 0.153835
C16   C     C_R   0.439425 0.609637 0.816947 0.145434
C17   C     C_R   0.560565 0.390362 0.183053 0.145435
C18   C     C_R   0.495032 0.491390 0.144261 -0.103203
C19   C     C_R   0.504954 0.508607 0.855739 -0.103206
C20   C     C_R   0.502305 0.499697 0.289399 -0.222144
C21   C     C_R   0.497691 0.500303 0.710601 -0.222145
C22   C     C_3   0.155838 0.428750 0.626571 -0.884043
C23   C     C_R   0.501628 0.507290 0.930564 0.311400
C24   C     C_3   0.844162 0.571249 0.373428 -0.884040
C25   C     C_3   0.877229 0.442391 0.630277 -0.927137
C26   C     C_3   0.122771 0.557608 0.369722 -0.927132
C27   C     C_3   0.478156 0.831856 0.282753 -0.745937
C28   C     C_3   0.521836 0.168143 0.717245 -0.745922
C29   C     C_3   0.414349 0.830537 0.694171 -0.690577
C30   C     C_3   0.585649 0.169462 0.305828 -0.690577
C31   C     C_3   0.231976 0.676142 0.124974 -0.783899
C32   C     C_3   0.768003 0.323843 0.875033 -0.783904
C33   C     C_3   0.453244 0.822576 0.875899 -0.776599
C34   C     C_R   0.498356 0.492708 0.069436 0.311397
C35   C     C_3   0.546744 0.177423 0.124100 -0.776596
C36   C     C_3   0.706496 0.143243 0.568097 -0.801026
C37   C     C_3   0.293502 0.856757 0.431904 -0.801025
C38   C     C_3   0.310345 0.146187 0.415682 -0.823393
C39   C     C_3   0.689654 0.853813 0.584318 -0.823393
C40   C     C_R   0.501243 0.500289 0.365663 0.908180
C41   C     C_R   0.498757 0.499711 0.634337 0.908181
C42   C     C_R   0.072671 0.466190 0.562104 0.144325
C43   C     C_R   0.927329 0.533809 0.437896 0.144325
C44   C     C_R   0.941414 0.468736 0.562872 0.156272
H1    H     H_    0.220450 0.512103 0.639722 0.229381
H2    H     H_    0.102264 0.661705 0.351651 0.243851
H3    H     H_    0.226587 0.544734 0.373870 0.225792
H4    H     H_    0.088098 0.485962 0.329381 0.243496
H5    H     H_    0.302373 0.745802 0.266620 0.237211
H6    H     H_    0.491040 0.867068 0.228815 0.235789
H7    H     H_    0.571485 0.803847 0.308131 0.253699
H8    H     H_    0.437895 0.915513 0.312141 0.231025
H9    H     H_    0.697620 0.254195 0.733382 0.237209
H10   H     H_    0.508952 0.132928 0.771183 0.235787
H11   H     H_    0.562096 0.084487 0.687854 0.231024
H12   H     H_    0.104301 0.406976 0.673535 0.242165
H13   H     H_    0.428505 0.196155 0.691868 0.253695
H14   H     H_    0.267299 0.706556 0.719299 0.226666
H15   H     H_    0.374276 0.905049 0.729594 0.224407
H16   H     H_    0.391341 0.863718 0.639796 0.244748
H17   H     H_    0.518630 0.827206 0.703387 0.230942
H18   H     H_    0.732697 0.293445 0.280698 0.226665
H19   H     H_    0.625719 0.094952 0.270403 0.224408
H20   H     H_    0.481368 0.172793 0.296614 0.230943
H21   H     H_    0.608662 0.136280 0.360202 0.244747
H22   H     H_    0.408750 0.729453 0.093689 0.234146
H23   H     H_    0.212559 0.337814 0.616216 0.250445
H24   H     H_    0.186739 0.766911 0.100621 0.239028
H25   H     H_    0.186380 0.655107 0.174285 0.233441
H26   H     H_    0.215705 0.590517 0.089356 0.256147
H27   H     H_    0.591223 0.270539 0.906311 0.234144
H28   H     H_    0.813229 0.233072 0.899385 0.239032
H29   H     H_    0.784277 0.409466 0.910653 0.256146
H30   H     H_    0.813607 0.344881 0.825724 0.233441
H31   H     H_    0.313482 0.681764 0.886508 0.235373
H32   H     H_    0.514688 0.858474 0.835062 0.247671
H33   H     H_    0.513281 0.789312 0.922007 0.245724
H34   H     H_    0.779550 0.487896 0.360278 0.229381
H35   H     H_    0.392729 0.907364 0.891383 0.234403
H36   H     H_    0.686505 0.318234 0.113490 0.235372
H37   H     H_    0.485300 0.141526 0.164937 0.247671
H38   H     H_    0.607259 0.092634 0.108617 0.234403
H39   H     H_    0.486707 0.210687 0.077992 0.245723
H40   H     H_    0.675447 0.233868 0.594326 0.294201
H41   H     H_    0.762899 0.087462 0.608795 0.201579
H42   H     H_    0.771877 0.167508 0.527036 0.247497
H43   H     H_    0.237097 0.912539 0.391208 0.201579
H44   H     H_    0.324552 0.766133 0.405674 0.294200
H45   H     H_    0.787440 0.662184 0.383784 0.250445
H46   H     H_    0.228124 0.832490 0.472966 0.247497
H47   H     H_    0.330326 0.251038 0.407013 0.290725
H48   H     H_    0.307957 0.104579 0.362427 0.189703
H49   H     H_    0.215939 0.138066 0.437322 0.232452
H50   H     H_    0.692041 0.895420 0.637573 0.189703
H51   H     H_    0.669674 0.748961 0.592987 0.290726
H52   H     H_    0.784061 0.861936 0.562679 0.232452
H53   H     H_    0.895699 0.593025 0.326465 0.242164
H54   H     H_    0.897737 0.338294 0.648349 0.243853
H55   H     H_    0.911901 0.514037 0.670619 0.243496
H56   H     H_    0.773413 0.455264 0.626130 0.225793
N1    N     N_R   0.500000 0.857200 0.500000 -0.116778
N2    N     N_2   0.640612 0.299288 0.295038 -0.280399
N3    N     N_2   0.365827 0.698528 0.137635 -0.302518
N4    N     N_2   0.634152 0.301464 0.862366 -0.302519
N5    N     N_2   0.374156 0.714536 0.850257 -0.299695
N6    N     N_2   0.625833 0.285463 0.149742 -0.299695
N7    N     N_R   0.500000 0.142800 0.500000 -0.116778
N8    N     N_R   0.603059 0.535100 0.039340 -0.197859
N9    N     N_R   0.396925 0.464899 0.960660 -0.197860
N10   N     N_R   0.604863 0.541749 0.970608 -0.180504
N11   N     N_R   0.395121 0.458250 0.029392 -0.180506
N12   N     N_2   0.393547 0.719221 0.282604 -0.290060
N13   N     N_2   0.606447 0.280777 0.717397 -0.290059
N14   N     N_2   0.359385 0.700712 0.704960 -0.280398
O1    O     O_R   0.316770 0.614620 0.500000 -0.621077
O2    O     O_R   0.683230 0.385380 0.500000 -0.621077
O3    O     O_R   0.683230 0.614620 0.500000 -0.627086
O4    O     O_R   0.316770 0.385380 0.500000 -0.627087
O5    O     O_R   0.499990 0.614700 0.398140 -0.602477
O6    O     O_R   0.500010 0.385300 0.601860 -0.602478
O7    O     O_R   0.500010 0.614700 0.601860 -0.604424
O8    O     O_R   0.499990 0.385300 0.398140 -0.604424
Zn1   Zn    Zn3+2 0.500000 0.653120 0.500000 0.926035
Zn2   Zn    Zn3+2 0.500000 0.346880 0.500000 0.926036

loop_
_geom_bond_atom_site_label_1
_geom_bond_atom_site_label_2
_ccdc_geom_bond_type
C29   N14   S    
C30   H20   S    
C14   C18   A    
C37   H44   S    
C19   C23   S    
H27   N4    S    
C24   H45   S    
C35   H37   S    
C32   H28   S    
C28   H13   S    
C15   C19   A    
C39   H52   S    
C3    C43   A    
N1    Zn1   S    
C37   H46   S    
C10   C15   A    
N9    N11   A    
C32   H30   S    
C20   C40   S    
C5    C36   S    
H36   N6    S    
C6    N1    A    
C41   O7    A    
C11   N14   S    
C3    C12   S    
C33   H32   S    
C28   H11   S    
C31   H26   S    
C29   H15   S    
C27   H7    S    
C32   N4    S    
C8    C39   S    
C15   N4    S    
C8    N1    A    
C27   H6    S    
C26   H4    S    
C9    N12   S    
C30   H19   S    
C34   N11   A    
C42   C44   A    
N7    Zn2   S    
C25   C44   S    
C35   H38   S    
H9    N13   S    
C10   C21   A    
C31   H24   S    
C23   N9    A    
C9    C20   A    
C29   H17   S    
C3    C44   A    
O1    Zn1   S    
C24   H53   S    
C33   N5    S    
C32   H29   S    
C35   H39   S    
C33   H35   S    
C22   H12   S    
C36   H42   S    
C38   H47   S    
C11   C21   A    
C31   N3    S    
C2    C4    A    
C9    C14   A    
C39   H50   S    
C11   C16   A    
C25   H56   S    
C29   H16   S    
C2    C43   A    
C30   N2    S    
C17   C18   A    
C6    C37   S    
C2    C26   S    
O4    Zn2   S    
C18   C34   S    
C39   H51   S    
C10   N13   S    
C16   N5    S    
H5    N12   S    
C21   C41   S    
C26   H3    S    
C24   H34   S    
C27   N12   S    
H31   N5    S    
C7    N7    A    
O8    Zn2   S    
C27   H8    S    
C5    N7    A    
C23   N10   A    
C28   H10   S    
O2    Zn2   S    
C13   C20   A    
H22   N3    S    
C37   H43   S    
C5    C8    A    
C6    C7    A    
O5    Zn1   S    
C36   H41   S    
C40   O8    A    
C13   C17   A    
C1    C4    S    
C34   N8    A    
C25   H55   S    
O3    Zn1   S    
C35   N6    S    
C17   N6    S    
C33   H33   S    
C14   N3    S    
C22   C42   S    
C4    C42   A    
C36   H40   S    
C16   C19   A    
C38   H49   S    
C7    C38   S    
N8    N10   A    
C1    O4    A    
C41   O6    A    
C22   H23   S    
O7    Zn1   S    
C30   H21   S    
C28   N13   S    
C26   H2    S    
C12   O3    A    
C25   H54   S    
C31   H25   S    
C22   H1    S    
C40   O5    A    
H14   N14   S    
C24   C43   S    
C1    O1    A    
H18   N2    S    
C13   N2    S    
O6    Zn2   S    
C38   H48   S    
C12   O2    A    
