data_mof_unit_264.cif
_audit_creation_date              2012-12-10T19:05:50-0500
_audit_creation_method            fapswitch 2.2
_symmetry_space_group_name_H-M    P1
_symmetry_Int_Tables_number       1
_space_group_crystal_system       triclinic
_cell_length_a                    19.233869
_cell_length_b                    10.844197
_cell_length_c                    9.678745
_cell_angle_alpha                 90.816639
_cell_angle_beta                  89.901169
_cell_angle_gamma                 91.503228
_cell_volume                      2017.85102608

loop_
_atom_site_label
_atom_site_type_symbol
_atom_type_description
_atom_site_fract_x
_atom_site_fract_y
_atom_site_fract_z
_atom_type_partial_charge
C1    C     C_R   0.497249 0.263046 0.499335 0.755935
C2    C     C_R   0.291654 0.489949 0.498496 -0.195225
C3    C     C_R   0.928946 0.465013 0.455454 0.426875
C4    C     C_R   0.069964 0.468304 0.464823 0.472639
C5    C     C_R   0.811961 0.361663 0.505087 0.397824
C6    C     C_R   0.738817 0.370127 0.518347 0.306564
C7    C     C_R   0.707187 0.484249 0.492729 -0.066271
C8    C     C_R   0.747053 0.583816 0.444223 -0.278242
C9    C     C_R   0.818389 0.574716 0.428338 -0.246940
C10   C     C_R   0.851936 0.465442 0.460790 -0.038689
C11   C     C_R   0.539917 0.068641 0.585507 -0.049473
C12   C     C_R   0.367753 0.499064 0.499951 0.873530
C13   C     C_R   0.495333 0.129596 0.497718 -0.143324
C14   C     C_R   0.453626 0.058683 0.403298 0.374586
C15   C     C_R   0.456910 0.929775 0.404334 -0.160223
C16   C     C_R   0.498508 0.870400 0.500534 -0.104997
C17   C     C_R   0.541917 0.942076 0.586172 -0.185830
C18   C     C_3   0.557365 0.940470 0.739040 0.718206
C19   C     C_3   0.553416 0.082545 0.737476 0.688441
C20   C     C_R   0.560271 0.505405 0.072577 0.096030
C21   C     C_R   0.441409 0.469829 0.073230 0.367359
C22   C     C_R   0.441172 0.470389 0.925907 0.462272
C23   C     C_R   0.499754 0.737099 0.500851 0.817804
C24   C     C_R   0.561043 0.503275 0.927598 -0.008890
C25   C     C_3   0.624489 0.588322 0.924315 0.259235
C26   C     C_3   0.621587 0.590115 0.084191 0.583472
C27   C     C_R   0.631962 0.497729 0.499050 0.774715
C28   C     C_R   0.251585 0.573358 0.574690 0.371513
C29   C     C_R   0.178285 0.561441 0.570902 0.294379
C30   C     C_R   0.146057 0.471196 0.482887 -0.151118
C31   C     C_R   0.186828 0.386879 0.408932 0.406115
C32   C     C_R   0.259452 0.396715 0.418389 -0.354391
Cu1   Cu    Cu3+1 0.500000 0.499980 0.640670 1.007882
Cu2   Cu    Cu3+1 0.500000 0.500020 0.359330 0.969661
H1    H     H_    0.423129 0.875645 0.336288 0.175339
H2    H     H_    0.614351 0.677031 0.873360 0.137469
H3    H     H_    0.291161 0.332608 0.361056 0.170861
H4    H     H_    0.722789 0.669965 0.420016 0.138780
H5    H     H_    0.847539 0.654880 0.392525 0.188597
N1    N     N_R   0.035023 0.574989 0.457562 -0.182068
N2    N     N_R   0.965944 0.573324 0.452928 -0.257845
N3    N     N_R   0.964158 0.358216 0.459633 -0.142728
N4    N     N_R   0.033317 0.359734 0.464393 -0.171868
N5    N     N_R   0.500440 0.500930 0.147930 -0.254399
N6    N     N_R   0.500440 0.500890 0.852020 -0.268446
O1    O     O_R   0.500000 0.319640 0.618810 -0.537350
O2    O     O_R   0.500010 0.319680 0.381230 -0.598825
O3    O     O_R   0.400140 0.499970 0.618830 -0.534611
O4    O     O_R   0.400150 0.500010 0.381250 -0.555974
O5    O     O_R   0.499990 0.680320 0.618770 -0.548042
O6    O     O_R   0.500000 0.680360 0.381190 -0.587237
O7    O     O_R   0.599850 0.499990 0.618750 -0.535340
O8    O     O_R   0.599860 0.500030 0.381170 -0.549766
O9    O     O_3   0.284594 0.676345 0.633699 -0.560168
C33   C     C_3   0.277936 0.675635 0.778894 0.102818
H6    H     H_    0.274844 0.580917 0.822076 0.168440
H7    H     H_    0.231161 0.726755 0.810330 0.182498
C34   C     C_3   0.340472 0.743060 0.842092 -0.673235
H8    H     H_    0.342701 0.839937 0.806383 0.252097
H9    H     H_    0.335971 0.742293 0.956392 0.192677
H10   H     H_    0.389097 0.697456 0.810862 0.289867
O10   O     O_3   0.500603 0.882427 0.809114 -0.601807
C35   C     C_3   0.512906 0.865211 0.951525 0.097368
H11   H     H_    0.562457 0.907510 0.990818 0.178663
H12   H     H_    0.514364 0.764596 0.968470 0.189559
C36   C     C_3   0.453026 0.915570 0.037404 -0.821302
H13   H     H_    0.413225 0.957787 0.971427 0.274928
H14   H     H_    0.427607 0.840268 0.097090 0.231623
H15   H     H_    0.473108 0.987424 0.110794 0.243032
O11   O     O_3   0.624282 0.897023 0.778791 -0.633767
C37   C     C_3   0.674865 0.893807 0.671619 0.060842
H16   H     H_    0.669410 0.967156 0.593629 0.177510
H17   H     H_    0.671434 0.802140 0.618979 0.136543
C38   C     C_3   0.747223 0.913934 0.732388 -0.754984
H18   H     H_    0.786942 0.882726 0.657138 0.205161
H19   H     H_    0.757040 0.013420 0.753969 0.256933
H20   H     H_    0.752607 0.862972 0.829827 0.249607
O12   O     O_3   0.495054 0.132670 0.803775 -0.774699
H21   H     H_    0.498209 0.114647 0.903269 0.294643
O13   O     O_3   0.617414 0.148081 0.761150 -0.572535
C39   C     C_3   0.626756 0.180094 0.902085 0.114266
H22   H     H_    0.618643 0.099051 0.969795 0.117855
H23   H     H_    0.590298 0.253507 0.932403 0.163553
C40   C     C_3   0.700334 0.231230 0.925220 -0.664151
H24   H     H_    0.715039 0.297159 0.842903 0.299549
H25   H     H_    0.703522 0.279654 0.027003 0.223187
H26   H     H_    0.737794 0.155365 0.925089 0.213656
O14   O     O_3   0.381866 0.428744 0.137089 -0.695484
H27   H     H_    0.396235 0.359079 0.194627 0.334883
O15   O     O_3   0.379046 0.444110 0.859698 -0.565103
C41   C     C_3   0.366636 0.315057 0.851399 0.152882
H28   H     H_    0.387256 0.263926 0.941109 0.145988
H29   H     H_    0.390389 0.278080 0.755531 0.201458
C42   C     C_3   0.288619 0.289223 0.843751 -0.808007
H30   H     H_    0.266519 0.334534 0.752108 0.229149
H31   H     H_    0.278066 0.188247 0.835026 0.220066
H32   H     H_    0.263004 0.325129 0.938523 0.265576
O16   O     O_3   0.682719 0.527283 0.868270 -0.552798
C43   C     C_3   0.745887 0.590738 0.903819 0.081102
H33   H     H_    0.774223 0.535061 0.979769 0.189131
H34   H     H_    0.738754 0.684518 0.949378 0.131152
C44   C     C_3   0.792675 0.602981 0.778982 -0.806026
H35   H     H_    0.766268 0.656774 0.699587 0.261986
H36   H     H_    0.841947 0.652160 0.808303 0.210421
H37   H     H_    0.805093 0.510138 0.738541 0.253820
O17   O     O_3   0.676862 0.532556 0.150034 -0.728583
H38   H     H_    0.711688 0.598398 0.173856 0.312897
O18   O     O_3   0.138802 0.645358 0.643860 -0.540769
C45   C     C_3   0.109145 0.586910 0.760799 0.043415
H39   H     H_    0.149813 0.547640 0.827650 0.115697
H40   H     H_    0.071852 0.511332 0.730722 0.156916
C46   C     C_3   0.069480 0.681137 0.845502 -0.716435
H41   H     H_    0.027235 0.719390 0.782243 0.259874
H42   H     H_    0.046167 0.636418 0.937773 0.204474
H43   H     H_    0.105173 0.757538 0.880097 0.241224
O19   O     O_3   0.606226 0.706773 0.139836 -0.815055
H44   H     H_    0.611583 0.702206 0.241380 0.352974
O20   O     O_3   0.154845 0.298781 0.324323 -0.690944
H45   H     H_    0.190857 0.248139 0.279246 0.335924
O21   O     O_3   0.845606 0.254364 0.536529 -0.709267
H46   H     H_    0.812143 0.191870 0.572667 0.367499
O22   O     O_3   0.700629 0.265231 0.553140 -0.732535
H47   H     H_    0.650383 0.279210 0.542964 0.344011
O23   O     O_3   0.405934 0.109675 0.315995 -0.746688
H48   H     H_    0.393236 0.191426 0.353211 0.306968

loop_
_geom_bond_atom_site_label_1
_geom_bond_atom_site_label_2
_ccdc_geom_bond_type
C18   O11   S    
C36   H14   S    
C33   H6    S    
C35   H12   S    
C3    N3    A    
Cu1   N6    S    
C40   H26   S    
C12   O3    A    
C2    C12   S    
C26   O17   S    
C46   H42   S    
C12   O4    A    
C7    C8    A    
O19   H44   S    
Cu1   O7    S    
C11   C19   S    
Cu2   O6    S    
O10   C35   S    
C38   H19   S    
C24   N6    A    
C28   C29   A    
C40   H25   S    
C45   H40   S    
C5    C6    A    
C1    O1    A    
C36   H15   S    
O17   H38   S    
C34   H9    S    
C15   C16   A    
C9    H5    S    
C7    C27   S    
O18   C45   S    
C44   H37   S    
C2    C32   A    
C18   C19   S    
O20   H45   S    
Cu1   O5    S    
C20   N5    A    
C11   C17   A    
C20   C24   A    
C16   C17   A    
C38   H20   S    
C27   O7    A    
C29   O18   S    
O11   C37   S    
C9    C10   A    
C34   H10   S    
C36   H13   S    
C21   O14   S    
C21   C22   A    
Cu1   O1    S    
C44   H35   S    
C8    H4    S    
C15   H1    S    
C46   H41   S    
C39   H23   S    
Cu1   Cu2   S    
C14   O23   S    
C38   H18   S    
C5    O21   S    
C4    N1    A    
Cu2   N5    S    
C40   H24   S    
C19   O13   S    
C45   C46   S    
C41   H28   S    
C37   H17   S    
C28   O9    S    
O12   H21   S    
C18   O10   S    
C23   O5    A    
C42   H32   S    
C25   C26   S    
C39   H22   S    
C19   O12   S    
C42   H31   S    
C31   O20   S    
C29   C30   A    
C8    C9    A    
C41   H29   S    
C21   N5    A    
C23   O6    A    
C31   C32   A    
C22   N6    A    
C17   C18   S    
C22   O15   S    
C32   H3    S    
C24   C25   S    
C44   H36   S    
N1    N2    A    
C43   H34   S    
C16   C23   S    
C33   H7    S    
C1    C13   S    
N3    N4    A    
C6    O22   S    
C39   C40   S    
O21   H46   S    
O9    C33   S    
C3    N2    A    
Cu2   O4    S    
C1    O2    A    
O13   C39   S    
C37   C38   S    
C27   O8    A    
C6    C7    A    
C4    N4    A    
C43   H33   S    
C34   H8    S    
C5    C10   A    
C3    C10   S    
C45   H39   S    
C41   C42   S    
C11   C13   A    
O15   C41   S    
C30   C31   A    
C20   C26   S    
C42   H30   S    
C26   O19   S    
C35   C36   S    
C25   H2    S    
C35   H11   S    
C25   O16   S    
C37   H16   S    
C43   C44   S    
O14   H27   S    
Cu2   O8    S    
O16   C43   S    
C33   C34   S    
Cu1   O3    S    
C14   C15   A    
C2    C28   A    
Cu2   O2    S    
O22   H47   S    
C13   C14   A    
C46   H43   S    
C4    C30   S    
O23   H48   S    
