data_mof_unit_4088.cif
_audit_creation_date              2012-12-10T18:47:47-0500
_audit_creation_method            fapswitch 2.2
_symmetry_space_group_name_H-M    P1
_symmetry_Int_Tables_number       1
_space_group_crystal_system       triclinic
_cell_length_a                    9.885515
_cell_length_b                    10.622861
_cell_length_c                    15.448743
_cell_angle_alpha                 90.28916
_cell_angle_beta                  67.219301
_cell_angle_gamma                 89.997925
_cell_volume                      1495.73731786

loop_
_atom_site_label
_atom_site_type_symbol
_atom_type_description
_atom_site_fract_x
_atom_site_fract_y
_atom_site_fract_z
_atom_type_partial_charge
C1    C     C_R   0.500995 0.739628 0.498356 1.004287
C2    C     C_R   0.476125 0.936445 0.426782 0.015460
C3    C     C_R   0.498823 0.128040 0.501961 -0.379135
C4    C     C_R   0.501181 0.871959 0.498036 -0.379157
C5    C     C_R   0.958321 0.411606 0.450195 0.467869
C6    C     C_R   0.041688 0.588418 0.549790 0.467849
C7    C     C_R   0.102003 0.411832 0.449959 0.497456
C8    C     C_R   0.897998 0.588176 0.550038 0.497323
C9    C     C_R   0.407783 0.499646 0.676102 0.960943
C10   C     C_R   0.592214 0.500301 0.323895 0.960841
C11   C     C_R   0.348921 0.485949 0.777492 -0.188866
C12   C     C_R   0.499007 0.260372 0.501642 1.004178
C13   C     C_R   0.651069 0.513836 0.222492 -0.188853
C14   C     C_R   0.194727 0.373205 0.916721 0.217786
C15   C     C_R   0.805444 0.626328 0.083183 0.217659
C16   C     C_R   0.234179 0.403088 0.822166 -0.299880
C17   C     C_R   0.766014 0.596478 0.177731 -0.299774
C18   C     C_R   0.427127 0.538132 0.825970 0.611044
C19   C     C_R   0.572693 0.461746 0.174083 0.611074
C20   C     C_R   0.408362 0.492480 0.914777 -0.094456
C21   C     C_R   0.591520 0.507319 0.085250 -0.094527
C22   C     C_R   0.278796 0.422409 0.966283 -0.046436
C23   C     C_R   0.340843 0.444701 0.102907 -0.112236
C24   C     C_R   0.721206 0.577260 0.033689 -0.046396
C25   C     C_R   0.516060 0.514248 0.952800 0.053814
C26   C     C_R   0.483787 0.485564 0.047244 0.053861
C27   C     C_R   0.658960 0.555158 0.897133 -0.112470
C28   C     C_R   0.241161 0.408580 0.063906 0.185018
C29   C     C_R   0.758742 0.591160 0.936086 0.185019
C30   C     C_R   0.525243 0.934052 0.570651 0.671569
C31   C     C_R   0.474762 0.065946 0.429347 0.671522
C32   C     C_R   0.523886 0.063553 0.573214 0.015436
F1    F     F_    0.481964 0.363408 0.213724 -0.577529
F2    F     F_    0.517575 0.636665 0.786456 -0.577577
F3    F     F_    0.545970 0.868282 0.639830 -0.529949
F4    F     F_    0.454036 0.131716 0.360167 -0.530006
F5    F     F_    0.920654 0.322232 0.400843 -0.550501
F6    F     F_    0.079380 0.677874 0.599097 -0.550412
F7    F     F_    0.200020 0.323615 0.399222 -0.498764
F8    F     F_    0.799980 0.676411 0.600769 -0.498829
H1    H     H_    0.822043 0.641323 0.217615 0.203002
H2    H     H_    0.178325 0.358127 0.782223 0.202931
H3    H     H_    0.301743 0.444698 0.178496 0.226432
H4    H     H_    0.697940 0.555327 0.821548 0.226438
I1    I     I_    0.031245 0.362749 0.166936 -0.125577
I2    I     I_    0.968604 0.636962 0.832945 -0.125462
I3    I     I_    0.034621 0.227673 0.961341 -0.151226
I4    I     I_    0.966000 0.771570 0.038509 -0.151505
I5    I     I_    0.551418 0.155630 0.688269 -0.145029
I6    I     I_    0.448624 0.844363 0.311722 -0.144937
N1    N     N_R   0.142780 0.500030 0.500020 -0.261162
N2    N     N_R   0.857220 0.499970 0.499980 -0.261127
O1    O     O_R   0.385370 0.683250 0.500010 -0.563338
O2    O     O_R   0.614630 0.316750 0.499990 -0.563378
O3    O     O_R   0.614700 0.683220 0.500000 -0.546713
O4    O     O_R   0.385300 0.316780 0.500000 -0.546743
O5    O     O_R   0.319830 0.500020 0.632250 -0.604940
O6    O     O_R   0.680170 0.499980 0.367750 -0.604951
O7    O     O_R   0.549160 0.499990 0.632240 -0.550478
O8    O     O_R   0.450840 0.500010 0.367760 -0.550376
Zn1   Zn    Zn3+2 0.346870 0.500020 0.500000 1.111961
Zn2   Zn    Zn3+2 0.653130 0.499980 0.500000 1.111923

loop_
_geom_bond_atom_site_label_1
_geom_bond_atom_site_label_2
_ccdc_geom_bond_type
O6    Zn2   S    
C2    C4    A    
C21   C26   A    
C6    F6    S    
C11   C18   A    
O5    Zn1   S    
C14   I3    S    
C5    F5    S    
C6    N1    A    
C27   C29   A    
C18   F2    S    
C11   C16   A    
C8    N2    A    
C10   O8    A    
N1    Zn1   S    
C13   C17   A    
C29   I2    S    
C1    C4    S    
C14   C22   A    
C2    I6    S    
C1    O3    A    
C7    N1    A    
C5    N2    A    
C22   C28   A    
C23   C28   A    
C3    C31   A    
C9    C11   S    
C12   O4    A    
O1    Zn1   S    
C15   I4    S    
C6    C8    A    
C30   F3    S    
C15   C24   A    
C10   O6    A    
C20   C22   A    
C18   C20   A    
C4    C30   A    
C3    C32   A    
C28   I1    S    
C14   C16   A    
C32   I5    S    
C21   C24   A    
C17   H1    S    
C25   C27   A    
C20   C25   A    
C13   C19   A    
C30   C32   A    
O3    Zn2   S    
C16   H2    S    
C24   C29   A    
C23   H3    S    
C9    O5    A    
C5    C7    A    
C19   F1    S    
C23   C26   A    
C15   C17   A    
C1    O1    A    
C31   F4    S    
C2    C31   A    
O7    Zn2   S    
C7    F7    S    
C3    C12   S    
C8    F8    S    
C19   C21   A    
C25   C26   A    
O4    Zn1   S    
O2    Zn2   S    
C27   H4    S    
N2    Zn2   S    
C12   O2    A    
O8    Zn1   S    
C9    O7    A    
C10   C13   S    
