data_mof_unit_1598.cif
_audit_creation_date              2012-12-10T17:22:57-0500
_audit_creation_method            fapswitch 2.2
_symmetry_space_group_name_H-M    P1
_symmetry_Int_Tables_number       1
_space_group_crystal_system       triclinic
_cell_length_a                    10.199019
_cell_length_b                    10.481904
_cell_length_c                    10.722589
_cell_angle_alpha                 90.691682
_cell_angle_beta                  95.783898
_cell_angle_gamma                 82.550583
_cell_volume                      1130.83770125

loop_
_atom_site_label
_atom_site_type_symbol
_atom_type_description
_atom_site_fract_x
_atom_site_fract_y
_atom_site_fract_z
_atom_type_partial_charge
Br1   Br    Br    0.770490 0.877373 0.376883 -0.513112
Br2   Br    Br    0.225506 0.128233 0.612547 -0.497611
Br3   Br    Br    0.859490 0.648670 0.626533 -0.436891
Br4   Br    Br    0.065511 0.582766 0.295757 -0.425848
Br5   Br    Br    0.907039 0.315554 0.341470 -0.410025
Br6   Br    Br    0.147210 0.487746 0.714105 -0.368715
C1    C     C_R   0.444145 0.512360 0.267284 0.922468
C2    C     C_3   0.496531 0.123704 0.504995 -0.125367
C3    C     C_3   0.615583 0.948217 0.458330 0.316659
C4    C     C_3   0.382380 0.052330 0.536605 0.294981
C5    C     C_2   0.413361 0.533637 0.134547 -0.337850
C6    C     C_2   0.588281 0.510292 0.865805 -0.328358
C7    C     C_2   0.512637 0.551918 0.067566 -0.180138
C8    C     C_2   0.490314 0.555725 0.934067 -0.152863
C9    C     C_2   0.058001 0.537699 0.467388 0.349511
C10   C     C_2   0.921422 0.526007 0.502945 0.382021
C11   C     C_R   0.296727 0.937146 0.312889 0.121178
C12   C     C_R   0.556164 0.496563 0.732767 0.922759
C13   C     C_R   0.341135 0.866523 0.209506 -0.158328
C14   C     C_R   0.250994 0.839837 0.108466 -0.109809
C15   C     C_R   0.115687 0.882521 0.109975 -0.084504
C16   C     C_R   0.070393 0.952016 0.212527 -0.071530
C17   C     C_R   0.160232 0.979128 0.313692 -0.060739
C18   C     C_R   0.701646 0.064884 0.680809 0.132604
C19   C     C_R   0.837424 0.019034 0.681876 -0.047909
C20   C     C_R   0.928079 0.050823 0.780425 -0.098896
C21   C     C_R   0.884237 0.128925 0.878324 -0.087981
C22   C     C_R   0.749480 0.175120 0.878054 -0.122836
C23   C     C_R   0.499183 0.258153 0.503139 0.890500
C24   C     C_R   0.658507 0.143219 0.779942 -0.166546
C25   C     C_R   0.500071 0.741891 0.494477 0.895837
C26   C     C_3   0.511504 0.046186 0.383909 -0.283305
C27   C     C_3   0.486363 0.954510 0.611399 -0.280252
C28   C     C_3   0.397712 0.972471 0.416110 -0.047755
C29   C     C_3   0.600261 0.027894 0.578917 -0.035280
C30   C     C_3   0.501609 0.876571 0.490132 -0.120353
H1    H     H_    0.521379 0.088549 0.291357 0.183032
H2    H     H_    0.965645 0.986117 0.213040 0.190391
H3    H     H_    0.122252 0.034225 0.390585 0.200402
H4    H     H_    0.873953 0.957468 0.608399 0.198769
H5    H     H_    0.032333 0.014008 0.781412 0.176894
H6    H     H_    0.954544 0.153006 0.954682 0.160172
H7    H     H_    0.715339 0.234915 0.954327 0.155541
H8    H     H_    0.554161 0.178966 0.781601 0.150972
H9    H     H_    0.476477 0.912524 0.704117 0.178557
H10   H     H_    0.389252 0.584693 0.892399 0.215279
H11   H     H_    0.614088 0.552653 0.109969 0.223603
H12   H     H_    0.689075 0.481499 0.908092 0.178952
H13   H     H_    0.312245 0.532869 0.091511 0.197774
H14   H     H_    0.445957 0.833778 0.206345 0.149928
H15   H     H_    0.286132 0.786961 0.028465 0.147832
H16   H     H_    0.046049 0.862268 0.031502 0.155802
N1    N     N_2   0.157310 0.552180 0.551120 -0.013144
N2    N     N_2   0.842690 0.447820 0.448880 -0.008495
O1    O     O_R   0.568940 0.489500 0.307530 -0.598511
O2    O     O_R   0.431060 0.510500 0.692470 -0.582808
O3    O     O_R   0.348880 0.522990 0.340350 -0.576387
O4    O     O_R   0.651120 0.477010 0.659650 -0.578690
O5    O     O_R   0.610000 0.297210 0.483560 -0.585236
O6    O     O_R   0.390000 0.702790 0.516440 -0.606758
O7    O     O_R   0.389940 0.330700 0.516390 -0.565316
O8    O     O_R   0.610060 0.669300 0.483610 -0.567940
Zn1   Zn    Zn3+2 0.646930 0.477640 0.478080 1.071825
Zn2   Zn    Zn3+2 0.353070 0.522360 0.521920 1.071843

loop_
_geom_bond_atom_site_label_1
_geom_bond_atom_site_label_2
_ccdc_geom_bond_type
C25   O6    A    
O7    Zn2   S    
O2    Zn2   S    
C21   H6    S    
O8    Zn1   S    
C5    H13   S    
C1    O1    A    
C4    C27   S    
C27   H9    S    
C2    C29   S    
C22   H7    S    
O5    Zn1   S    
C13   C14   A    
C13   H14   S    
C12   O2    A    
Br2   C4    S    
C6    H12   S    
Br4   C9    S    
C22   C24   A    
C8    H10   S    
C23   O7    A    
C7    C8    S    
C18   C19   A    
C1    C5    S    
C5    C7    D    
C25   O8    A    
C24   H8    S    
C20   C21   A    
C11   C17   A    
O1    Zn1   S    
C17   H3    S    
C2    C23   S    
C9    N1    D    
C2    C4    S    
C11   C13   A    
C12   O4    A    
O6    Zn2   S    
C14   H15   S    
C28   C30   S    
C25   C30   S    
C19   H4    S    
N1    Zn2   S    
C10   N2    D    
C18   C29   S    
C26   H1    S    
N2    Zn1   S    
C18   C24   A    
C9    C10   S    
C2    C26   S    
C3    C30   S    
Br5   N2    S    
C21   C22   A    
C27   C30   S    
Br1   C3    S    
C14   C15   A    
O3    Zn2   S    
C4    C28   S    
C11   C28   S    
C6    C12   S    
O4    Zn1   S    
C3    C29   S    
C16   C17   A    
Br6   N1    S    
C3    C26   S    
C27   C29   S    
C19   C20   A    
C15   C16   A    
C7    H11   S    
C1    O3    A    
C15   H16   S    
Br3   C10   S    
C23   O5    A    
C20   H5    S    
C6    C8    D    
C16   H2    S    
C26   C28   S    
