data_mof_unit_4604.cif
_audit_creation_date              2012-10-26T19:23:05-0400
_audit_creation_method            fapswitch 2.2
_symmetry_space_group_name_H-M    P1
_symmetry_Int_Tables_number       1
_space_group_crystal_system       triclinic
_cell_length_a                    17.327639
_cell_length_b                    13.084772
_cell_length_c                    11.922961
_cell_angle_alpha                 102.088797
_cell_angle_beta                  88.718295
_cell_angle_gamma                 97.60138
_cell_volume                      2620.05606678

loop_
_atom_site_label
_atom_site_type_symbol
_atom_type_description
_atom_site_fract_x
_atom_site_fract_y
_atom_site_fract_z
_atom_type_partial_charge
C1    C     C_R   0.504648 0.299364 0.475483 0.508259
C2    C     C_R   0.510215 0.859769 0.443172 -0.171873
C3    C     C_R   0.501089 0.034447 0.553085 0.017077
C4    C     C_R   0.512637 0.967290 0.448648 0.014575
C5    C     C_R   0.427679 0.382277 0.027681 -0.016060
C6    C     C_R   0.590006 0.574115 0.964692 0.020760
C7    C     C_R   0.434534 0.398063 0.150189 0.132914
C8    C     C_R   0.573059 0.586460 0.852847 0.140979
C9    C     C_R   0.531821 0.546980 0.152463 0.383582
C10   C     C_R   0.470084 0.442446 0.839788 0.385065
C11   C     C_R   0.530789 0.526492 0.028388 -0.027816
C12   C     C_R   0.497923 0.700979 0.524389 0.508565
C13   C     C_R   0.474332 0.450228 0.964451 -0.050853
C14   C     C_R   0.351458 0.508551 0.516730 0.535557
C15   C     C_R   0.649661 0.499496 0.484566 0.537932
C16   C     C_R   0.268487 0.528085 0.527185 -0.008150
C17   C     C_R   0.736139 0.511870 0.478691 -0.007788
C18   C     C_R   0.230722 0.550928 0.432805 0.203897
C19   C     C_R   0.780790 0.531004 0.580301 0.216507
C20   C     C_R   0.150797 0.554456 0.435238 -0.132738
C21   C     C_R   0.860077 0.565074 0.578012 -0.140922
C22   C     C_R   0.107111 0.539703 0.531734 -0.045260
C23   C     C_R   0.495842 0.816248 0.541079 -0.005607
C24   C     C_R   0.898011 0.573469 0.475032 -0.041217
C25   C     C_R   0.144478 0.527053 0.630885 0.036609
C26   C     C_R   0.855645 0.548214 0.371179 0.035334
C27   C     C_R   0.225802 0.526714 0.629948 0.213358
C28   C     C_R   0.775629 0.509662 0.372927 0.200060
C29   C     C_2   0.021904 0.529774 0.525813 -0.144593
C30   C     C_2   0.983530 0.591539 0.476745 -0.140523
C31   C     C_3   0.297240 0.676045 0.349509 0.007768
C32   C     C_3   0.343733 0.695619 0.244733 -0.349409
C33   C     C_3   0.764393 0.418466 0.705374 -0.022016
C34   C     C_R   0.512185 0.184579 0.459184 -0.013108
C35   C     C_3   0.692897 0.335586 0.680586 -0.346623
C36   C     C_3   0.622624 0.673904 0.807239 -0.227283
C37   C     C_3   0.615660 0.781682 0.883673 -0.479748
C38   C     C_3   0.378641 0.326390 0.212723 -0.208076
C39   C     C_3   0.390254 0.209817 0.186605 -0.462092
C40   C     C_3   0.370461 0.290842 0.967338 -0.209353
C41   C     C_3   0.410431 0.192402 0.918358 -0.397274
C42   C     C_3   0.675465 0.574387 0.993755 -0.282241
C43   C     C_3   0.691339 0.468544 0.016347 -0.442484
C44   C     C_3   0.745178 0.344907 0.268729 -0.003286
C45   C     C_R   0.529929 0.008559 0.351328 -0.115312
C46   C     C_3   0.733714 0.280984 0.146641 -0.399160
C47   C     C_3   0.288014 0.622913 0.791055 -0.018449
C48   C     C_3   0.306612 0.618741 0.913900 -0.386788
C49   C     C_3   0.098905 0.513217 0.738594 -0.240837
C50   C     C_3   0.084371 0.397273 0.746188 -0.429912
C51   C     C_3   0.894711 0.559387 0.258232 -0.240800
C52   C     C_3   0.941831 0.469382 0.209606 -0.436399
C53   C     C_3   0.450542 0.851198 0.755897 -0.280324
C54   C     C_3   0.365934 0.871422 0.777438 -0.467100
C55   C     C_3   0.573011 0.156822 0.254726 -0.280595
C56   C     C_R   0.487508 0.993661 0.651550 -0.116512
C57   C     C_3   0.555624 0.084400 0.136119 -0.470868
C58   C     C_3   0.367809 0.338832 0.716781 0.015889
C59   C     C_3   0.319780 0.228590 0.691046 -0.454446
C60   C     C_3   0.631039 0.661657 0.263427 0.018505
C61   C     C_3   0.676199 0.769005 0.257420 -0.432613
C62   C     C_R   0.532111 0.117008 0.354188 0.006263
C63   C     C_R   0.480464 0.884926 0.647095 0.020865
C64   C     C_R   0.501366 0.141466 0.557929 -0.166070
Cu1   Cu    Cu3+1 0.505800 0.507690 0.615350 0.923702
Cu2   Cu    Cu3+1 0.494200 0.492310 0.384650 0.930884
H1    H     H_    0.014357 0.650596 0.434480 0.120074
H2    H     H_    0.247205 0.722563 0.358277 0.108757
H3    H     H_    0.306053 0.671106 0.167245 0.134732
H4    H     H_    0.365912 0.780752 0.255793 0.092184
H5    H     H_    0.393829 0.649835 0.233114 0.211193
H6    H     H_    0.779411 0.431143 0.797640 0.133186
H7    H     H_    0.815143 0.386873 0.657182 0.103128
H8    H     H_    0.679463 0.316159 0.587319 0.144567
H9    H     H_    0.704191 0.262654 0.707510 0.077982
H10   H     H_    0.641907 0.365269 0.728543 0.198958
H11   H     H_    0.554250 0.788421 0.908832 0.148971
H12   H     H_    0.989093 0.469245 0.564257 0.127227
H13   H     H_    0.650954 0.792738 0.962892 0.141945
H14   H     H_    0.637396 0.845180 0.837568 0.134602
H15   H     H_    0.684751 0.663755 0.800052 0.163929
H16   H     H_    0.608654 0.675834 0.719823 0.209839
H17   H     H_    0.340410 0.160060 0.137287 0.125315
H18   H     H_    0.444484 0.199815 0.138921 0.172138
H19   H     H_    0.394213 0.179902 0.266666 0.151828
H20   H     H_    0.381846 0.345701 0.303785 0.223776
H21   H     H_    0.317339 0.336246 0.197350 0.121987
H22   H     H_    0.416122 0.178065 0.824915 0.184057
H23   H     H_    0.892901 0.581511 0.657587 0.125634
H24   H     H_    0.470201 0.199482 0.953233 0.141547
H25   H     H_    0.375844 0.120920 0.938536 0.105402
H26   H     H_    0.321147 0.267008 0.019837 0.113715
H27   H     H_    0.335698 0.319480 0.909416 0.147726
H28   H     H_    0.657861 0.449046 0.090686 0.191779
H29   H     H_    0.674582 0.404708 0.940449 0.137058
H30   H     H_    0.754365 0.471906 0.033755 0.148849
H31   H     H_    0.714792 0.586099 0.922415 0.159265
H32   H     H_    0.696562 0.639780 0.063716 0.142716
H33   H     H_    0.699797 0.315678 0.325405 0.128495
H34   H     H_    0.122645 0.565287 0.359115 0.129024
H35   H     H_    0.802589 0.330893 0.299156 0.117928
H36   H     H_    0.777408 0.312538 0.088931 0.143907
H37   H     H_    0.741587 0.197713 0.144190 0.094488
H38   H     H_    0.674254 0.282917 0.115526 0.147500
H39   H     H_    0.243787 0.678099 0.793784 0.107831
H40   H     H_    0.341799 0.654133 0.751199 0.170391
H41   H     H_    0.352316 0.567316 0.915301 0.150287
H42   H     H_    0.328016 0.699109 0.962680 0.089874
H43   H     H_    0.253519 0.587278 0.955972 0.148073
H44   H     H_    0.050861 0.350219 0.670142 0.133730
H45   H     H_    0.519417 0.809874 0.360808 0.173439
H46   H     H_    0.140436 0.365807 0.750843 0.180580
H47   H     H_    0.050358 0.389018 0.824559 0.120002
H48   H     H_    0.130684 0.558945 0.816629 0.161303
H49   H     H_    0.042371 0.544846 0.742004 0.116189
H50   H     H_    0.971253 0.484397 0.129852 0.122075
H51   H     H_    0.987039 0.462753 0.271031 0.157920
H52   H     H_    0.903320 0.393389 0.187863 0.151471
H53   H     H_    0.850578 0.562476 0.193237 0.167032
H54   H     H_    0.933271 0.635762 0.270076 0.113392
H55   H     H_    0.360086 0.956117 0.786071 0.148282
H56   H     H_    0.492464 0.191074 0.640435 0.174899
H57   H     H_    0.328253 0.825088 0.705379 0.137943
H58   H     H_    0.345436 0.848263 0.858482 0.124281
H59   H     H_    0.453794 0.768301 0.756962 0.180613
H60   H     H_    0.486504 0.898507 0.829380 0.130287
H61   H     H_    0.594173 0.021474 0.119956 0.140523
H62   H     H_    0.494175 0.046581 0.128900 0.153057
H63   H     H_    0.567352 0.130540 0.067934 0.125358
H64   H     H_    0.562350 0.237114 0.250601 0.191457
H65   H     H_    0.635883 0.159295 0.270563 0.128952
H66   H     H_    0.376924 0.347347 0.628832 0.215870
H67   H     H_    0.545202 0.955420 0.274084 0.118696
H68   H     H_    0.332016 0.396031 0.765435 0.191408
H69   H     H_    0.291258 0.203847 0.766565 0.130490
H70   H     H_    0.271594 0.228664 0.631000 0.107827
H71   H     H_    0.355706 0.167844 0.648291 0.147541
H72   H     H_    0.666425 0.597976 0.228766 0.170267
H73   H     H_    0.623983 0.663367 0.355658 0.186748
H74   H     H_    0.667374 0.789950 0.173568 0.155155
H75   H     H_    0.656419 0.831727 0.325378 0.132749
H76   H     H_    0.739281 0.767804 0.270735 0.099609
H77   H     H_    0.479682 0.046545 0.732479 0.095175
H78   H     H_    0.335771 0.704478 0.426359 0.136608
N1    N     N_R   0.514530 0.519260 0.788680 -0.240694
N2    N     N_R   0.485470 0.480740 0.211320 -0.235650
O1    O     O_R   0.504120 0.354440 0.581590 -0.477680
O2    O     O_3   0.747715 0.515594 0.683078 -0.565106
O3    O     O_3   0.740670 0.452803 0.271969 -0.578202
O4    O     O_3   0.261721 0.520259 0.729619 -0.588193
O5    O     O_3   0.440999 0.343513 0.771924 -0.570178
O6    O     O_3   0.557724 0.650054 0.208744 -0.570693
O7    O     O_R   0.495880 0.645560 0.418410 -0.484148
O8    O     O_R   0.494320 0.341440 0.386760 -0.537731
O9    O     O_R   0.505680 0.658560 0.613240 -0.545815
O10   O     O_R   0.391870 0.507230 0.608700 -0.510428
O11   O     O_R   0.608130 0.492770 0.391300 -0.497752
O12   O     O_R   0.382070 0.494240 0.413880 -0.483036
O13   O     O_R   0.617930 0.505760 0.586120 -0.467533
O14   O     O_3   0.270843 0.567197 0.335234 -0.542275

loop_
_geom_bond_atom_site_label_1
_geom_bond_atom_site_label_2
_ccdc_geom_bond_type
C54   H57   S    
C35   H8    S    
C22   C29   S    
C53   C63   S    
C9    N2    A    
C8    N1    A    
C34   C62   A    
C40   H27   S    
Cu1   O13   S    
C57   H62   S    
C9    O6    S    
C21   H23   S    
C53   C54   S    
C58   H68   S    
C19   O2    S    
C37   H13   S    
C12   C23   S    
C35   H9    S    
C14   O12   A    
C57   H63   S    
C36   C37   S    
C19   C21   A    
C24   C26   A    
C39   H18   S    
C15   O11   A    
Cu1   O10   S    
C42   H32   S    
C60   O6    S    
C38   C39   S    
C44   H33   S    
C48   H41   S    
C59   H71   S    
C55   C62   S    
C59   H70   S    
C50   H44   S    
C43   H28   S    
C8    C36   S    
C31   H78   S    
C33   H6    S    
C17   C19   A    
C56   H77   S    
C29   H12   S    
C47   C48   S    
C36   H16   S    
C47   H39   S    
C22   C25   A    
C51   H53   S    
Cu1   O1    S    
C12   O7    A    
C5    C13   A    
C30   H1    S    
C7    N2    A    
C14   O10   A    
C52   H51   S    
C55   H64   S    
C16   C27   A    
C23   C63   A    
C49   H48   S    
C28   O3    S    
C34   C64   A    
C44   C46   S    
C1    C34   S    
C43   H30   S    
C32   H5    S    
C24   C30   S    
C4    C45   A    
C52   H50   S    
C31   H2    S    
C35   H10   S    
C37   H14   S    
C2    H45   S    
C51   C52   S    
C42   H31   S    
C58   H66   S    
C6    C11   A    
C5    C7    A    
C32   H4    S    
C60   H73   S    
C58   C59   S    
C3    C64   A    
C46   H38   S    
C60   C61   S    
C2    C4    A    
C15   O13   A    
C29   C30   D    
C33   O2    S    
C10   O5    S    
C46   H36   S    
C3    C56   A    
C43   H29   S    
C31   C32   S    
C20   H34   S    
C47   O4    S    
C36   H15   S    
C47   H40   S    
C50   H46   S    
C51   H54   S    
C56   C63   A    
C45   C62   A    
C40   H26   S    
C9    C11   A    
C53   H59   S    
C61   H75   S    
C40   C41   S    
C41   H25   S    
C54   H55   S    
C38   H20   S    
C49   C50   S    
C27   O4    S    
C55   H65   S    
C55   C57   S    
C14   C16   S    
C1    O1    A    
C42   C43   S    
C39   H19   S    
C12   O9    A    
Cu1   N1    S    
C3    C4    A    
Cu2   O12   S    
C58   O5    S    
Cu2   O8    S    
C33   H7    S    
C15   C17   S    
C41   H22   S    
C54   H58   S    
C49   H49   S    
C17   C28   A    
C45   H67   S    
C31   O14   S    
C20   C22   A    
C10   C13   A    
C57   H61   S    
Cu2   O7    S    
C6    C8    A    
C44   H35   S    
C61   H74   S    
C32   H3    S    
C25   C27   A    
C46   H37   S    
C26   C28   A    
C44   O3    S    
C38   H21   S    
C50   H47   S    
C39   H17   S    
Cu1   O9    S    
C26   C51   S    
C11   C13   A    
C48   H42   S    
C37   H11   S    
C64   H56   S    
C59   H69   S    
C33   C35   S    
C7    C38   S    
C48   H43   S    
C18   C20   A    
C1    O8    A    
C25   C49   S    
Cu2   N2    S    
C18   O14   S    
C53   H60   S    
C10   N1    A    
C61   H76   S    
C16   C18   A    
Cu1   Cu2   S    
C6    C42   S    
C21   C24   A    
C60   H72   S    
C2    C23   A    
C5    C40   S    
Cu2   O11   S    
C41   H24   S    
C52   H52   S    
