data_mof_unit_4521.cif
_audit_creation_date              2012-12-10T17:16:38-0500
_audit_creation_method            fapswitch 2.2
_symmetry_space_group_name_H-M    P1
_symmetry_Int_Tables_number       1
_space_group_crystal_system       triclinic
_cell_length_a                    10.217657
_cell_length_b                    10.558048
_cell_length_c                    10.650929
_cell_angle_alpha                 90.211241
_cell_angle_beta                  94.07805
_cell_angle_gamma                 81.640311
_cell_volume                      1133.89401528

loop_
_atom_site_label
_atom_site_type_symbol
_atom_type_description
_atom_site_fract_x
_atom_site_fract_y
_atom_site_fract_z
_atom_type_partial_charge
C1    C     C_R   0.446503 0.518152 0.267041 1.001907
C2    C     C_R   0.554045 0.498592 0.732921 0.977166
C3    C     C_2   0.421553 0.548734 0.134052 -0.409114
C4    C     C_2   0.580979 0.514515 0.866098 -0.413667
C5    C     C_2   0.516516 0.586943 0.067478 0.324468
C6    C     C_2   0.496283 0.592695 0.932667 0.370358
C7    C     C_2   0.074082 0.484633 0.493819 -0.106808
C8    C     C_2   0.930922 0.493912 0.523360 -0.017492
C9    C     C_R   0.494021 0.263169 0.476352 0.940544
C10   C     C_R   0.496474 0.741419 0.482620 0.927252
C11   C     C_R   0.637997 0.105052 0.261350 0.106000
C12   C     C_R   0.237040 0.910606 0.386646 0.155160
C13   C     C_R   0.712116 0.016668 0.185099 0.020131
C14   C     C_R   0.118979 0.997850 0.374024 0.077939
C15   C     C_R   0.747119 0.890080 0.227276 -0.179254
C16   C     C_R   0.123143 0.128135 0.364724 -0.274932
C17   C     C_R   0.704488 0.851748 0.340845 0.456420
C18   C     C_R   0.244155 0.170865 0.367189 0.376828
C19   C     C_R   0.597124 0.927585 0.392720 -0.046748
C20   C     C_R   0.359088 0.090442 0.413980 -0.027799
C21   C     C_R   0.582057 0.060084 0.367761 0.012146
C22   C     C_R   0.359426 0.956287 0.420222 0.007810
C23   C     C_R   0.486211 0.876279 0.438082 -0.168990
C24   C     C_R   0.480509 0.135911 0.425147 -0.126426
H1    H     H_    0.034134 0.191600 0.332316 0.156092
H2    H     H_    0.822850 0.827538 0.181652 0.209750
H3    H     H_    0.668026 0.456912 0.911983 0.163561
H4    H     H_    0.325711 0.536482 0.088259 0.193502
H5    H     H_    0.898992 0.545628 0.606646 0.190295
H6    H     H_    0.108403 0.419502 0.421507 0.204560
H7    H     H_    0.876245 0.403772 0.368715 0.178500
H8    H     H_    0.120334 0.612613 0.619931 0.216251
N1    N     N_2   0.157300 0.551390 0.551120 -0.186532
N2    N     N_2   0.842700 0.448610 0.448880 -0.169801
O1    O     O_R   0.568940 0.489660 0.307530 -0.568495
O2    O     O_R   0.431060 0.510340 0.692470 -0.551364
O3    O     O_R   0.348880 0.522640 0.340350 -0.580979
O4    O     O_R   0.651120 0.477360 0.659650 -0.612468
O5    O     O_R   0.610030 0.300280 0.483580 -0.614904
O6    O     O_R   0.389970 0.699720 0.516420 -0.588949
O7    O     O_R   0.389970 0.333270 0.516400 -0.601135
O8    O     O_R   0.610030 0.666730 0.483600 -0.552067
Zn1   Zn    Zn3+2 0.646940 0.477980 0.478080 1.017171
Zn2   Zn    Zn3+2 0.353060 0.522020 0.521920 1.018901
N3    N     N_3   0.604857 0.235842 0.221487 -0.407959
H9    H     H_    0.693050 0.273793 0.214507 0.202694
H10   H     H_    0.555057 0.238528 0.132095 0.226338
N4    N     N_3   0.234708 0.785299 0.335033 -0.411784
H11   H     H_    0.205321 0.794761 0.239037 0.199910
H12   H     H_    0.163581 0.742308 0.378419 0.253317
N5    N     N_3   0.758278 0.058135 0.069910 -0.436233
H13   H     H_    0.805230 0.979745 0.021836 0.215588
H14   H     H_    0.830169 0.116940 0.093345 0.180330
N6    N     N_3   0.997424 0.952808 0.340651 -0.422361
H15   H     H_    0.924700 0.005026 0.392239 0.224049
H16   H     H_    0.975613 0.975701 0.245512 0.183285
Cl1   Cl    Cl    0.830602 0.767519 0.440814 -0.633107
Cl2   Cl    Cl    0.254830 0.291897 0.257081 -0.668305
Cl3   Cl    Cl    0.360678 0.701799 0.866633 -0.582972
Cl4   Cl    Cl    0.674485 0.616758 0.129944 -0.627579

loop_
_geom_bond_atom_site_label_1
_geom_bond_atom_site_label_2
_ccdc_geom_bond_type
C17   Cl1   S    
C19   C23   A    
C15   H2    S    
C9    C24   S    
C14   C16   A    
C10   C23   S    
C10   O8    A    
O1    Zn1   S    
C2    O4    A    
O6    Zn2   S    
C2    C4    S    
C1    O3    A    
C12   N4    S    
H8    N1    S    
C3    C5    D    
O3    Zn2   S    
C13   C15   A    
H7    N2    S    
O4    Zn1   S    
C7    H6    S    
C8    N2    D    
N3    H9    S    
C11   C13   A    
C8    H5    S    
N4    H12   S    
N4    H11   S    
C19   C21   A    
C20   C22   A    
C18   C20   A    
N3    H10   S    
C13   N5    S    
C5    C6    S    
O7    Zn2   S    
N6    H16   S    
C11   N3    S    
C4    C6    D    
O2    Zn2   S    
O8    Zn1   S    
C7    N1    D    
N5    H14   S    
N5    H13   S    
C12   C22   A    
C7    C8    S    
C4    H3    S    
C1    O1    A    
C3    H4    S    
C16   C18   A    
C21   C24   A    
C2    O2    A    
C16   H1    S    
C15   C17   A    
C22   C23   A    
C17   C19   A    
C10   O6    A    
O5    Zn1   S    
C5    Cl4   S    
C14   N6    S    
N6    H15   S    
N1    Zn2   S    
C9    O7    A    
C6    Cl3   S    
C11   C21   A    
C9    O5    A    
N2    Zn1   S    
C20   C24   A    
C12   C14   A    
C18   Cl2   S    
C1    C3    S    
