data_mof_unit_1122.cif
_audit_creation_date              2013-03-05T16:11:04-0500
_audit_creation_method            fapswitch 2.2
_symmetry_space_group_name_H-M    P1
_symmetry_Int_Tables_number       1
_space_group_crystal_system       triclinic
_cell_length_a                    10.823159
_cell_length_b                    9.497842
_cell_length_c                    10.610272
_cell_angle_alpha                 89.704196
_cell_angle_beta                  91.989493
_cell_angle_gamma                 89.308858
_cell_volume                      1089.94669235

loop_
_atom_site_label
_atom_site_type_symbol
_atom_site_description
_atom_site_fract_x
_atom_site_fract_y
_atom_site_fract_z
_atom_type_partial_charge
O1    O     O_R   0.317570 0.620260 0.500070 -0.526089
O2    O     O_R   0.317570 0.379740 0.500070 -0.564386
C1    C     C_R   0.259621 0.501004 0.504416 0.866894
O3    O     O_R   0.499850 0.620240 0.316900 -0.547918
O4    O     O_R   0.499850 0.379760 0.316900 -0.572476
C2    C     C_R   0.502101 0.500191 0.259599 0.828155
Cu1   Cu    Cu3+1 0.499860 0.642410 0.500060 0.991375
Cu2   Cu    Cu3+1 0.499860 0.357590 0.500060 0.971300
O5    O     O_R   0.682190 0.620260 0.500030 -0.612747
O6    O     O_R   0.682190 0.379740 0.500030 -0.604669
O7    O     O_R   0.499910 0.620280 0.683200 -0.595429
O8    O     O_R   0.499910 0.379720 0.683200 -0.589437
C3    C     C_R   0.739544 0.499434 0.502289 0.789134
C4    C     C_R   0.499787 0.499875 0.740457 0.838642
C5    C     C_3   0.387325 0.524954 0.038771 -0.049014
C6    C     C_3   0.543346 0.374406 0.042762 -0.122394
C7    C     C_3   0.426558 0.398868 0.957015 -0.067187
H1    H     H_    0.364662 0.315716 0.919049 0.217520
H2    H     H_    0.293321 0.545204 0.073861 0.200405
H3    H     H_    0.579042 0.271702 0.079847 0.179080
C8    C     C_3   0.500733 0.500173 0.877363 -0.056728
C9    C     C_3   0.461581 0.626388 0.956853 -0.054521
C10   C     C_3   0.617364 0.475875 0.960805 -0.236057
C11   C     C_3   0.578206 0.601792 0.042860 -0.139930
C12   C     C_3   0.503767 0.500388 0.122495 -0.026601
H4    H     H_    0.427835 0.729364 0.918444 0.190930
H5    H     H_    0.711289 0.455738 0.925475 0.162559
H6    H     H_    0.640345 0.684588 0.081127 0.171477
C13   C     C_3   0.063360 0.660979 0.500294 0.584294
C14   C     C_3   0.073376 0.422552 0.632042 0.594832
C15   C     C_3   0.921757 0.653541 0.503254 -0.401561
C16   C     C_3   0.928798 0.432178 0.630858 -0.409707
H7    H     H_    0.886710 0.710679 0.586487 0.202197
H8    H     H_    0.897039 0.496110 0.711499 0.182846
H9    H     H_    0.878495 0.708348 0.419284 0.196149
H10   H     H_    0.886897 0.327090 0.644378 0.203706
H11   H     H_    0.104330 0.454261 0.302454 0.227922
H12   H     H_    0.103334 0.308103 0.395039 0.264469
H13   H     H_    0.890390 0.471055 0.302036 0.192459
H14   H     H_    0.892423 0.309539 0.390369 0.216155
C17   C     C_3   0.068763 0.418097 0.393213 -0.384377
C18   C     C_3   0.120638 0.502767 0.508718 -0.200701
C19   C     C_3   0.876991 0.499786 0.506382 -0.053856
C20   C     C_3   0.926176 0.419754 0.390746 -0.364389
C21   C     C_3   0.616658 0.081908 0.561078 -0.307081
C22   C     C_3   0.611238 0.914800 0.571860 -0.295766
H15   H     H_    0.634577 0.127608 0.656201 0.190787
H16   H     H_    0.611481 0.882791 0.672934 0.183223
H17   H     H_    0.697152 0.111004 0.504349 0.175568
H18   H     H_    0.697553 0.870650 0.533821 0.180922
H19   H     H_    0.416768 0.110521 0.680552 0.177610
H20   H     H_    0.385056 0.870599 0.662054 0.189540
C23   C     C_3   0.400515 0.083461 0.579379 -0.153179
C24   C     C_3   0.392378 0.918523 0.566817 -0.155432
C25   C     C_3   0.489546 0.086129 0.372239 0.263657
C26   C     C_3   0.504799 0.920780 0.371624 0.255625
N1    N     N_3   0.500250 0.143650 0.502780 -0.223182
N2    N     N_3   0.500250 0.856350 0.502780 -0.209220
H21   H     H_    0.568206 0.127805 0.318727 0.070058
H22   H     H_    0.598586 0.896829 0.335926 0.050494
H23   H     H_    0.310381 0.131694 0.553879 0.262128
H24   H     H_    0.305843 0.893370 0.514597 0.267303
N3    N     N_R   0.374490 0.133492 0.304081 0.171565
O9    O     O_R   0.266155 0.098744 0.342334 -0.304364
O10   O     O_R   0.380905 0.179993 0.189061 -0.347268
N4    N     N_R   0.418504 0.862064 0.276604 0.173848
O11   O     O_R   0.316991 0.801802 0.306434 -0.250121
O12   O     O_R   0.440993 0.878123 0.157722 -0.367044
N5    N     N_R   0.092468 0.740455 0.384743 0.154991
O13   O     O_R   0.072599 0.686666 0.273575 -0.362513
O14   O     O_R   0.092928 0.877474 0.390245 -0.232521
N6    N     N_R   0.111778 0.271831 0.636771 0.120529
O15   O     O_R   0.051684 0.177572 0.571143 -0.347885
O16   O     O_R   0.188630 0.226575 0.725578 -0.332346
Cl1   Cl    Cl    0.114450 0.768373 0.632481 -0.528353
Cl2   Cl    Cl    0.132294 0.500383 0.777337 -0.563898

loop_
_geom_bond_atom_site_label_1
_geom_bond_atom_site_label_2
_geom_bond_distance
_ccdc_geom_bond_type
N4    O12   1.301455 A    
C25   C26   1.577198 S    
N3    O10   1.300117 A    
C1    C18   1.506400 S    
C25   H21   1.114996 S    
C13   C18   1.619444 S    
C17   C18   1.561145 S    
Cu1   Cu2   2.705174 S    
C23   C24   1.576157 S    
Cu1   O7    1.953402 S    
C21   N1    1.496048 S    
C15   C19   1.544709 S    
C16   H10   1.111942 S    
C4    C8    1.452308 S    
O4    C2    1.293485 A    
O7    C4    1.292204 A    
C5    C12   1.531303 S    
C2    C12   1.455438 S    
C5    C7    1.546263 S    
N5    O14   1.303056 A    
O5    C3    1.297823 A    
C23   H23   1.097424 S    
C5    C9    1.545332 S    
C6    C7    1.546070 S    
C25   N3    1.482112 S    
C10   C11   1.546619 S    
C15   H7    1.114241 S    
C10   H5    1.110412 S    
Cu1   N2    2.032375 S    
Cu2   O8    1.955561 S    
N4    O11   1.293191 A    
C8    C9    1.533280 S    
C22   N2    1.499186 S    
O3    Cu1   1.955829 S    
H20   C24   1.111866 S    
C13   N5    1.481614 S    
C21   H15   1.112485 S    
C22   H16   1.113078 S    
C11   C12   1.532389 S    
H12   C17   1.105283 S    
N6    O16   1.302794 A    
C23   N1    1.491159 S    
C24   H24   1.100896 S    
C21   C22   1.592634 S    
C7    C8    1.530313 S    
C26   H22   1.116957 S    
O1    C1    1.302709 A    
C16   H8    1.113424 S    
C5    H2    1.110443 S    
C19   C20   1.552977 S    
Cu2   N1    2.031976 S    
C14   Cl2   1.812339 S    
C21   H17   1.112733 S    
C6    H3    1.109964 S    
C7    H1    1.110001 S    
O3    C2    1.295310 A    
O8    C4    1.295617 A    
C6    C10   1.544365 S    
C25   N1    1.492826 S    
C17   C20   1.542441 S    
C9    C11   1.546385 S    
C3    C19   1.486786 S    
C24   N2    1.488634 S    
C6    C12   1.534334 S    
Cu1   O5    1.982055 S    
O1    Cu1   1.986662 S    
O2    Cu2   1.981616 S    
C11   H6    1.110252 S    
N6    O15   1.303239 A    
O6    C3    1.301760 A    
O4    Cu2   1.953667 S    
C14   N6    1.485927 S    
H13   C20   1.112997 S    
C13   Cl1   1.813241 S    
C22   H18   1.109027 S    
C8    C10   1.530946 S    
O2    C1    1.306583 A    
C13   C15   1.536470 S    
C14   C16   1.565971 S    
C26   N4    1.467220 S    
C16   C19   1.549898 S    
C26   N2    1.519920 S    
C15   H9    1.115512 S    
H11   C17   1.104084 S    
N5    O13   1.299923 A    
N3    O9    1.299800 A    
H14   C20   1.112853 S    
Cu2   O6    1.987101 S    
C9    H4    1.110401 S    
C14   C18   1.612412 S    
H19   C23   1.113638 S    
