data_mof_unit_167.cif
_audit_creation_date              2012-12-10T19:03:07-0500
_audit_creation_method            fapswitch 2.2
_symmetry_space_group_name_H-M    P1
_symmetry_Int_Tables_number       1
_space_group_crystal_system       triclinic
_cell_length_a                    10.745714
_cell_length_b                    10.815571
_cell_length_c                    9.538604
_cell_angle_alpha                 89.952951
_cell_angle_beta                  90.012781
_cell_angle_gamma                 90.117796
_cell_volume                      1108.58366368

loop_
_atom_site_label
_atom_site_type_symbol
_atom_type_description
_atom_site_fract_x
_atom_site_fract_y
_atom_site_fract_z
_atom_type_partial_charge
C1    C     C_R   0.502417 0.262290 0.500010 0.806933
C2    C     C_3   0.878263 0.498793 0.500161 0.075656
C3    C     C_3   0.928687 0.611501 0.583254 -0.395600
C4    C     C_3   0.928749 0.511647 0.347778 -0.485767
C5    C     C_R   0.517774 0.063447 0.625674 0.162355
C6    C     C_R   0.515343 0.129225 0.499764 -0.098290
C7    C     C_R   0.531298 0.064598 0.373161 -0.229808
C8    C     C_R   0.531425 0.935707 0.373086 -0.226951
C9    C     C_R   0.515585 0.870748 0.499616 -0.101484
C10   C     C_R   0.517868 0.936228 0.625575 0.119118
C11   C     C_3   0.432767 0.929118 0.749137 -0.470471
C12   C     C_R   0.259949 0.500173 0.499821 0.775486
C13   C     C_3   0.432689 0.069537 0.749321 -0.489863
C14   C     C_R   0.548475 0.597820 0.073508 0.263264
C15   C     C_R   0.440296 0.410162 0.074513 -0.092822
C16   C     C_R   0.440230 0.410198 0.925580 -0.082804
C17   C     C_R   0.548139 0.597979 0.926128 0.260924
C18   C     C_3   0.678297 0.645148 0.919648 -0.518880
C19   C     C_3   0.679134 0.644032 0.078713 -0.521900
C20   C     C_R   0.502591 0.737686 0.499898 0.791813
C21   C     C_R   0.740206 0.499691 0.499948 0.799013
C22   C     C_3   0.074554 0.376673 0.565907 -0.459087
C23   C     C_3   0.929217 0.374229 0.561439 0.400727
C24   C     C_3   0.072232 0.609847 0.585748 -0.387140
C25   C     C_3   0.071318 0.508877 0.347366 -0.383247
C26   C     C_3   0.122264 0.498908 0.499588 0.114526
Cu1   Cu    Cu3+1 0.499990 0.499980 0.640670 0.950535
Cu2   Cu    Cu3+1 0.500010 0.500020 0.359330 0.925837
H1    H     H_    0.114279 0.366456 0.672380 0.167735
H2    H     H_    0.896918 0.600463 0.301057 0.189258
H3    H     H_    0.108598 0.698081 0.541502 0.155314
H4    H     H_    0.896603 0.698591 0.532613 0.157488
H5    H     H_    0.537400 0.112860 0.273844 0.163137
H6    H     H_    0.537541 0.887690 0.273736 0.160000
H7    H     H_    0.340698 0.888048 0.722844 0.194832
H8    H     H_    0.479331 0.888616 0.842537 0.193719
H9    H     H_    0.340558 0.110268 0.723279 0.187152
H10   H     H_    0.479319 0.109787 0.842837 0.198103
H11   H     H_    0.393793 0.336259 0.130290 0.135789
H12   H     H_    0.111249 0.296831 0.505027 0.119996
H13   H     H_    0.393446 0.336527 0.869897 0.132998
H14   H     H_    0.743637 0.577181 0.873522 0.218221
H15   H     H_    0.683496 0.739688 0.874206 0.191243
H16   H     H_    0.744381 0.574578 0.122424 0.211679
H17   H     H_    0.685833 0.737860 0.125557 0.188653
H18   H     H_    0.905646 0.302773 0.481629 0.079889
H19   H     H_    0.105072 0.604054 0.696177 0.168474
H20   H     H_    0.891364 0.613871 0.691426 0.168825
H21   H     H_    0.107035 0.594499 0.296269 0.181975
H22   H     H_    0.103494 0.428733 0.283833 0.169668
H23   H     H_    0.892997 0.435490 0.280257 0.168362
N1    N     N_R   0.500800 0.500930 0.147930 -0.183029
N2    N     N_R   0.500800 0.500890 0.852020 -0.179715
O1    O     O_R   0.500000 0.319640 0.618810 -0.570320
O2    O     O_R   0.500010 0.319680 0.381230 -0.593963
O3    O     O_R   0.317690 0.499960 0.618790 -0.593102
O4    O     O_R   0.317700 0.500000 0.381210 -0.589151
O5    O     O_R   0.499990 0.680320 0.618770 -0.582974
O6    O     O_R   0.500000 0.680360 0.381190 -0.585414
O7    O     O_R   0.682300 0.500000 0.618790 -0.542975
O8    O     O_R   0.682310 0.500040 0.381210 -0.599695
O9    O     O_3   0.864743 0.333179 0.684107 -0.568927
C27   C     C_3   0.919590 0.366029 0.813350 -0.300625
H24   H     H_    0.965416 0.457643 0.812759 0.146428
H25   H     H_    0.986789 0.293633 0.845891 0.157302
H26   H     H_    0.845489 0.368881 0.894211 0.181581

loop_
_geom_bond_atom_site_label_1
_geom_bond_atom_site_label_2
_ccdc_geom_bond_type
C2    C4    S    
C1    O1    A    
C27   H25   S    
C14   N1    A    
C6    C7    A    
C22   H1    S    
C11   C13   S    
C9    C10   A    
C1    C6    S    
C9    C20   S    
C21   O8    A    
C22   H12   S    
Cu2   O8    S    
O9    C27   S    
C2    C21   S    
Cu1   N2    S    
C4    C25   S    
C3    C24   S    
C27   H26   S    
C15   N1    A    
C7    C8    A    
C23   H18   S    
C8    H6    S    
C18   H15   S    
C16   N2    A    
C20   O6    A    
Cu2   N1    S    
C14   C17   A    
C15   H11   S    
C13   H10   S    
C12   O3    A    
C5    C6    A    
C12   O4    A    
C5    C13   S    
C11   H7    S    
C11   H8    S    
Cu2   O2    S    
C24   C26   S    
C17   C18   S    
C2    C3    S    
Cu1   O7    S    
C18   H14   S    
C1    O2    A    
C3    H4    S    
C25   H21   S    
Cu1   O1    S    
C10   C11   S    
C7    H5    S    
C4    H23   S    
C20   O5    A    
C15   C16   A    
C17   N2    A    
C3    H20   S    
C5    C10   A    
C19   H16   S    
Cu2   O4    S    
C21   O7    A    
C18   C19   S    
C22   C26   S    
Cu2   O6    S    
C2    C23   S    
C25   H22   S    
C14   C19   S    
C23   O9    S    
C24   H3    S    
C25   C26   S    
Cu1   O3    S    
C24   H19   S    
C13   H9    S    
C16   H13   S    
C22   C23   S    
C4    H2    S    
C19   H17   S    
C27   H24   S    
C12   C26   S    
C8    C9    A    
Cu1   Cu2   S    
Cu1   O5    S    
