data_mof_unit_1980.cif
_audit_creation_date              2012-12-10T18:22:30-0500
_audit_creation_method            fapswitch 2.2
_symmetry_space_group_name_H-M    P1
_symmetry_Int_Tables_number       1
_space_group_crystal_system       triclinic
_cell_length_a                    23.574917
_cell_length_b                    10.661673
_cell_length_c                    9.478415
_cell_angle_alpha                 89.731917
_cell_angle_beta                  90.690757
_cell_angle_gamma                 90.469168
_cell_volume                      2382.10319392

loop_
_atom_site_label
_atom_site_type_symbol
_atom_type_description
_atom_site_fract_x
_atom_site_fract_y
_atom_site_fract_z
_atom_type_partial_charge
C1    C     C_R   0.499963 0.260149 0.499900 0.869067
C2    C     C_R   0.500371 0.739635 0.499899 0.850470
C3    C     C_R   0.239804 0.572736 0.388847 -0.169024
C4    C     C_R   0.759981 0.441542 0.393891 -0.166274
C5    C     C_R   0.298821 0.576335 0.393832 0.354856
C6    C     C_R   0.701160 0.433137 0.398169 0.343074
C7    C     C_R   0.328376 0.506068 0.498711 -0.278076
C8    C     C_R   0.671319 0.501488 0.501491 -0.259120
C9    C     C_R   0.296805 0.442452 0.604819 0.270885
C10   C     C_R   0.702344 0.571687 0.604295 0.291007
C11   C     C_R   0.237396 0.451636 0.606142 0.285840
C12   C     C_R   0.761961 0.567109 0.607087 0.283354
C13   C     C_R   0.208826 0.512203 0.494194 0.155569
C14   C     C_R   0.790759 0.505617 0.498242 0.162062
C15   C     C_3   0.542666 0.042174 0.581992 0.268035
C16   C     C_3   0.458502 0.956994 0.416235 0.300638
C17   C     C_3   0.550230 0.959847 0.450818 0.053324
C18   C     C_3   0.450801 0.038858 0.547414 0.057979
C19   C     C_3   0.500849 0.875143 0.499868 -0.219302
C20   C     C_3   0.500094 0.124219 0.498811 -0.222679
C21   C     C_3   0.493315 0.958508 0.631126 0.292376
C22   C     C_3   0.507812 0.040766 0.367281 0.324600
C23   C     C_R   0.391135 0.501482 0.499480 0.786223
C24   C     C_R   0.608755 0.500474 0.500619 0.790478
C25   C     C_3   0.530108 0.590753 0.049085 0.252993
C26   C     C_3   0.470068 0.409309 0.951174 0.266998
C27   C     C_3   0.479363 0.604919 0.947282 -0.256575
C28   C     C_3   0.520772 0.395291 0.052805 -0.252621
C29   C     C_3   0.550371 0.487852 0.952712 0.487595
C30   C     C_3   0.449729 0.512145 0.047199 0.482706
C31   C     C_R   0.879744 0.620874 0.480006 0.588653
C32   C     C_R   0.119317 0.399218 0.476332 0.605389
C33   C     C_R   0.880562 0.397380 0.496865 0.542094
C34   C     C_R   0.119402 0.622748 0.490048 0.540308
C35   C     C_R   0.939710 0.396546 0.488050 -0.039139
C36   C     C_R   0.060009 0.624282 0.484710 -0.062132
C37   C     C_R   0.969706 0.511140 0.482743 -0.053926
C38   C     C_R   0.029725 0.510108 0.481188 -0.066569
C39   C     C_R   0.939833 0.626239 0.480273 -0.085528
C40   C     C_R   0.059409 0.395096 0.477443 -0.061468
C41   C     C_R   0.969127 0.283035 0.485488 -0.233632
C42   C     C_R   0.030641 0.737834 0.484810 -0.177295
C43   C     C_R   0.028220 0.280700 0.477391 0.245689
C44   C     C_R   0.971482 0.740813 0.480574 0.245211
Cu1   Cu    Cu3+1 0.500010 0.499990 0.643150 1.022447
Cu2   Cu    Cu3+1 0.499990 0.500010 0.356850 1.024301
H1    H     H_    0.946250 0.194583 0.487194 0.186564
H2    H     H_    0.053637 0.826267 0.487216 0.192871
H3    H     H_    0.461728 0.691639 0.899518 0.205573
H4    H     H_    0.538396 0.308588 0.100654 0.207454
H5    H     H_    0.217624 0.621705 0.304607 0.193615
H6    H     H_    0.782302 0.393376 0.311127 0.193140
N1    N     N_R   0.851810 0.508156 0.492310 -0.431332
N2    N     N_R   0.147779 0.511467 0.486344 -0.439483
N3    N     N_3   0.500040 0.499970 0.858290 -0.212903
N4    N     N_3   0.499960 0.500030 0.141710 -0.213071
O1    O     O_R   0.500030 0.316850 0.620870 -0.577347
O2    O     O_R   0.499970 0.683150 0.379130 -0.571663
O3    O     O_R   0.500000 0.316860 0.379090 -0.557963
O4    O     O_R   0.500000 0.683140 0.620910 -0.561028
O5    O     O_R   0.417890 0.499960 0.620920 -0.563777
O6    O     O_R   0.582110 0.500040 0.379080 -0.565232
O7    O     O_R   0.417870 0.499970 0.379140 -0.510184
O8    O     O_R   0.582130 0.500030 0.620860 -0.500430
O9    O     O_2   0.848998 0.726289 0.466848 -0.546568
O10   O     O_2   0.149239 0.292466 0.465680 -0.496405
O11   O     O_2   0.851854 0.288042 0.511258 -0.547345
O12   O     O_2   0.148663 0.731722 0.500898 -0.543861
N5    N     N_2   0.562727 0.694314 0.107627 -0.396725
H7    H     H_    0.537306 0.757771 0.157756 0.285346
C45   C     C_3   0.600650 0.756524 0.010564 -0.619687
H8    H     H_    0.620048 0.840014 0.062304 0.227678
H9    H     H_    0.577187 0.787760 0.914396 0.248479
H10   H     H_    0.635473 0.692937 0.981019 0.278667
N6    N     N_2   0.438119 0.304537 0.893822 -0.410108
H11   H     H_    0.464415 0.241282 0.846216 0.264543
C46   C     C_3   0.400386 0.242558 0.991619 -0.624722
H12   H     H_    0.381434 0.157975 0.941218 0.217984
H13   H     H_    0.365199 0.305616 0.020045 0.274377
H14   H     H_    0.423906 0.212999 0.088371 0.250112
O13   O     O_3   0.604729 0.473221 0.898423 -0.658942
H15   H     H_    0.629529 0.455411 0.981183 0.332825
O14   O     O_3   0.395260 0.525316 0.100899 -0.662437
H16   H     H_    0.370598 0.543790 0.018064 0.332894
N7    N     N_2   0.055517 0.162236 0.473245 -0.373031
H17   H     H_    0.038955 0.097796 0.543458 0.251454
C47   C     C_3   0.059764 0.110677 0.332913 -0.575338
H18   H     H_    0.085047 0.023311 0.337312 0.236280
H19   H     H_    0.081350 0.178335 0.261479 0.240863
H20   H     H_    0.016843 0.088001 0.289800 0.200323
N8    N     N_2   0.945926 0.861205 0.479687 -0.434749
H21   H     H_    0.916018 0.877580 0.401853 0.297877
C48   C     C_3   0.932933 0.910127 0.617551 -0.609634
H22   H     H_    0.914282 0.004904 0.606389 0.232571
H23   H     H_    0.972281 0.917844 0.682743 0.212575
H24   H     H_    0.902005 0.848085 0.672053 0.258047
O15   O     O_3   0.325519 0.652596 0.296809 -0.655449
H25   H     H_    0.361388 0.684289 0.339147 0.369985
O16   O     O_3   0.674809 0.355775 0.300678 -0.712651
H26   H     H_    0.640436 0.318837 0.343821 0.334732
O17   O     O_3   0.322337 0.371367 0.709186 -0.716737
H27   H     H_    0.355375 0.329394 0.667943 0.345448
O18   O     O_3   0.676152 0.645521 0.703143 -0.710803
H28   H     H_    0.641384 0.681397 0.660192 0.323141
N9    N     N_2   0.205782 0.395516 0.717426 -0.385035
H29   H     H_    0.223358 0.315377 0.760050 0.299739
C49   C     C_3   0.187917 0.482621 0.824265 -0.641867
H30   H     H_    0.161206 0.432590 0.902493 0.223422
H31   H     H_    0.162359 0.559171 0.776373 0.239137
H32   H     H_    0.225516 0.523405 0.879739 0.241445
N10   N     N_2   0.793393 0.628491 0.716442 -0.390731
H33   H     H_    0.774700 0.707910 0.755798 0.295835
C50   C     C_3   0.813739 0.545604 0.826768 -0.641346
H34   H     H_    0.840124 0.599795 0.903214 0.219659
H35   H     H_    0.840346 0.470409 0.782111 0.239073
H36   H     H_    0.777363 0.502738 0.883501 0.246541
N11   N     N_2   0.603408 0.912206 0.399412 -0.426231
H37   H     H_    0.621055 0.845671 0.465438 0.241438
C51   C     C_3   0.643743 0.006603 0.354485 -0.560053
H38   H     H_    0.681526 0.960186 0.310214 0.222984
H39   H     H_    0.657528 0.065327 0.445310 0.248040
H40   H     H_    0.624884 0.067117 0.271009 0.256206
N12   N     N_2   0.397301 0.083376 0.599734 -0.433638
H41   H     H_    0.402870 0.146088 0.680691 0.254075
C52   C     C_3   0.356102 0.986814 0.632859 -0.568634
H42   H     H_    0.316163 0.031210 0.667249 0.228167
H43   H     H_    0.372173 0.925853 0.719631 0.236852
H44   H     H_    0.346327 0.928866 0.538605 0.262282
O19   O     O_3   0.586146 0.088990 0.668932 -0.702523
H45   H     H_    0.605281 0.013977 0.708451 0.336609
O20   O     O_3   0.415406 0.910367 0.328040 -0.721797
H46   H     H_    0.396547 0.985414 0.287783 0.347283
O21   O     O_3   0.486119 0.914542 0.768986 -0.734384
H47   H     H_    0.483025 0.990677 0.827915 0.331793
O22   O     O_3   0.514710 0.084855 0.229371 -0.738388
H48   H     H_    0.517709 0.008776 0.170311 0.337373

loop_
_geom_bond_atom_site_label_1
_geom_bond_atom_site_label_2
_ccdc_geom_bond_type
C47   H18   S    
Cu1   O4    S    
C48   H22   S    
Cu2   O3    S    
C18   C21   S    
C49   H31   S    
C36   C42   A    
N10   H33   S    
C25   N4    S    
C26   N3    S    
O15   H25   S    
C28   N4    S    
N12   H41   S    
Cu1   Cu2   S    
N9    C49   S    
Cu1   O1    S    
O17   H27   S    
C4    H6    S    
C28   C29   S    
C35   C37   A    
C50   H34   S    
N11   C51   S    
N7    H17   S    
C2    O4    A    
C23   O7    A    
N12   C52   S    
C31   O9    S    
C32   N2    A    
C30   O14   S    
N5    C45   S    
C16   O20   S    
C8    C24   S    
C28   H4    S    
C40   C43   A    
O14   H16   S    
C11   N9    S    
C52   H44   S    
C24   O6    A    
C49   H30   S    
C18   C20   S    
C3    C13   A    
C17   N11   S    
C18   N12   S    
C50   H36   S    
C46   H13   S    
C48   H23   S    
Cu2   O2    S    
C27   C30   S    
C25   C29   S    
C41   C43   A    
C42   C44   A    
C21   O21   S    
O13   H15   S    
C51   H39   S    
C33   N1    A    
C15   C20   S    
N7    C47   S    
C43   N7    S    
O22   H48   S    
C4    C6    A    
C34   O12   S    
N8    H21   S    
C5    C7    A    
C3    H5    S    
O19   H45   S    
C17   C19   S    
C6    C8    A    
C29   N3    S    
C46   H12   S    
C30   N4    S    
N6    H11   S    
C29   O13   S    
C37   C38   A    
C1    O1    A    
N8    C48   S    
C9    C11   A    
O16   H26   S    
C15   O19   S    
C23   O5    A    
C26   N6    S    
C41   H1    S    
N10   C50   S    
C16   C18   S    
C42   H2    S    
C31   N1    A    
N6    C46   S    
C44   N8    S    
C10   C12   A    
C8    C10   A    
Cu2   O6    S    
C26   C30   S    
C48   H24   S    
C47   H19   S    
C52   H42   S    
C49   H32   S    
C25   N5    S    
C20   C22   S    
Cu2   N4    S    
O20   H46   S    
C33   O11   S    
C32   O10   S    
C13   N2    S    
C51   H40   S    
C15   C17   S    
C10   O18   S    
C1    C20   S    
C16   C22   S    
Cu1   O8    S    
C19   C21   S    
C2    C19   S    
C5    O15   S    
C3    C5    A    
C45   H10   S    
C51   H38   S    
C2    O2    A    
C34   N2    A    
C39   C44   A    
C25   C27   S    
N9    H29   S    
Cu2   O7    S    
C27   N3    S    
C26   C28   S    
C17   C22   S    
C22   O22   S    
C6    O16   S    
C1    O3    A    
C12   C14   A    
C45   H8    S    
C37   C39   A    
N11   H37   S    
C36   C38   A    
C38   C40   A    
C11   C13   A    
O21   H47   S    
C46   H14   S    
C16   C19   S    
C7    C23   S    
Cu1   O5    S    
C33   C35   A    
C31   C39   A    
C24   O8    A    
C34   C36   A    
C32   C40   A    
C4    C14   A    
N5    H7    S    
C35   C41   A    
C7    C9    A    
C15   C21   S    
C14   N1    S    
Cu1   N3    S    
C9    O17   S    
C47   H20   S    
C45   H9    S    
O18   H28   S    
C52   H43   S    
C12   N10   S    
C27   H3    S    
C50   H35   S    
