data_mof_unit_3111.cif
_audit_creation_date              2012-12-11T15:52:18-0500
_audit_creation_method            fapswitch 2.2
_symmetry_space_group_name_H-M    P1
_symmetry_Int_Tables_number       1
_space_group_crystal_system       triclinic
_cell_length_a                    11.00789
_cell_length_b                    11.004848
_cell_length_c                    18.733426
_cell_angle_alpha                 90.066239
_cell_angle_beta                  89.959412
_cell_angle_gamma                 120.070765
_cell_volume                      1963.92794056

loop_
_atom_site_label
_atom_site_type_symbol
_atom_type_description
_atom_site_fract_x
_atom_site_fract_y
_atom_site_fract_z
_atom_type_partial_charge
C1    C     C_R   0.518372 0.460047 0.148388 0.527488
C2    C     C_3   0.934327 0.700596 0.470748 -0.267311
C3    C     C_3   0.762993 0.058019 0.471135 -0.265031
C4    C     C_3   0.300037 0.249541 0.463570 -0.264721
C5    C     C_R   0.516408 0.458477 0.352725 0.545249
C6    C     C_R   0.544665 0.064671 0.354934 0.551273
C7    C     C_R   0.935996 0.480640 0.354584 0.548607
C8    C     C_R   0.420033 0.547671 0.638895 0.571211
C9    C     C_R   0.060127 0.541387 0.646879 0.561917
C10   C     C_R   0.481480 0.940493 0.647054 0.550335
C11   C     C_R   0.501008 0.982245 0.924967 -0.003384
C12   C     C_R   0.569791 0.109778 0.139624 0.553127
C13   C     C_R   0.096663 0.558202 0.936324 0.031474
C14   C     C_R   0.448148 0.535273 0.936566 0.007358
C15   C     C_R   0.020498 0.510936 0.081819 0.000344
C16   C     C_R   0.532090 0.054493 0.068753 0.019863
C17   C     C_R   0.488555 0.514665 0.083759 -0.015196
C18   C     C_R   0.471180 0.082903 0.948844 0.011020
C19   C     C_R   0.044384 0.426767 0.967413 0.027578
C20   C     C_R   0.577548 0.622874 0.968786 -0.011576
C21   C     C_R   0.012311 0.403562 0.038719 0.032566
C22   C     C_R   0.491024 0.122449 0.019518 -0.019624
C23   C     C_R   0.939192 0.480828 0.147460 0.532520
C24   C     C_R   0.597741 0.614410 0.041093 0.032814
C25   C     C_R   0.571791 0.959402 0.043835 -0.162243
C26   C     C_R   0.092832 0.648454 0.054579 -0.155835
C27   C     C_R   0.352516 0.444806 0.054663 -0.162155
C28   C     C_R   0.131665 0.672113 0.982218 -0.157314
C29   C     C_R   0.560201 0.927314 0.972063 -0.169178
C30   C     C_R   0.334916 0.448831 0.980890 -0.163807
C31   C     C_3   0.343871 0.095658 0.940510 -0.052794
C32   C     C_3   0.938988 0.281789 0.945400 0.000162
C33   C     C_3   0.722992 0.654076 0.950332 -0.002680
C34   C     C_R   0.424291 0.544179 0.860549 0.548603
C35   C     C_3   0.900617 0.254851 0.024828 -0.034219
C36   C     C_3   0.369963 0.148063 0.017522 0.008173
C37   C     C_3   0.745930 0.646610 0.030149 0.005269
C38   C     C_R   0.502102 0.009458 0.578878 0.018699
C39   C     C_R   0.994869 0.495660 0.577852 0.018883
C40   C     C_R   0.437387 0.539973 0.562246 0.016311
C41   C     C_R   0.970348 0.493400 0.429326 0.025788
C42   C     C_R   0.522284 0.031140 0.430017 0.019988
C43   C     C_R   0.477045 0.503344 0.417602 0.021870
C44   C     C_R   0.633487 0.076477 0.546135 0.021170
C45   C     C_R   0.125313 0.579212 0.860016 0.568424
C46   C     C_R   0.924436 0.556916 0.545813 0.022839
C47   C     C_R   0.339459 0.421199 0.525301 0.011103
C48   C     C_R   0.913705 0.555941 0.472932 0.045234
C49   C     C_R   0.641638 0.082797 0.473199 0.046752
C50   C     C_R   0.357225 0.404046 0.454392 0.022640
C51   C     C_R   0.392848 0.988382 0.462855 -0.181119
C52   C     C_R   0.023152 0.415002 0.461174 -0.169855
C53   C     C_R   0.563310 0.633563 0.450211 -0.164639
C54   C     C_R   0.032948 0.414266 0.535361 -0.169769
C55   C     C_R   0.382942 0.978809 0.537259 -0.165954
C56   C     C_R   0.479894 0.935216 0.852844 0.534504
C57   C     C_R   0.543811 0.651352 0.522870 -0.160565
C58   C     C_3   0.760451 0.060192 0.552025 -0.274688
C59   C     C_3   0.941506 0.700575 0.551388 -0.273811
C60   C     C_3   0.282829 0.269018 0.541790 -0.267971
Cr1   Cr    Cr6+3 0.769160 0.541570 0.250690 0.999764
Cr2   Cr    Cr6+3 0.458430 0.227590 0.250690 1.033367
Cr3   Cr    Cr6+3 0.772410 0.230840 0.250690 1.001971
Cr4   Cr    Cr6+3 0.541570 0.769160 0.749310 0.995511
Cr5   Cr    Cr6+3 0.227590 0.458430 0.749310 0.999097
Cr6   Cr    Cr6+3 0.230840 0.772410 0.749310 0.993815
H1    H     H_    0.613979 0.911828 0.079214 0.162258
H2    H     H_    0.794743 0.234233 0.039560 0.137296
H3    H     H_    0.408551 0.260416 0.023741 0.182101
H4    H     H_    0.765842 0.560958 0.046690 0.162298
H5    H     H_    0.299849 0.959553 0.431300 0.119943
H6    H     H_    0.060193 0.358349 0.428947 0.121120
H7    H     H_    0.650819 0.716061 0.421446 0.110535
H8    H     H_    0.081078 0.359784 0.559077 0.136093
H9    H     H_    0.280191 0.934636 0.561188 0.133718
H10   H     H_    0.617064 0.746720 0.549257 0.125808
H11   H     H_    0.743847 0.962033 0.576387 0.151903
H12   H     H_    0.108812 0.735044 0.088032 0.134001
H13   H     H_    0.044798 0.782511 0.571823 0.153806
H14   H     H_    0.171335 0.213614 0.559033 0.125448
H15   H     H_    0.841062 0.701880 0.450178 0.148056
H16   H     H_    0.857979 0.145724 0.447205 0.152426
H17   H     H_    0.380745 0.219595 0.453446 0.170030
H18   H     H_    0.850311 0.154533 0.575769 0.139753
H19   H     H_    0.849597 0.698362 0.577418 0.144171
H20   H     H_    0.354249 0.250372 0.576184 0.164103
H21   H     H_    0.035290 0.777545 0.445280 0.131753
H22   H     H_    0.733839 0.953491 0.448803 0.127290
H23   H     H_    0.264213 0.368865 0.085976 0.168774
H24   H     H_    0.198614 0.185605 0.435217 0.131300
H25   H     H_    0.383454 0.174388 0.839648 0.254415
H26   H     H_    0.269765 0.201572 0.885987 0.245814
H27   H     H_    0.768968 0.311131 0.929123 0.239716
H28   H     H_    0.764198 0.176359 0.883763 0.245441
H29   H     H_    0.648742 0.443237 0.929633 0.243213
H30   H     H_    0.703296 0.547816 0.857229 0.273330
H31   H     H_    0.918377 0.150026 0.110293 0.265808
H32   H     H_    0.870075 0.057009 0.034260 0.249031
H33   H     H_    0.224757 0.955377 0.057197 0.216769
H34   H     H_    0.181753 0.777367 0.961460 0.114919
H35   H     H_    0.171391 0.073897 0.054938 0.239409
H36   H     H_    0.849095 0.773396 0.114830 0.262466
H37   H     H_    0.945379 0.811140 0.040139 0.226623
H38   H     H_    0.594540 0.857115 0.953409 0.149600
H39   H     H_    0.236090 0.374428 0.957460 0.137489
H40   H     H_    0.245683 0.994801 0.930589 0.131871
H41   H     H_    0.987573 0.223017 0.922195 0.154897
H42   H     H_    0.788882 0.759451 0.925857 0.167019
N1    N     N_3   0.365924 0.204623 0.889800 -0.621910
N2    N     N_3   0.829752 0.279775 0.900149 -0.593956
N3    N     N_3   0.726564 0.541069 0.910627 -0.619908
N4    N     N_3   0.938245 0.156251 0.055472 -0.656518
N5    N     N_3   0.256662 0.060354 0.066772 -0.599076
N6    N     N_3   0.845907 0.783941 0.059531 -0.658078
O1    O     O_R   0.911480 0.572650 0.170990 -0.531901
O2    O     O_R   0.528970 0.640340 0.824320 -0.501255
O3    O     O_R   0.111370 0.471030 0.824320 -0.491397
O4    O     O_R   0.359660 0.888630 0.824320 -0.525996
O5    O     O_R   0.909980 0.572450 0.331530 -0.517609
O6    O     O_R   0.427550 0.337530 0.331530 -0.523137
O7    O     O_R   0.662470 0.090020 0.331530 -0.515445
O8    O     O_R   0.572450 0.909980 0.668470 -0.530262
O9    O     O_R   0.337530 0.427550 0.668470 -0.516754
O10   O     O_R   0.090020 0.662470 0.668470 -0.518829
O11   O     O_R   0.638950 0.528780 0.324500 -0.503351
O12   O     O_R   0.427350 0.338830 0.170990 -0.506319
O13   O     O_R   0.471220 0.110170 0.324500 -0.503578
O14   O     O_R   0.889830 0.361050 0.324500 -0.503323
O15   O     O_R   0.528780 0.638950 0.675500 -0.496776
O16   O     O_R   0.110170 0.471220 0.675500 -0.517968
O17   O     O_R   0.361050 0.889830 0.675500 -0.509689
O18   O     O_3   0.666667 0.333333 0.250560 -0.264871
O19   O     O_3   0.333333 0.666667 0.749440 -0.307836
O20   O     O_R   0.661170 0.088520 0.170990 -0.538708
O21   O     O_R   0.572650 0.911480 0.829010 -0.532606
O22   O     O_R   0.338830 0.427350 0.829010 -0.517548
O23   O     O_R   0.088520 0.661170 0.829010 -0.491081
O24   O     O_R   0.640340 0.528970 0.175680 -0.511332
O25   O     O_R   0.471030 0.111370 0.175680 -0.459232
O26   O     O_R   0.888630 0.359660 0.175680 -0.514808

loop_
_geom_bond_atom_site_label_1
_geom_bond_atom_site_label_2
_ccdc_geom_bond_type
C44   C49   A    
C40   C47   A    
C11   C18   A    
Cr4   O2    S    
C46   C59   S    
Cr1   O5    S    
H35   N5    S    
Cr3   O26   S    
C25   H1    S    
C59   H19   S    
Cr5   O16   S    
C3    C49   S    
C9    O16   A    
C4    H17   S    
C26   H12   S    
C32   N2    S    
H36   N6    S    
C57   H10   S    
C19   C21   A    
C6    O13   A    
C58   H18   S    
Cr5   O9    S    
Cr2   O13   S    
Cr1   O24   S    
C39   C54   A    
C36   N5    S    
C34   O2    A    
C9    C39   S    
C9    O10   A    
C20   C24   A    
C10   O17   A    
Cr1   O18   S    
C47   C60   S    
C54   H8    S    
C43   C53   A    
C38   C55   A    
C12   C16   S    
C44   C58   S    
C7    O5    A    
Cr1   O1    S    
C13   C28   A    
C33   N3    S    
Cr2   O25   S    
C41   C52   A    
Cr2   O6    S    
Cr3   O14   S    
C58   H11   S    
H27   N2    S    
C55   H9    S    
C28   H34   S    
C15   C23   S    
C5    C43   S    
Cr4   O21   S    
C12   O20   A    
C37   H4    S    
C27   C30   A    
C33   H42   S    
C51   H5    S    
C14   C30   A    
C19   C32   S    
C26   C28   A    
Cr3   O7    S    
C52   C54   A    
C47   C50   A    
C4    H24   S    
C25   C29   A    
H30   N3    S    
C46   C48   A    
C17   C24   A    
H32   N4    S    
H33   N5    S    
C13   C19   A    
C5    O6    A    
C17   C27   A    
C32   C35   S    
C14   C20   A    
C23   O26   A    
H37   N6    S    
C1    O12   A    
C59   H13   S    
Cr2   O12   S    
H31   N4    S    
C60   H20   S    
C2    C59   S    
C15   C26   A    
C37   N6    S    
C2    C48   S    
H28   N2    S    
C33   C37   S    
C29   H38   S    
C4    C50   S    
Cr3   O20   S    
C38   C44   A    
C52   H6    S    
Cr2   O18   S    
Cr6   O19   S    
C34   O22   A    
C4    C60   S    
C3    H16   S    
C45   O23   A    
C24   C37   S    
C31   N1    S    
C12   O25   A    
C2    H21   S    
C8    O9    A    
Cr3   O18   S    
C35   N4    S    
C39   C46   A    
C20   C33   S    
C30   H39   S    
Cr6   O4    S    
C7    O14   A    
C31   H40   S    
Cr6   O10   S    
C56   O21   A    
C36   H3    S    
Cr6   O17   S    
C45   O3    A    
C16   C25   A    
Cr4   O19   S    
C60   H14   S    
C16   C22   A    
C40   C57   A    
C3    H22   S    
C18   C22   A    
C56   O4    A    
C53   H7    S    
C10   O8    A    
C53   C57   A    
C14   C34   S    
C43   C50   A    
C21   C35   S    
C22   C36   S    
C42   C51   A    
C1    C17   S    
C10   C38   S    
H25   N1    S    
H29   N3    S    
C13   C45   S    
C32   H41   S    
Cr6   O23   S    
C35   H2    S    
Cr4   O8    S    
C41   C48   A    
C27   H23   S    
C51   C55   A    
C7    C41   S    
H26   N1    S    
Cr5   O22   S    
C1    O24   A    
C42   C49   A    
C23   O1    A    
C3    C58   S    
C15   C21   A    
Cr4   O15   S    
C11   C29   A    
C6    C42   S    
C5    O11   A    
C8    O15   A    
Cr5   O3    S    
C31   C36   S    
C2    H15   S    
Cr1   O11   S    
C18   C31   S    
C8    C40   S    
C6    O7    A    
Cr5   O19   S    
C11   C56   S    
