data_mof_unit_2876.cif
_audit_creation_date              2012-12-10T18:16:23-0500
_audit_creation_method            fapswitch 2.2
_symmetry_space_group_name_H-M    P1
_symmetry_Int_Tables_number       1
_space_group_crystal_system       triclinic
_cell_length_a                    12.566008
_cell_length_b                    13.204837
_cell_length_c                    27.416481
_cell_angle_alpha                 90.548311
_cell_angle_beta                  103.516103
_cell_angle_gamma                 82.109843
_cell_volume                      4380.20626297

loop_
_atom_site_label
_atom_site_type_symbol
_atom_type_description
_atom_site_fract_x
_atom_site_fract_y
_atom_site_fract_z
_atom_type_partial_charge
C1    C     C_R   0.437830 0.691785 0.492761 0.841858
C2    C     C_R   0.547658 0.634997 0.716702 -0.092666
C3    C     C_R   0.500928 0.574533 0.745094 0.265880
C4    C     C_R   0.525735 0.607155 0.899208 -0.055971
C5    C     C_R   0.432044 0.655822 0.864646 -0.103093
C6    C     C_R   0.343632 0.707068 0.881900 -0.220079
C7    C     C_R   0.615048 0.555954 0.881773 0.001445
C8    C     C_R   0.499420 0.525442 0.645932 -0.139545
C9    C     C_R   0.493166 0.505985 0.351434 -0.132141
C10   C     C_R   0.446987 0.659610 0.021178 0.050117
C11   C     C_R   0.604423 0.522457 0.032363 0.068345
C12   C     C_R   0.500722 0.503489 0.593919 0.908441
C13   C     C_R   0.522449 0.582931 0.051562 0.063601
C14   C     C_R   0.380651 0.730125 0.044418 -0.168312
C15   C     C_R   0.378203 0.716573 0.094403 -0.165559
C16   C     C_R   0.441790 0.632175 0.122548 -0.012205
C17   C     C_R   0.514431 0.565180 0.101167 -0.055952
C18   C     C_R   0.578420 0.479927 0.129151 -0.038579
C19   C     C_R   0.567117 0.462313 0.177780 0.560777
C20   C     C_R   0.436332 0.613848 0.172038 0.578492
C21   C     C_R   0.398646 0.492358 0.263321 -0.090386
C22   C     C_R   0.395238 0.496610 0.314550 0.375737
C23   C     C_R   0.561572 0.308801 0.505769 0.859512
C24   C     C_R   0.588961 0.522356 0.336534 -0.295115
C25   C     C_R   0.588581 0.529496 0.286281 -0.152104
C26   C     C_R   0.494776 0.514789 0.249557 0.260894
C27   C     C_R   0.439866 0.660754 0.968726 -0.075474
C28   C     C_R   0.528664 0.606396 0.950964 -0.008153
C29   C     C_R   0.618521 0.547234 0.984439 0.058781
C30   C     C_R   0.344932 0.707800 0.932950 0.448034
C31   C     C_R   0.710764 0.512413 0.916079 -0.247669
C32   C     C_R   0.663546 0.434630 0.060021 -0.131529
C33   C     C_R   0.650854 0.413766 0.107758 -0.130162
C34   C     C_R   0.497699 0.501315 0.405545 0.880741
C35   C     C_R   0.715450 0.511261 0.967407 -0.029906
C36   C     C_R   0.719921 0.057089 0.485926 -0.185584
C37   C     C_R   0.599557 0.199819 0.507432 -0.053947
C38   C     C_R   0.301229 0.840194 0.507002 -0.053949
C39   C     C_R   0.297710 0.932419 0.532225 -0.078976
C40   C     C_R   0.385989 0.989210 0.539801 -0.061654
C41   C     C_R   0.469546 0.964500 0.512316 -0.018721
C42   C     C_R   0.475346 0.869618 0.488153 0.100246
C43   C     C_R   0.547087 0.030117 0.507310 0.080167
C44   C     C_R   0.640115 0.993561 0.487882 0.173725
C45   C     C_R   0.426681 0.647141 0.813167 0.547850
C46   C     C_R   0.645776 0.898592 0.465742 -0.260755
C47   C     C_R   0.560008 0.841368 0.462415 -0.164113
C48   C     C_R   0.525688 0.134670 0.513845 -0.289109
C49   C     C_R   0.700349 0.160388 0.496528 -0.186028
C50   C     C_R   0.398933 0.802449 0.491507 -0.225089
C51   C     C_R   0.086663 0.346665 0.431204 -0.293080
C52   C     C_R   0.799222 0.631121 0.558048 -0.164175
C53   C     C_R   0.905676 0.660884 0.570826 0.478401
C54   C     C_R   0.985965 0.610045 0.548230 -0.203980
C55   C     C_R   0.962646 0.530672 0.514117 -0.084736
C56   C     C_R   0.606511 0.549867 0.830094 0.514900
C57   C     C_R   0.854620 0.503879 0.503416 0.225450
C58   C     C_R   0.041753 0.477410 0.490032 0.029077
C59   C     C_R   0.010670 0.399301 0.455704 0.193432
C60   C     C_R   0.904166 0.374090 0.446246 -0.284374
C61   C     C_R   0.827661 0.425341 0.469959 -0.190495
C62   C     C_R   0.151190 0.497935 0.498502 -0.045617
C63   C     C_R   0.193173 0.371036 0.441117 0.040483
C64   C     C_R   0.452257 0.490134 0.724023 -0.221527
C65   C     C_R   0.454062 0.463069 0.674641 0.470946
C66   C     C_R   0.546343 0.610909 0.667232 -0.284330
H1    H     H_    0.582221 0.658964 0.645467 0.164382
H2    H     H_    0.416810 0.443575 0.746658 0.143513
H3    H     H_    0.783260 0.480893 0.903036 0.182632
H4    H     H_    0.717108 0.379131 0.044358 0.147159
H5    H     H_    0.664491 0.531830 0.363761 0.193773
H6    H     H_    0.698405 0.345858 0.127865 0.190512
H7    H     H_    0.662094 0.546486 0.275614 0.159917
H8    H     H_    0.758770 0.210384 0.491695 0.157408
H9    H     H_    0.712376 0.871841 0.447803 0.160526
H10   H     H_    0.793170 0.028688 0.472810 0.153255
H11   H     H_    0.586240 0.699647 0.733233 0.146090
H12   H     H_    0.445804 0.167910 0.518946 0.173483
H13   H     H_    0.228748 0.956711 0.549061 0.227195
H14   H     H_    0.561315 0.773564 0.439917 0.164150
H15   H     H_    0.253390 0.331080 0.422684 0.156405
H16   H     H_    0.879743 0.314200 0.420399 0.160355
H17   H     H_    0.063974 0.287194 0.404838 0.154539
H18   H     H_    0.183031 0.554804 0.524092 0.141905
H19   H     H_    0.732234 0.668025 0.573110 0.154447
H20   H     H_    0.270088 0.743216 0.855648 0.206847
H21   H     H_    0.066219 0.634851 0.558247 0.202080
H22   H     H_    0.747786 0.401673 0.461188 0.210317
H23   H     H_    0.324992 0.771664 0.110627 0.193375
H24   H     H_    0.332718 0.798239 0.025101 0.207697
N1    N     N_R   0.512151 0.592723 0.797216 -0.347417
N2    N     N_R   0.497383 0.529226 0.198220 -0.321731
N3    N     N_R   0.222180 0.444690 0.474320 -0.117890
N4    N     N_R   0.776980 0.554780 0.525420 -0.141020
O1    O     O_R   0.366730 0.627160 0.487740 -0.651273
O2    O     O_2   0.370895 0.679905 0.193953 -0.576021
O3    O     O_2   0.690583 0.499532 0.812671 -0.566371
O4    O     O_2   0.625549 0.379385 0.204629 -0.553978
O5    O     O_R   0.544830 0.662520 0.504140 -0.607366
O6    O     O_R   0.410970 0.482310 0.563040 -0.566344
O7    O     O_R   0.589070 0.517670 0.579450 -0.623630
O8    O     O_R   0.455170 0.337480 0.495860 -0.609955
O9    O     O_R   0.633270 0.372840 0.512260 -0.632757
O10   O     O_R   0.410930 0.482330 0.420550 -0.571238
O11   O     O_R   0.589030 0.517690 0.436960 -0.649805
O12   O     O_2   0.336306 0.690804 0.779312 -0.545188
Zn1   Zn    Zn3+2 0.381080 0.476390 0.489050 0.965794
Zn2   Zn    Zn3+2 0.618920 0.523610 0.510950 0.926826
C67   C     C_2   0.826335 0.483415 0.001356 0.353427
H25   H     H_    0.889789 0.433539 0.988428 0.072102
O13   O     O_2   0.849968 0.520289 0.042862 -0.540900
C68   C     C_2   0.204165 0.783900 0.499459 0.388724
H26   H     H_    0.190890 0.727220 0.470686 0.089644
O14   O     O_2   0.135264 0.802677 0.524366 -0.571969
C69   C     C_2   0.394601 0.064108 0.580904 0.363181
H27   H     H_    0.473453 0.088131 0.597991 0.068274
O15   O     O_2   0.314086 0.098667 0.596654 -0.552693
O16   O     O_3   0.936638 0.741017 0.602317 -0.610804
C70   C     C_3   0.864145 0.774537 0.633469 0.103979
H28   H     H_    0.914300 0.804349 0.668081 0.183976
H29   H     H_    0.827080 0.711314 0.646811 0.116869
C71   C     C_3   0.777377 0.862900 0.607818 -0.352993
H30   H     H_    0.818990 0.930033 0.603185 0.244435
H31   H     H_    0.734389 0.841080 0.569940 0.230051
C72   C     C_3   0.691706 0.893287 0.638397 -0.964313
H32   H     H_    0.646798 0.828128 0.642191 0.262117
H33   H     H_    0.631151 0.957560 0.618867 0.264688
H34   H     H_    0.732060 0.917974 0.676254 0.273486
O17   O     O_3   0.298323 0.486270 0.328883 -0.644292
C73   C     C_3   0.222557 0.577790 0.317330 0.053583
H35   H     H_    0.137845 0.556219 0.308455 0.167878
H36   H     H_    0.230063 0.620324 0.283577 0.142040
C74   C     C_3   0.233649 0.648603 0.362310 -0.310159
H37   H     H_    0.219275 0.607987 0.394989 0.244748
H38   H     H_    0.318259 0.670361 0.372266 0.205833
C75   C     C_3   0.150391 0.745832 0.350604 -0.957648
H39   H     H_    0.162481 0.787590 0.317770 0.280825
H40   H     H_    0.162236 0.796677 0.383340 0.258726
H41   H     H_    0.064700 0.726752 0.342499 0.268036
C76   C     C_2   0.302978 0.461512 0.225655 0.457431
H42   H     H_    0.227637 0.451004 0.236609 0.088124
O18   O     O_2   0.307740 0.443879 0.182375 -0.555875
O19   O     O_3   0.249050 0.749098 0.946423 -0.658963
C77   C     C_3   0.180922 0.671833 0.944751 0.061837
H43   H     H_    0.224809 0.605780 0.969978 0.153512
H44   H     H_    0.155172 0.644719 0.905683 0.150611
C78   C     C_3   0.077587 0.715700 0.962314 -0.307075
H45   H     H_    0.102244 0.742627 0.001359 0.234378
H46   H     H_    0.033257 0.782141 0.937736 0.233062
C79   C     C_3   0.999765 0.635979 0.960812 -0.912782
H47   H     H_    0.972593 0.609000 0.921962 0.258384
H48   H     H_    0.925611 0.670446 0.973645 0.284634
H49   H     H_    0.041680 0.569712 0.985966 0.274239
O20   O     O_3   0.411569 0.376585 0.654173 -0.622000
C80   C     C_3   0.481692 0.287592 0.676512 0.094091
H50   H     H_    0.432374 0.223031 0.670233 0.207534
H51   H     H_    0.511218 0.292461 0.717983 0.131879
C81   C     C_3   0.580083 0.262493 0.652094 -0.379329
H52   H     H_    0.548966 0.250797 0.611371 0.221953
H53   H     H_    0.629403 0.327031 0.656488 0.221654
C82   C     C_3   0.655741 0.166764 0.676077 -0.926690
H54   H     H_    0.696657 0.181543 0.715487 0.277240
H55   H     H_    0.720315 0.145221 0.654823 0.277647
H56   H     H_    0.607922 0.102039 0.675862 0.258556

loop_
_geom_bond_atom_site_label_1
_geom_bond_atom_site_label_2
_ccdc_geom_bond_type
C10   C27   A    
C58   C62   A    
C21   C26   A    
C8    C66   A    
C80   H51   S    
C41   C42   A    
C78   H45   S    
C1    O5    A    
C68   O14   D    
C82   H54   S    
C53   C54   A    
C52   C53   A    
O5    Zn2   S    
C20   N2    A    
N4    Zn2   S    
C72   H32   S    
C63   H15   S    
C47   H14   S    
C28   C29   A    
C78   H46   S    
C76   O18   D    
C67   O13   D    
C54   H21   S    
C9    C22   A    
C23   O8    A    
C26   N2    S    
C15   C16   A    
C3    N1    S    
C18   C19   A    
C48   H12   S    
O19   C77   S    
O16   C70   S    
C68   H26   S    
C19   N2    A    
C36   H10   S    
C81   C82   S    
C82   H55   S    
C54   C55   A    
C60   H16   S    
C56   N1    A    
C14   H24   S    
C16   C17   A    
C69   O15   D    
C79   H49   S    
C74   C75   S    
C52   N4    A    
O9    Zn2   S    
C43   C48   A    
C25   H7    S    
C33   H6    S    
C1    O1    A    
O7    Zn2   S    
C66   H1    S    
C20   O2    S    
C59   C60   A    
C21   C22   A    
C80   C81   S    
C81   H53   S    
C41   C43   A    
C56   O3    S    
C77   C78   S    
C46   H9    S    
C4    C28   A    
C19   O4    S    
C44   C46   A    
C71   H30   S    
C70   H29   S    
C38   C39   A    
O11   Zn2   S    
C23   O9    A    
C7    C31   A    
C78   C79   S    
C51   C63   A    
C76   H42   S    
C77   H44   S    
C10   C14   A    
C39   C40   A    
C53   O16   S    
C75   H39   S    
C32   H4    S    
C4    C7    A    
C58   C59   A    
C23   C37   S    
C5    C45   A    
C34   O10   A    
C30   O19   S    
C32   C33   A    
C60   C61   A    
C39   H13   S    
C73   H36   S    
C43   C44   A    
C65   O20   S    
C61   H22   S    
C15   H23   S    
C74   H37   S    
C37   C49   A    
C8    C65   A    
C14   C15   A    
C8    C12   S    
C62   N3    A    
C17   C18   A    
O8    Zn1   S    
C16   C20   A    
C24   C25   A    
C37   C48   A    
O20   C80   S    
O1    Zn1   S    
C42   C50   A    
C75   H40   S    
C40   C41   A    
C6    C30   A    
C11   C32   A    
C57   N4    A    
C55   C57   A    
C22   O17   S    
C81   H52   S    
C31   C35   A    
C36   C44   A    
C73   C74   S    
C51   C59   A    
C38   C68   S    
C64   H2    S    
C51   H17   S    
C27   C28   A    
C82   H56   S    
C45   O12   S    
C72   H33   S    
O17   C73   S    
C1    C50   S    
C70   C71   S    
C62   H18   S    
C46   C47   A    
C52   H19   S    
O6    Zn1   S    
C79   H47   S    
C34   O11   A    
C77   H43   S    
C2    C66   A    
C10   C13   A    
C35   C67   S    
C70   H28   S    
C9    C24   A    
C57   C61   A    
C38   C50   A    
C29   C35   A    
C6    H20   S    
C13   C17   A    
C64   C65   A    
C71   C72   S    
C2    C3    A    
C25   C26   A    
C12   O7    A    
C2    H11   S    
C67   H25   S    
C75   H41   S    
C11   C13   A    
C5    C6    A    
C79   H48   S    
C72   H34   S    
C4    C5    A    
C9    C34   S    
C73   H35   S    
C7    C56   A    
C42   C47   A    
C3    C64   A    
C45   N1    A    
C18   C33   A    
C12   O6    A    
C40   C69   S    
C31   H3    S    
C11   C29   A    
C55   C58   A    
C80   H50   S    
C74   H38   S    
C49   H8    S    
C21   C76   S    
C63   N3    A    
C71   H31   S    
O10   Zn1   S    
N3    Zn1   S    
C36   C49   A    
C69   H27   S    
C24   H5    S    
C27   C30   A    
