data_mof_unit_1501.cif
_audit_creation_date              2012-12-10T17:28:31-0500
_audit_creation_method            fapswitch 2.2
_symmetry_space_group_name_H-M    P1
_symmetry_Int_Tables_number       1
_space_group_crystal_system       triclinic
_cell_length_a                    10.632818
_cell_length_b                    12.036951
_cell_length_c                    12.862821
_cell_angle_alpha                 93.799047
_cell_angle_beta                  90.53118
_cell_angle_gamma                 86.902117
_cell_volume                      1640.22535964

loop_
_atom_site_label
_atom_site_type_symbol
_atom_type_description
_atom_site_fract_x
_atom_site_fract_y
_atom_site_fract_z
_atom_type_partial_charge
C1    C     C_R   0.499772 0.522375 0.700342 0.867297
C2    C     C_R   0.465234 0.555790 0.132782 -0.281112
C3    C     C_R   0.522872 0.449117 0.974042 0.071468
C4    C     C_R   0.477059 0.550878 0.025957 0.071413
C5    C     C_R   0.386755 0.950979 0.398616 -0.315372
C6    C     C_R   0.613245 0.049021 0.601383 -0.315375
C7    C     C_R   0.397318 0.835943 0.408957 0.016639
C8    C     C_R   0.602682 0.164057 0.591043 0.016641
C9    C     C_R   0.548660 0.859310 0.544535 0.072483
C10   C     C_R   0.451340 0.140690 0.455465 0.072482
C11   C     C_R   0.541196 0.976796 0.537147 0.044469
C12   C     C_R   0.500222 0.477625 0.299658 0.867297
C13   C     C_R   0.458804 0.023204 0.462853 0.044469
C14   C     C_R   0.738946 0.500701 0.499939 0.876458
C15   C     C_R   0.261054 0.499299 0.500060 0.876453
C16   C     C_R   0.871219 0.499669 0.692559 -0.136412
C17   C     C_R   0.128781 0.500350 0.307441 -0.136412
C18   C     C_R   0.937649 0.497668 0.786415 -0.142719
C19   C     C_R   0.062351 0.502370 0.213585 -0.142722
C20   C     C_R   0.068475 0.495681 0.786370 -0.138268
C21   C     C_R   0.931524 0.504358 0.213630 -0.138265
C22   C     C_R   0.132924 0.495572 0.692457 -0.141740
C23   C     C_R   0.500677 0.463660 0.188121 -0.106504
C24   C     C_R   0.867075 0.504449 0.307543 -0.141739
C25   C     C_R   0.066762 0.497316 0.596217 0.066508
C26   C     C_R   0.933238 0.502692 0.403784 0.066506
C27   C     C_R   0.935373 0.499475 0.596277 0.071002
C28   C     C_R   0.064627 0.500533 0.403723 0.071001
C29   C     C_R   0.128751 0.497935 0.499938 -0.181059
C30   C     C_R   0.871249 0.502066 0.500062 -0.181062
C31   C     C_3   0.422304 0.853232 0.980392 -0.787896
C32   C     C_3   0.577479 0.146772 0.019561 -0.787903
C33   C     C_1   0.367770 0.191367 0.380983 0.212774
C34   C     C_R   0.499289 0.536338 0.811880 -0.106534
C35   C     C_1   0.632230 0.808633 0.619018 0.212774
C36   C     C_R   0.446400 0.646438 0.970554 0.217936
C37   C     C_R   0.553525 0.353558 0.029444 0.217919
C38   C     C_R   0.457414 0.637422 0.862434 -0.227214
C39   C     C_R   0.542534 0.362573 0.137564 -0.227214
C40   C     C_R   0.534717 0.444207 0.867219 -0.281077
H1    H     H_    0.879758 0.505682 0.140774 0.136767
H2    H     H_    0.765429 0.505807 0.303840 0.130920
H3    H     H_    0.430922 0.632646 0.174042 0.179804
H4    H     H_    0.569042 0.367352 0.825964 0.179826
H5    H     H_    0.570746 0.292732 0.182858 0.176880
H6    H     H_    0.429210 0.707262 0.817135 0.176885
H7    H     H_    0.658163 0.218885 0.640699 0.135977
H8    H     H_    0.341837 0.781115 0.359301 0.135973
H9    H     H_    0.313141 0.744500 0.057931 0.215827
H10   H     H_    0.405717 0.922252 0.041138 0.243361
H11   H     H_    0.356335 0.867467 0.914570 0.234815
H12   H     H_    0.120240 0.494375 0.859226 0.136773
H13   H     H_    0.521344 0.854317 0.953750 0.253499
H14   H     H_    0.686810 0.255467 0.942130 0.215843
H15   H     H_    0.594063 0.077765 0.958805 0.243366
H16   H     H_    0.478416 0.145738 0.046145 0.253517
H17   H     H_    0.643373 0.132476 0.085417 0.234813
H18   H     H_    0.322415 0.982439 0.340437 0.154862
H19   H     H_    0.677585 0.017561 0.659562 0.154862
H20   H     H_    0.769604 0.501787 0.696351 0.126887
H21   H     H_    0.230396 0.498233 0.303649 0.126887
H22   H     H_    0.887410 0.497872 0.859299 0.134496
H23   H     H_    0.112589 0.502182 0.140702 0.134494
H24   H     H_    0.234570 0.494215 0.696160 0.130919
N1    N     N_R   0.523130 0.207800 0.519340 -0.120953
N2    N     N_R   0.476870 0.792200 0.480660 -0.120953
N3    N     N_2   0.400278 0.748271 0.024158 -0.314687
N4    N     N_2   0.599634 0.251726 0.975839 -0.314723
N5    N     N_1   0.300458 0.231362 0.321046 -0.214889
N6    N     N_1   0.699541 0.768638 0.678955 -0.214890
O1    O     O_R   0.506170 0.421700 0.658830 -0.632648
O2    O     O_R   0.493830 0.578300 0.341170 -0.632650
O3    O     O_R   0.491330 0.609310 0.646410 -0.619823
O4    O     O_R   0.508670 0.390690 0.353590 -0.619823
O5    O     O_R   0.690650 0.406190 0.506220 -0.622689
O6    O     O_R   0.309350 0.593810 0.493780 -0.622693
O7    O     O_R   0.675800 0.593810 0.493800 -0.607791
O8    O     O_R   0.324200 0.406190 0.506200 -0.607791
Zn1   Zn    Zn3+2 0.509910 0.374730 0.508290 0.950684
Zn2   Zn    Zn3+2 0.490090 0.625270 0.491710 0.950680

loop_
_geom_bond_atom_site_label_1
_geom_bond_atom_site_label_2
_ccdc_geom_bond_type
C4    C36   A    
N1    Zn1   S    
C12   O4    A    
C24   H2    S    
O1    Zn1   S    
C36   N3    S    
C31   N3    S    
C12   C23   S    
C1    O1    A    
C5    H18   S    
C34   C40   A    
C28   C29   A    
C19   C21   A    
C24   C26   A    
C10   N1    A    
C15   O8    A    
H14   N4    S    
C37   N4    S    
C16   H20   S    
C14   O7    A    
C9    N2    A    
C17   H21   S    
C35   N6    T    
C19   H23   S    
C22   C25   A    
C32   H15   S    
C5    C13   A    
C33   N5    T    
C39   H5    S    
C16   C27   A    
C15   O6    A    
C12   O2    A    
C8    N1    A    
C27   C30   A    
C32   H17   S    
C14   C30   S    
C1    C34   S    
C15   C29   S    
C25   C29   A    
C6    C11   A    
C5    C7    A    
O8    Zn1   S    
C18   H22   S    
C6    C8    A    
O2    Zn2   S    
C2    C4    A    
C2    H3    S    
C31   H13   S    
C9    C11   A    
C21   H1    S    
C16   C18   A    
C20   C22   A    
C3    C40   A    
C26   C30   A    
O4    Zn1   S    
C31   H10   S    
C3    C4    A    
O7    Zn2   S    
H9    N3    S    
C34   C38   A    
C17   C28   A    
C6    H19   S    
O6    Zn2   S    
C31   H11   S    
C10   C13   A    
C25   C27   A    
N2    Zn2   S    
C26   C28   A    
C32   N4    S    
C1    O3    A    
C14   O5    A    
C36   C38   A    
C8    H7    S    
C20   H12   S    
C7    H8    S    
C7    N2    A    
C11   C13   A    
C23   C39   A    
C17   C19   A    
O3    Zn2   S    
C10   C33   S    
C18   C20   A    
C38   H6    S    
C22   H24   S    
C40   H4    S    
C3    C37   A    
C37   C39   A    
C21   C24   A    
C2    C23   A    
C9    C35   S    
O5    Zn1   S    
C32   H16   S    
