data_mof_unit_2911.cif
_audit_creation_date              2012-10-26T19:05:03-0400
_audit_creation_method            fapswitch 2.2
_symmetry_space_group_name_H-M    P1
_symmetry_Int_Tables_number       1
_space_group_crystal_system       triclinic
_cell_length_a                    15.884394
_cell_length_b                    10.786084
_cell_length_c                    9.621454
_cell_angle_alpha                 88.771222
_cell_angle_beta                  90.322571
_cell_angle_gamma                 93.056861
_cell_volume                      1645.70691316

loop_
_atom_site_label
_atom_site_type_symbol
_atom_type_description
_atom_site_fract_x
_atom_site_fract_y
_atom_site_fract_z
_atom_type_partial_charge
C1    C     C_R   0.491385 0.262216 0.501439 0.542683
C2    C     C_R   0.362774 0.046932 0.839012 -0.099463
C3    C     C_R   0.361994 0.918256 0.838515 -0.103130
C4    C     C_R   0.340443 0.499420 0.499787 0.543862
C5    C     C_R   0.396557 0.858227 0.727362 -0.087197
C6    C     C_R   0.436622 0.926524 0.616531 0.034076
C7    C     C_R   0.438000 0.058529 0.617578 0.035099
C8    C     C_R   0.474657 0.127076 0.502945 -0.002641
C9    C     C_R   0.491871 0.065165 0.381083 -0.141463
C10   C     C_R   0.485905 0.937665 0.378469 -0.144850
C11   C     C_R   0.470118 0.867719 0.499515 -0.013439
C12   C     C_3   0.947650 0.429208 0.631346 -0.253399
C13   C     C_R   0.640568 0.616276 0.136721 0.110789
C14   C     C_R   0.715658 0.627027 0.061056 -0.141985
C15   C     C_R   0.710071 0.644238 0.918356 -0.178611
C16   C     C_R   0.489139 0.735719 0.499467 0.549521
C17   C     C_R   0.632230 0.625870 0.853697 -0.066401
C18   C     C_R   0.565425 0.561023 0.923841 0.145336
C19   C     C_R   0.567270 0.558845 0.072801 0.129463
C20   C     C_R   0.436664 0.443039 0.074724 0.003828
C21   C     C_R   0.436912 0.442558 0.927099 -0.002738
C22   C     C_R   0.659524 0.499026 0.500331 0.593213
C23   C     C_3   0.916793 0.496443 0.497918 -0.033479
C24   C     C_3   0.045694 0.423032 0.630289 -0.051167
C25   C     C_3   0.046107 0.437646 0.361790 -0.027727
C26   C     C_3   0.948140 0.424662 0.369882 -0.019132
C27   C     C_1   0.749088 0.498441 0.500780 0.027498
C28   C     C_3   0.083032 0.494857 0.498629 0.011907
C29   C     C_2   0.074796 0.291578 0.647628 0.609443
C30   C     C_2   0.633884 0.730385 0.215031 0.611103
C31   C     C_2   0.907763 0.462037 0.233136 0.563428
C32   C     C_3   0.956258 0.631257 0.497396 -0.199172
C33   C     C_3   0.053855 0.630804 0.505903 -0.060892
C34   C     C_1   0.824550 0.497744 0.499929 -0.037273
C35   C     C_1   0.175398 0.497084 0.499276 0.024004
C36   C     C_1   0.250917 0.498470 0.499378 0.043491
C37   C     C_R   0.398463 0.116489 0.728669 -0.078962
Cu1   Cu    Cu3+1 0.499990 0.499990 0.640660 0.935465
Cu2   Cu    Cu3+1 0.500010 0.500010 0.359340 0.994207
H1    H     H_    0.914792 0.335937 0.641371 0.186489
H2    H     H_    0.495807 0.894013 0.281580 0.205629
H3    H     H_    0.384870 0.395777 0.130149 0.133627
H4    H     H_    0.773877 0.658964 0.111230 0.188232
H5    H     H_    0.763971 0.682396 0.860280 0.142844
H6    H     H_    0.626031 0.664564 0.750998 0.187492
H7    H     H_    0.385062 0.395379 0.873245 0.120910
H8    H     H_    0.065532 0.501368 0.274135 0.190711
H9    H     H_    0.929400 0.324743 0.388176 0.177646
H10   H     H_    0.074540 0.670310 0.607269 0.140691
H11   H     H_    0.932655 0.681687 0.587865 0.123269
H12   H     H_    0.069566 0.472917 0.724094 0.109488
H13   H     H_    0.048282 0.106958 0.635131 0.363499
H14   H     H_    0.669619 0.830948 0.381660 0.332642
H15   H     H_    0.831275 0.410794 0.074027 0.341404
H16   H     H_    0.928775 0.480674 0.724374 0.124107
H17   H     H_    0.935986 0.682953 0.403193 0.214221
H18   H     H_    0.511947 0.115014 0.287020 0.162200
H19   H     H_    0.390009 0.214786 0.729276 0.146026
H20   H     H_    0.332968 0.093083 0.923050 0.134316
H21   H     H_    0.331602 0.864477 0.922198 0.136891
H22   H     H_    0.386679 0.758551 0.727017 0.155588
I1    I     I_    0.097840 0.265907 0.299623 -0.273144
I2    I     I_    0.110808 0.758644 0.352651 -0.339474
N1    N     N_R   0.500800 0.501210 0.147910 -0.254933
N2    N     N_R   0.500820 0.501290 0.852040 -0.246766
O1    O     O_R   0.499990 0.319640 0.618810 -0.504910
O2    O     O_R   0.020521 0.188616 0.619435 -0.679287
O3    O     O_2   0.602651 0.818797 0.157170 -0.552479
O4    O     O_R   0.675329 0.745266 0.342596 -0.696969
O5    O     O_2   0.922294 0.565751 0.182179 -0.528550
O6    O     O_R   0.854122 0.376176 0.164625 -0.674348
O7    O     O_R   0.500000 0.319660 0.381240 -0.504606
O8    O     O_R   0.379430 0.499990 0.618840 -0.519034
O9    O     O_R   0.379440 0.500020 0.381260 -0.500669
O10   O     O_R   0.500000 0.680340 0.618760 -0.531544
O11   O     O_R   0.500010 0.680360 0.381190 -0.478460
O12   O     O_R   0.620560 0.499980 0.618740 -0.518019
O13   O     O_R   0.620570 0.500010 0.381160 -0.472213
O14   O     O_2   0.146748 0.275740 0.687588 -0.507815

loop_
_geom_bond_atom_site_label_1
_geom_bond_atom_site_label_2
_ccdc_geom_bond_type
C4    C36   S    
C12   H1    S    
C16   O10   A    
C35   C36   T    
H14   O4    S    
C7    C8    A    
C25   C28   S    
Cu2   N1    S    
C12   C23   S    
C17   H6    S    
C15   H5    S    
Cu1   Cu2   S    
C23   C26   S    
C33   H10   S    
C1    C8    S    
C18   C19   A    
Cu2   O9    S    
C24   C29   S    
C29   O2    S    
C31   O5    D    
H15   O6    S    
Cu1   O1    S    
C28   C35   S    
C8    C9    A    
Cu2   O7    S    
C9    C10   A    
C25   H8    S    
C4    O9    A    
C37   H19   S    
C26   H9    S    
C3    H21   S    
C24   H12   S    
C31   O6    S    
C26   C31   S    
C13   C14   A    
C10   H2    S    
C1    O1    A    
Cu1   O10   S    
C27   C34   T    
C1    O7    A    
C13   C19   A    
Cu2   O13   S    
C13   C30   S    
C22   O13   A    
C6    C11   A    
C2    H20   S    
C25   C26   S    
C18   N2    A    
C20   N1    A    
C11   C16   S    
C29   O14   D    
Cu1   N2    S    
C19   N1    A    
C33   I2    S    
C23   C34   S    
C17   C18   A    
C7    C37   A    
C5    H22   S    
Cu2   O11   S    
C32   H11   S    
C4    O8    A    
H13   O2    S    
C28   C33   S    
C22   C27   S    
C30   O4    S    
C21   H7    S    
C15   C17   A    
C21   N2    A    
C16   O11   A    
C24   C28   S    
C22   O12   A    
C3    C5    A    
C20   H3    S    
C6    C7    A    
Cu1   O12   S    
C12   C24   S    
C23   C32   S    
C2    C3    A    
C32   C33   S    
C2    C37   A    
C5    C6    A    
C9    H18   S    
C25   I1    S    
C12   H16   S    
C10   C11   A    
C20   C21   A    
C14   C15   A    
C32   H17   S    
C30   O3    D    
C14   H4    S    
Cu1   O8    S    
