data_mof_unit_3900.cif
_audit_creation_date              2012-12-10T20:36:38-0500
_audit_creation_method            fapswitch 2.2
_symmetry_space_group_name_H-M    P1
_symmetry_Int_Tables_number       1
_space_group_crystal_system       triclinic
_cell_length_a                    10.486915
_cell_length_b                    10.676249
_cell_length_c                    9.920189
_cell_angle_alpha                 90.824349
_cell_angle_beta                  91.392424
_cell_angle_gamma                 91.523472
_cell_volume                      1109.82739597

loop_
_atom_site_label
_atom_site_type_symbol
_atom_type_description
_atom_site_fract_x
_atom_site_fract_y
_atom_site_fract_z
_atom_type_partial_charge
C1    C     C_R   0.494668 0.260088 0.498887 0.892090
C2    C     C_R   0.435109 0.936527 0.610321 0.096168
C3    C     C_3   0.482677 0.934474 0.753192 0.012797
C4    C     C_R   0.257475 0.499554 0.498644 0.874438
C5    C     C_3   0.481972 0.076542 0.752386 -0.494472
C6    C     C_R   0.432235 0.410393 0.067558 0.216927
C7    C     C_R   0.574850 0.581155 0.077950 -0.129379
C8    C     C_R   0.575607 0.583787 0.934928 0.004304
C9    C     C_R   0.432249 0.410270 0.925422 0.188228
C10   C     C_3   0.291412 0.387233 0.916095 -0.486043
C11   C     C_3   0.291595 0.387037 0.069125 -0.487733
C12   C     C_3   0.958103 0.600864 0.436578 -0.190046
C13   C     C_R   0.495338 0.739956 0.500136 0.901914
C14   C     C_R   0.742489 0.499931 0.501439 0.929617
C15   C     C_3   0.042196 0.397244 0.564214 -0.220023
C16   C     C_3   0.953126 0.395338 0.438437 0.174623
C17   C     C_3   0.877549 0.499079 0.503614 -0.030846
C18   C     C_3   0.964273 0.501636 0.629837 -0.139692
C19   C     C_3   0.047391 0.603479 0.562686 -0.140780
C20   C     C_2   0.658908 0.685260 0.880283 0.897707
C21   C     C_3   0.035847 0.496529 0.370726 -0.159903
C22   C     C_3   0.122402 0.499153 0.496928 -0.021670
C23   C     C_R   0.434869 0.064705 0.609423 0.079908
C24   C     C_R   0.471555 0.128386 0.494426 -0.094070
C25   C     C_R   0.481780 0.062623 0.372121 -0.180909
C26   C     C_R   0.482749 0.933509 0.373085 -0.170904
C27   C     C_R   0.473113 0.870990 0.496348 -0.141682
H1    H     H_    0.580332 0.898198 0.761453 0.176883
H2    H     H_    0.931206 0.503775 0.735303 0.175056
H3    H     H_    0.090903 0.688448 0.612906 0.165413
H4    H     H_    0.919195 0.683846 0.385226 0.163860
H5    H     H_    0.067717 0.494304 0.264992 0.157178
H6    H     H_    0.500264 0.109877 0.278363 0.188475
H7    H     H_    0.501711 0.884493 0.279587 0.200990
H8    H     H_    0.754189 0.850093 0.917750 0.344564
H9    H     H_    0.410010 0.117894 0.818882 0.219742
H10   H     H_    0.579155 0.120534 0.762236 0.202569
H11   H     H_    0.633337 0.646256 0.138848 0.195934
H12   H     H_    0.239852 0.467322 0.872220 0.233493
H13   H     H_    0.265501 0.294396 0.869715 0.199588
H14   H     H_    0.240539 0.467173 0.113072 0.218977
H15   H     H_    0.266232 0.293992 0.111267 0.213263
H16   H     H_    0.081258 0.314253 0.615442 0.157749
I1    I     I_    0.874671 0.229388 0.341795 -0.390187
I2    I     I_    0.343572 0.852482 0.882553 -0.380647
N1    N     N_R   0.499140 0.499140 0.142800 -0.120333
N2    N     N_R   0.499140 0.499180 0.857150 -0.135017
O1    O     O_R   0.500020 0.316790 0.614690 -0.624927
O2    O     O_R   0.692480 0.789665 0.962120 -0.829467
O3    O     O_R   0.500000 0.316760 0.385350 -0.615975
O4    O     O_R   0.313960 0.499990 0.614650 -0.622591
O5    O     O_R   0.313940 0.499950 0.385310 -0.626863
O6    O     O_R   0.500000 0.683240 0.614650 -0.578814
O7    O     O_R   0.499980 0.683210 0.385310 -0.628718
O8    O     O_R   0.686060 0.500050 0.614690 -0.574075
O9    O     O_R   0.686040 0.500010 0.385350 -0.616606
O10   O     O_2   0.703790 0.677831 0.769006 -0.609493
Zn1   Zn    Zn3+2 0.500010 0.500020 0.653130 0.990383
Zn2   Zn    Zn3+2 0.499990 0.499980 0.346870 0.969025

loop_
_geom_bond_atom_site_label_1
_geom_bond_atom_site_label_2
_ccdc_geom_bond_type
C12   C17   S    
H8    O2    S    
C15   C18   S    
C14   O9    A    
C23   C24   A    
C7    N1    A    
C1    O1    A    
O1    Zn1   S    
C16   C21   S    
O5    Zn2   S    
C5    H10   S    
N1    Zn2   S    
C4    C22   S    
C9    C10   S    
C16   I1    S    
C5    C23   S    
O9    Zn2   S    
O6    Zn1   S    
C2    C27   A    
C6    C9    A    
C2    C3    S    
C25   C26   A    
C8    N2    A    
C15   H16   S    
C7    C8    A    
O4    Zn1   S    
C8    C20   S    
C21   C22   S    
N2    Zn1   S    
C14   C17   S    
C26   C27   A    
C20   O2    S    
C4    O5    A    
O3    Zn2   S    
C12   C19   S    
C10   H13   S    
C3    H1    S    
C7    H11   S    
C26   H7    S    
C14   O8    A    
C13   O6    A    
O7    Zn2   S    
C13   O7    A    
C12   H4    S    
C21   H5    S    
C9    N2    A    
C16   C17   S    
C10   C11   S    
C4    O4    A    
C15   C16   S    
C5    H9    S    
C6    C11   S    
C19   C22   S    
C24   C25   A    
C1    C24   S    
C17   C18   S    
C18   C19   S    
C1    O3    A    
O8    Zn1   S    
C2    C23   A    
C18   H2    S    
C13   C27   S    
C11   H15   S    
C6    N1    A    
C20   O10   D    
C19   H3    S    
C12   C21   S    
C3    I2    S    
C15   C22   S    
C11   H14   S    
C25   H6    S    
C10   H12   S    
C3    C5    S    
