data_mof_unit_4163.cif
_audit_creation_date              2012-10-26T19:21:09-0400
_audit_creation_method            fapswitch 2.2
_symmetry_space_group_name_H-M    P1
_symmetry_Int_Tables_number       1
_space_group_crystal_system       triclinic
_cell_length_a                    9.945362
_cell_length_b                    11.075842
_cell_length_c                    13.40469
_cell_angle_alpha                 95.443085
_cell_angle_beta                  81.572062
_cell_angle_gamma                 112.092023
_cell_volume                      1352.11485328

loop_
_atom_site_label
_atom_site_type_symbol
_atom_type_description
_atom_site_fract_x
_atom_site_fract_y
_atom_site_fract_z
_atom_type_partial_charge
C1    C     C_R   0.557543 0.745767 0.507840 0.541024
C2    C     C_R   0.378083 0.489925 0.800303 -0.032927
C3    C     C_2   0.591645 0.886430 0.513204 -0.023704
C4    C     C_R   0.424139 0.493808 0.690597 0.530932
C5    C     C_2   0.484807 0.930206 0.505521 -0.148298
C6    C     C_2   0.406808 0.113387 0.489962 -0.027026
C7    C     C_2   0.508856 0.069173 0.508575 -0.138155
C8    C     C_2   0.919544 0.487934 0.490065 0.336728
C9    C     C_2   0.073017 0.506242 0.509179 0.080032
C10   C     C_R   0.442012 0.254181 0.493096 0.558668
C11   C     C_R   0.579027 0.517834 0.310083 0.583407
C12   C     C_R   0.441267 0.510877 0.972790 0.008589
C13   C     C_R   0.806147 0.676541 0.070345 0.008831
C14   C     C_R   0.629802 0.549323 0.203280 0.011632
C15   C     C_R   0.232215 0.416781 0.834792 -0.084417
C16   C     C_R   0.189119 0.394235 0.936818 0.246435
C17   C     C_R   0.292376 0.438018 0.004950 -0.069058
C18   C     C_1   0.263412 0.026214 0.466177 0.223235
C19   C     C_1   0.739839 0.973992 0.525622 0.239105
C20   C     C_1   0.128671 0.587571 0.596053 0.223132
C21   C     C_1   0.130779 0.398432 0.358388 0.465879
C22   C     C_1   0.954054 0.761930 0.036393 0.286519
C23   C     C_R   0.480255 0.547230 0.870933 0.021874
C24   C     C_R   0.552193 0.550521 0.038644 0.023597
C25   C     C_R   0.695622 0.637294 0.005288 0.006630
C26   C     C_R   0.724907 0.684951 0.908079 -0.109954
C27   C     C_R   0.619167 0.641697 0.842698 -0.089337
C28   C     C_R   0.524675 0.504272 0.136189 -0.151060
C29   C     C_R   0.772848 0.634498 0.169849 0.231346
Cl1   Cl    Cl    0.910734 0.695666 0.251840 -0.493816
Cl2   Cl    Cl    0.833479 0.370414 0.397689 -0.502186
Cl3   Cl    Cl    0.005256 0.305422 0.979179 -0.523873
Cu1   Cu    Cu3+1 0.362000 0.479240 0.482530 1.019487
Cu2   Cu    Cu3+1 0.638000 0.520760 0.517470 1.081533
H1    H     H_    0.375623 0.860979 0.496011 0.173544
H2    H     H_    0.894220 0.621365 0.597270 0.188452
H3    H     H_    0.830414 0.755971 0.881161 0.136319
H4    H     H_    0.420476 0.432366 0.162694 0.142119
H5    H     H_    0.151927 0.374543 0.782249 0.171632
H6    H     H_    0.251641 0.416763 0.082730 0.167297
H7    H     H_    0.647240 0.686269 0.770431 0.144883
H8    H     H_    0.614543 0.138082 0.526212 0.192728
N1    N     N_2   0.845330 0.551960 0.543750 -0.325509
N2    N     N_2   0.154690 0.448120 0.456210 -0.288113
N3    N     N_1   0.149083 0.956683 0.447189 -0.202861
N4    N     N_1   0.858020 0.043843 0.535492 -0.232576
N5    N     N_1   0.172106 0.653341 0.665668 -0.292844
N6    N     N_1   0.112981 0.357035 0.276711 -0.224884
N7    N     N_1   0.072105 0.829974 0.009303 -0.218323
O1    O     O_R   0.426290 0.668220 0.490680 -0.512078
O2    O     O_R   0.659360 0.703290 0.520190 -0.483584
O3    O     O_R   0.326580 0.473880 0.629020 -0.497064
O4    O     O_R   0.559660 0.508940 0.658530 -0.512830
O5    O     O_R   0.340640 0.296710 0.479810 -0.491743
O6    O     O_R   0.573710 0.331780 0.509320 -0.455111
O7    O     O_R   0.440340 0.491060 0.341470 -0.532429
O8    O     O_R   0.673420 0.526120 0.370980 -0.381830

loop_
_geom_bond_atom_site_label_1
_geom_bond_atom_site_label_2
_ccdc_geom_bond_type
C12   C17   A    
C6    C10   S    
Cu2   O8    S    
C2    C4    S    
C26   H3    S    
C3    C19   S    
C6    C7    D    
C2    C15   A    
C23   C27   A    
C4    O4    A    
C16   Cl3   S    
C21   N2    S    
C1    O1    A    
C27   H7    S    
C9    C20   S    
C8    N1    D    
C28   H4    S    
C21   N6    T    
C15   H5    S    
Cu1   O7    S    
Cu1   Cu2   S    
Cu1   O1    S    
C19   N4    T    
Cu2   O6    S    
Cu1   O3    S    
C10   O6    A    
C1    O2    A    
C12   C23   A    
C13   C25   A    
C26   C27   A    
C29   Cl1   S    
C4    O3    A    
C22   N7    T    
C10   O5    A    
C5    H1    S    
C13   C29   A    
C8    Cl2   S    
C13   C22   S    
C1    C3    S    
C6    C18   S    
C11   C14   S    
C20   N5    T    
C11   O7    A    
C14   C29   A    
C15   C16   A    
C18   N3    T    
C3    C5    D    
Cu1   O5    S    
C24   C25   A    
Cu2   O4    S    
C7    H8    S    
C2    C23   A    
C5    C7    S    
C12   C24   A    
C16   C17   A    
H2    N1    S    
C14   C28   A    
C25   C26   A    
C11   O8    A    
Cu1   N2    S    
Cu2   O2    S    
Cu2   N1    S    
C24   C28   A    
C8    C9    S    
C9    N2    D    
C17   H6    S    
