data_mof_unit_3913.cif
_audit_creation_date              2012-12-10T17:09:33-0500
_audit_creation_method            fapswitch 2.2
_symmetry_space_group_name_H-M    P1
_symmetry_Int_Tables_number       1
_space_group_crystal_system       triclinic
_cell_length_a                    10.515649
_cell_length_b                    10.70527
_cell_length_c                    10.081907
_cell_angle_alpha                 90.630477
_cell_angle_beta                  91.038698
_cell_angle_gamma                 90.892625
_cell_volume                      1134.55261445

loop_
_atom_site_label
_atom_site_type_symbol
_atom_type_description
_atom_site_fract_x
_atom_site_fract_y
_atom_site_fract_z
_atom_type_partial_charge
C1    C     C_R   0.499843 0.262544 0.498896 0.988946
C2    C     C_2   0.571933 0.573826 0.074391 0.305125
C3    C     C_R   0.257840 0.500287 0.498667 0.979398
C4    C     C_R   0.509050 0.736770 0.500984 0.957904
C5    C     C_R   0.742379 0.499767 0.501251 0.922010
C6    C     C_3   0.042416 0.392090 0.547415 0.360052
C7    C     C_3   0.953869 0.404162 0.424781 -0.173633
C8    C     C_3   0.877328 0.499851 0.503446 -0.154474
C9    C     C_3   0.965380 0.487552 0.624388 0.141496
C10   C     C_3   0.046021 0.596174 0.573377 0.351078
C11   C     C_3   0.390537 0.073910 0.706322 -0.627977
C12   C     C_3   0.957399 0.609135 0.450783 -0.224333
C13   C     C_3   0.798516 0.615677 0.096249 -0.771428
C14   C     C_3   0.348299 0.339934 0.111099 -0.658868
C15   C     C_3   0.021884 0.461348 0.859647 -0.683818
C16   C     C_3   0.036835 0.513287 0.372704 -0.246459
C17   C     C_3   0.123229 0.500660 0.496087 -0.176506
C18   C     C_2   0.542616 0.931952 0.393468 -0.190998
C19   C     C_2   0.539187 0.866590 0.504515 -0.377717
C20   C     C_2   0.555441 0.065646 0.403948 0.341850
C21   C     C_2   0.486165 0.129959 0.492966 -0.070251
C22   C     C_2   0.550529 0.588348 0.926880 -0.129106
Cl1   Cl    Cl    0.100511 0.245652 0.602263 -0.606142
Cl2   Cl    Cl    0.110397 0.725814 0.666308 -0.609388
Cl3   Cl    Cl    0.674412 0.134291 0.304833 -0.608889
H1    H     H_    0.912130 0.325845 0.364497 0.217094
H2    H     H_    0.314773 0.132592 0.748160 0.283286
H3    H     H_    0.484478 0.109388 0.744040 0.225892
H4    H     H_    0.664132 0.666648 0.233439 0.277648
H5    H     H_    0.868617 0.678691 0.147973 0.248567
H6    H     H_    0.809870 0.627466 0.988100 0.244457
H7    H     H_    0.818604 0.517741 0.124377 0.254591
H8    H     H_    0.313694 0.529885 0.122348 0.239948
H9    H     H_    0.265738 0.316231 0.044866 0.211244
H10   H     H_    0.320327 0.322678 0.214798 0.267255
H11   H     H_    0.428301 0.278320 0.084737 0.244876
H12   H     H_    0.585511 0.672880 0.880603 0.167454
H13   H     H_    0.857262 0.539932 0.785169 0.244320
H14   H     H_    0.978483 0.434696 0.954970 0.224362
H15   H     H_    0.074465 0.551195 0.874652 0.260963
H16   H     H_    0.089528 0.387601 0.831941 0.279780
H17   H     H_    0.488905 0.414950 0.893863 0.207767
H18   H     H_    0.918248 0.697540 0.411951 0.183046
H19   H     H_    0.070143 0.523700 0.269464 0.179775
H20   H     H_    0.534691 0.888686 0.295595 0.196392
H21   H     H_    0.558003 0.910397 0.600723 0.184761
H22   H     H_    0.331578 0.002444 0.518022 0.271981
H23   H     H_    0.377133 0.976839 0.741928 0.237010
N1    N     N_2   0.501360 0.501330 0.852150 -0.197478
N2    N     N_2   0.501400 0.501360 0.147810 -0.058106
N3    N     N_2   0.381839 0.075490 0.562613 -0.302322
N4    N     N_2   0.671326 0.648310 0.134062 -0.313458
N5    N     N_2   0.383796 0.469527 0.093607 -0.276537
N6    N     N_2   0.922761 0.473912 0.759434 -0.267083
O1    O     O_R   0.499980 0.319060 0.613040 -0.615152
O2    O     O_R   0.500020 0.319100 0.386900 -0.589762
O3    O     O_R   0.313930 0.499950 0.613050 -0.573062
O4    O     O_R   0.313970 0.499990 0.386910 -0.643748
O5    O     O_R   0.499980 0.680900 0.613100 -0.606043
O6    O     O_R   0.500020 0.680940 0.386960 -0.650536
O7    O     O_R   0.686030 0.500010 0.613090 -0.630622
O8    O     O_R   0.686070 0.500050 0.386950 -0.616545
Zn1   Zn    Zn3+2 0.499970 0.499970 0.650990 0.984650
Zn2   Zn    Zn3+2 0.500030 0.500030 0.349010 0.965469

loop_
_geom_bond_atom_site_label_1
_geom_bond_atom_site_label_2
_ccdc_geom_bond_type
C14   H9    S    
C5    C8    S    
O8    Zn2   S    
C18   H20   S    
C1    C21   S    
C6    C7    S    
N1    Zn1   S    
C13   N4    S    
N2    Zn2   S    
C9    C10   S    
C16   H19   S    
C13   H7    S    
O5    Zn1   S    
H13   N6    S    
C11   H2    S    
C8    C12   S    
C4    O6    A    
C6    C9    S    
O2    Zn2   S    
C1    O1    A    
C19   H21   S    
C5    O7    A    
C7    C8    S    
C2    C22   S    
O4    Zn2   S    
C22   H12   S    
C15   H14   S    
C11   H23   S    
C16   C17   S    
C7    H1    S    
C2    N4    S    
C11   H3    S    
C22   N1    D    
C6    Cl1   S    
C10   C12   S    
C4    O5    A    
C7    C16   S    
C1    O2    A    
C5    O8    A    
O3    Zn1   S    
C12   H18   S    
C18   C20   S    
C2    N2    D    
H8    N5    S    
C15   H15   S    
N2    N5    S    
C11   N3    S    
C20   Cl3   S    
H17   N1    S    
C3    O4    A    
C3    O3    A    
C13   H5    S    
C21   N3    S    
C14   N5    S    
C20   C21   D    
C15   H16   S    
C15   N6    S    
C14   H10   S    
O7    Zn1   S    
C6    C17   S    
C18   C19   D    
C14   H11   S    
H22   N3    S    
C9    N6    S    
C10   C17   S    
C10   Cl2   S    
C4    C19   S    
C13   H6    S    
C3    C17   S    
C12   C16   S    
C8    C9    S    
O6    Zn2   S    
H4    N4    S    
O1    Zn1   S    
