data_mof_unit_455.cif
_audit_creation_date              2012-12-10T18:57:43-0500
_audit_creation_method            fapswitch 2.2
_symmetry_space_group_name_H-M    P1
_symmetry_Int_Tables_number       1
_space_group_crystal_system       triclinic
_cell_length_a                    10.924304
_cell_length_b                    10.82284
_cell_length_c                    9.634295
_cell_angle_alpha                 89.364485
_cell_angle_beta                  89.752122
_cell_angle_gamma                 92.113673
_cell_volume                      1138.22410163

loop_
_atom_site_label
_atom_site_type_symbol
_atom_type_description
_atom_site_fract_x
_atom_site_fract_y
_atom_site_fract_z
_atom_type_partial_charge
C1    C     C_R   0.510195 0.263334 0.500654 0.836347
C2    C     C_R   0.525056 0.129997 0.502294 -0.154064
C3    C     C_R   0.561904 0.065976 0.382146 0.162913
C4    C     C_R   0.545226 0.937335 0.379083 -0.195287
C5    C     C_R   0.507096 0.871259 0.498234 -0.142791
C6    C     C_R   0.487356 0.934375 0.620976 0.057025
C7    C     C_3   0.558624 0.918674 0.750932 -0.399219
C8    C     C_3   0.571280 0.057846 0.754176 -0.082235
C9    C     C_R   0.572111 0.583314 0.071902 0.160763
C10   C     C_R   0.415267 0.430525 0.075544 0.001468
C11   C     C_R   0.411442 0.435461 0.927069 -0.005932
C12   C     C_R   0.265528 0.499430 0.500391 0.874218
C13   C     C_R   0.577269 0.577324 0.926288 0.181050
C14   C     C_3   0.714519 0.590940 0.923207 -0.295126
C15   C     C_3   0.707581 0.604573 0.080946 -0.283684
C16   C     C_R   0.502444 0.737428 0.499312 0.815488
C17   C     C_R   0.734564 0.502476 0.500012 0.835677
C18   C     C_2   0.934542 0.501674 0.387876 -0.100547
C19   C     C_2   0.866981 0.513768 0.502513 -0.304551
C20   C     C_2   0.067868 0.516490 0.389297 -0.097938
C21   C     C_2   0.133090 0.492832 0.503034 -0.311286
C22   C     C_R   0.494775 0.062942 0.623930 0.141505
Cu1   Cu    Cu3+1 0.499990 0.499980 0.640670 0.999383
Cu2   Cu    Cu3+1 0.500010 0.500020 0.359330 0.981918
H1    H     H_    0.892186 0.482387 0.289000 0.179447
H2    H     H_    0.667225 0.093396 0.737570 0.170268
H3    H     H_    0.747041 0.675087 0.864556 0.152704
H4    H     H_    0.751148 0.529709 0.139441 0.160770
H5    H     H_    0.908690 0.537352 0.600985 0.180184
H6    H     H_    0.112818 0.543508 0.292471 0.221847
H7    H     H_    0.089597 0.463691 0.599823 0.171169
H8    H     H_    0.569528 0.888143 0.286394 0.198754
H9    H     H_    0.501283 0.875351 0.835303 0.219956
H10   H     H_    0.647431 0.873979 0.733645 0.185540
N1    N     N_R   0.500780 0.500930 0.147930 -0.238366
N2    N     N_R   0.500780 0.500890 0.852020 -0.204473
O1    O     O_R   0.500000 0.319640 0.618810 -0.536363
O2    O     O_R   0.500010 0.319680 0.381230 -0.567955
O3    O     O_R   0.321940 0.499980 0.618760 -0.569199
O4    O     O_R   0.321950 0.500020 0.381180 -0.568868
O5    O     O_R   0.499990 0.680320 0.618770 -0.588266
O6    O     O_R   0.500000 0.680360 0.381190 -0.583034
O7    O     O_R   0.678050 0.499980 0.618820 -0.581536
O8    O     O_R   0.678060 0.500020 0.381240 -0.586786
C23   C     C_2   0.326650 0.345612 0.148343 0.906152
O9    O     O_2   0.222220 0.377700 0.168817 -0.583612
O10   O     O_R   0.357092 0.223890 0.176701 -0.785070
H11   H     H_    0.287465 0.173606 0.222152 0.334046
C24   C     C_2   0.304715 0.375151 0.857808 0.882011
O11   O     O_2   0.316064 0.282831 0.788183 -0.604250
O12   O     O_R   0.188682 0.422393 0.877925 -0.715530
H12   H     H_    0.121726 0.371126 0.830813 0.345492
C25   C     C_2   0.782101 0.476464 0.886300 0.899707
O13   O     O_2   0.893396 0.483977 0.872664 -0.602275
O14   O     O_R   0.719642 0.362225 0.872460 -0.758308
H13   H     H_    0.776302 0.293366 0.848697 0.318668
C26   C     C_2   0.742521 0.732326 0.131627 0.878709
O15   O     O_2   0.705542 0.823985 0.071813 -0.641877
O16   O     O_R   0.817242 0.745308 0.248219 -0.759912
H14   H     H_    0.833492 0.835016 0.273812 0.327582
C27   C     C_3   0.633636 0.129444 0.265496 -0.769291
H15   H     H_    0.706744 0.191403 0.309099 0.213775
H16   H     H_    0.679301 0.061577 0.199004 0.234816
H17   H     H_    0.574182 0.184057 0.198000 0.285533
C28   C     C_3   0.511545 0.111140 0.882722 -0.664810
H18   H     H_    0.523058 0.213031 0.880401 0.273118
H19   H     H_    0.412713 0.083496 0.889575 0.259835
H20   H     H_    0.557927 0.076363 0.976697 0.234605

loop_
_geom_bond_atom_site_label_1
_geom_bond_atom_site_label_2
_ccdc_geom_bond_type
C2    C22   A    
C27   H17   S    
C8    C22   S    
O14   H13   S    
C17   O7    A    
O16   H14   S    
C12   O4    A    
C10   N1    A    
C11   C24   S    
Cu1   O1    S    
C14   H3    S    
Cu2   O6    S    
Cu2   O2    S    
O10   H11   S    
Cu1   O5    S    
C1    O1    A    
Cu1   Cu2   S    
C28   H20   S    
C16   O5    A    
C27   H15   S    
C10   C23   S    
C25   O14   S    
C2    C3    A    
C26   O15   D    
C17   O8    A    
C23   O9    D    
C8    C28   S    
C20   H6    S    
C25   O13   D    
C21   H7    S    
C15   H4    S    
C4    H8    S    
C18   H1    S    
C1    O2    A    
C12   O3    A    
C8    H2    S    
C15   C26   S    
C1    C2    S    
C11   N2    A    
C17   C19   S    
C24   O11   D    
C6    C7    S    
C18   C20   S    
C3    C27   S    
C9    C15   S    
C5    C6    A    
Cu2   O8    S    
C7    H10   S    
Cu1   O3    S    
C26   O16   S    
Cu2   N1    S    
C10   C11   A    
C7    H9    S    
O12   H12   S    
Cu1   N2    S    
C16   O6    A    
C7    C8    S    
C14   C25   S    
Cu1   O7    S    
C20   C21   D    
C13   N2    A    
C9    N1    A    
C28   H18   S    
C23   O10   S    
C27   H16   S    
C24   O12   S    
C9    C13   A    
C14   C15   S    
C18   C19   D    
C5    C16   S    
C6    C22   A    
Cu2   O4    S    
C13   C14   S    
C12   C21   S    
C3    C4    A    
C4    C5    A    
C28   H19   S    
C19   H5    S    
