data_mof_unit_533.cif
_audit_creation_date              2012-12-11T14:21:24-0500
_audit_creation_method            fapswitch 2.2
_symmetry_space_group_name_H-M    P1
_symmetry_Int_Tables_number       1
_space_group_crystal_system       triclinic
_cell_length_a                    11.535136
_cell_length_b                    11.539756
_cell_length_c                    19.533987
_cell_angle_alpha                 91.050306
_cell_angle_beta                  90.380824
_cell_angle_gamma                 60.727354
_cell_volume                      2267.79089551

loop_
_atom_site_label
_atom_site_type_symbol
_atom_type_description
_atom_site_fract_x
_atom_site_fract_y
_atom_site_fract_z
_atom_type_partial_charge
C1    C     C_R   0.640471 0.117228 0.599121 0.552575
C2    C     C_1   0.653153 0.149761 0.668566 0.007144
C3    C     C_R   0.659132 0.681510 0.188383 0.055282
C4    C     C_R   0.612136 0.746455 0.598656 0.564102
C5    C     C_R   0.530054 0.778410 0.206490 -0.059873
C6    C     C_R   0.497136 0.798494 0.276313 -0.063016
C7    C     C_R   0.730671 0.658516 0.305133 -0.103656
C8    C     C_R   0.754865 0.615532 0.238339 -0.153954
C9    C     C_R   0.429133 0.835676 0.156766 -0.123877
C10   C     C_R   0.298970 0.875334 0.174695 0.415901
C11   C     C_R   0.268564 0.868379 0.242536 0.425631
C12   C     C_1   0.640968 0.704580 0.668011 0.005181
C13   C     C_R   0.363005 0.842674 0.293869 -0.133833
C14   C     C_R   0.603032 0.754568 0.324498 0.041477
C15   C     C_R   0.055186 0.259380 0.206410 -0.000370
C16   C     C_R   0.241078 0.145190 0.598123 0.552399
C17   C     C_R   0.123021 0.323464 0.234931 -0.082102
C18   C     C_R   0.209285 0.262985 0.289404 -0.056878
C19   C     C_R   0.094420 0.137083 0.311497 -0.088015
C20   C     C_R   0.033354 0.173491 0.247522 0.393582
C21   C     C_R   0.109351 0.444446 0.210226 -0.160718
C22   C     C_R   0.197285 0.490231 0.228791 0.268963
C23   C     C_1   0.126511 0.198469 0.859304 0.005841
C24   C     C_R   0.293740 0.419621 0.276616 0.402178
C25   C     C_R   0.305752 0.302728 0.303036 -0.096266
C26   C     C_R   0.190504 0.171736 0.330534 -0.063812
C27   C     C_R   0.663877 0.191587 0.192640 -0.018231
C28   C     C_R   0.645236 0.105604 0.400379 0.573556
C29   C     C_R   0.703416 0.060818 0.210455 -0.064705
C30   C     C_R   0.734755 0.023171 0.279593 -0.070552
C31   C     C_R   0.631111 0.259611 0.311841 0.397725
C32   C     C_R   0.628976 0.290332 0.243324 -0.061649
C33   C     C_R   0.731071 0.964131 0.158512 0.424107
C34   C     C_1   0.171431 0.170336 0.727624 -0.029937
C35   C     C_R   0.823827 0.834031 0.169807 0.377419
C36   C     C_R   0.874366 0.796081 0.234775 -0.085111
C37   C     C_R   0.828541 0.884724 0.290414 0.242737
C38   C     C_R   0.676293 0.128382 0.330821 0.001577
C39   C     C_R   0.081647 0.231161 0.928623 0.552577
C40   C     C_R   0.581906 0.798849 0.395070 0.550488
C41   C     C_R   0.684182 0.604064 0.929504 0.566665
C42   C     C_R   0.708628 0.206401 0.930279 0.571107
C43   C     C_R   0.020241 0.273438 0.132990 0.565864
C44   C     C_R   0.682356 0.614672 0.123694 0.578482
C45   C     C_1   0.149995 0.182051 0.798900 -0.029457
C46   C     C_R   0.707579 0.213542 0.126890 0.631928
C47   C     C_R   0.252562 0.137530 0.398428 0.520944
C48   C     C_1   0.670664 0.646086 0.860190 0.013633
C49   C     C_1   0.654630 0.684134 0.728454 -0.030300
C50   C     C_1   0.663554 0.666602 0.799767 -0.028442
C51   C     C_3   0.176179 0.622016 0.135486 0.037978
C52   C     C_3   0.314944 0.551240 0.103710 -0.255663
C53   C     C_3   0.307691 0.577522 0.027073 -0.433561
C54   C     C_3   0.005256 0.819514 0.362666 0.053361
C55   C     C_3   0.057931 0.761945 0.433138 -0.278797
C56   C     C_1   0.195299 0.161086 0.667285 0.003835
C57   C     C_3   0.194081 0.749431 0.446437 -0.432283
C58   C     C_1   0.678948 0.190291 0.860919 0.010286
C59   C     C_1   0.658786 0.167023 0.729060 -0.030123
C60   C     C_1   0.665960 0.180110 0.800409 -0.030168
Cr1   Cr    Cr6+3 0.404720 0.198220 0.499960 1.063456
Cr2   Cr    Cr6+3 0.698290 0.897110 0.500380 1.040406
Cr3   Cr    Cr6+3 0.396970 0.904720 0.499610 1.005343
Cr4   Cr    Cr6+3 0.926180 0.151990 0.028120 1.160598
Cr5   Cr    Cr6+3 0.921330 0.451820 0.027470 1.068862
Cr6   Cr    Cr6+3 0.626260 0.446870 0.028710 0.982827
F1    F     F_    0.369154 0.471038 0.301088 -0.589465
F2    F     F_    0.596588 0.356737 0.360452 -0.568418
F3    F     F_    0.677679 0.998103 0.094881 -0.601907
F4    F     F_    0.867871 0.745709 0.116902 -0.632890
F5    F     F_    0.205547 0.907508 0.125407 -0.601587
F6    F     F_    0.147973 0.883841 0.258218 -0.613515
F7    F     F_    0.953128 0.125250 0.225950 -0.597409
H1    H     H_    0.810081 0.611368 0.342105 0.164342
H2    H     H_    0.129015 0.729413 0.123914 0.249983
H3    H     H_    0.113336 0.585807 0.110200 0.164533
H4    H     H_    0.377744 0.587473 0.129139 0.221821
H5    H     H_    0.360662 0.442523 0.111676 0.166301
H6    H     H_    0.240984 0.546239 0.001376 0.144876
H7    H     H_    0.407603 0.520172 0.003862 0.202239
H8    H     H_    0.270228 0.684835 0.018171 0.178089
H9    H     H_    0.996994 0.919569 0.360248 0.191157
H10   H     H_    0.076899 0.751039 0.323661 0.234647
H11   H     H_    0.987395 0.827358 0.473367 0.188221
H12   H     H_    0.388794 0.246181 0.335360 0.168188
H13   H     H_    0.066167 0.662074 0.436252 0.176817
H14   H     H_    0.266725 0.683446 0.407137 0.226468
H15   H     H_    0.230281 0.706142 0.497631 0.156108
H16   H     H_    0.187166 0.848810 0.445429 0.152755
H17   H     H_    0.605264 0.390344 0.230023 0.176997
H18   H     H_    0.944823 0.694295 0.244079 0.147350
H19   H     H_    0.452650 0.833391 0.102985 0.169829
H20   H     H_    0.847171 0.528056 0.226109 0.103564
H21   H     H_    0.331386 0.844546 0.345609 0.173158
H22   H     H_    0.071824 0.076743 0.344712 0.153518
H23   H     H_    0.026043 0.507996 0.178961 0.171421
O1    O     O_R   0.267740 0.231960 0.575440 -0.499725
O2    O     O_R   0.596130 0.579390 0.952730 -0.522528
O3    O     O_R   0.639060 0.321160 0.958670 -0.513154
O4    O     O_R   0.527280 0.186640 0.570530 -0.483678
O5    O     O_R   0.821240 0.124200 0.104370 -0.395079
O6    O     O_R   0.036890 0.167040 0.097840 -0.378753
O7    O     O_R   0.056180 0.349610 0.102880 -0.542412
O8    O     O_R   0.797660 0.564870 0.097950 -0.458442
O9    O     O_R   0.595880 0.584250 0.104270 -0.552118
O10   O     O_R   0.638830 0.325670 0.099150 -0.541879
O11   O     O_3   0.824590 0.350230 0.028100 -0.314085
O12   O     O_R   0.685970 0.784660 0.430010 -0.468063
O13   O     O_R   0.728090 0.003450 0.576380 -0.515036
O14   O     O_R   0.682970 0.789190 0.570490 -0.491327
O15   O     O_R   0.499290 0.771880 0.575530 -0.497563
O16   O     O_R   0.285330 0.030870 0.569730 -0.495835
O17   O     O_R   0.270980 0.227080 0.423890 -0.508119
O18   O     O_R   0.530280 0.182120 0.430050 -0.474239
O19   O     O_R   0.731330 0.998570 0.424830 -0.474403
O20   O     O_3   0.182488 0.611010 0.207665 -0.530192
O21   O     O_3   0.879570 0.829416 0.353049 -0.549215
O22   O     O_R   0.502530 0.767000 0.423990 -0.503407
O23   O     O_R   0.288330 0.026350 0.429250 -0.543873
O24   O     O_3   0.499990 0.000020 0.499980 -0.295461
O25   O     O_R   0.821500 0.119340 0.952830 -0.481331
O26   O     O_R   0.037130 0.162530 0.957360 -0.489717
O27   O     O_R   0.056440 0.344740 0.951340 -0.505809
O28   O     O_R   0.797900 0.560360 0.957470 -0.472415

loop_
_geom_bond_atom_site_label_1
_geom_bond_atom_site_label_2
_ccdc_geom_bond_type
C40   O22   A    
C34   C56   T    
C23   C45   T    
C27   C29   A    
C19   C20   A    
C18   C26   A    
Cr6   O11   S    
C42   C58   S    
C12   C49   T    
C44   O8    A    
C7    C8    A    
C44   O9    A    
Cr4   O6    S    
C39   O26   A    
C57   H16   S    
C41   O28   A    
C36   C37   A    
C53   H6    S    
C51   H2    S    
C5    C6    A    
Cr4   O26   S    
C16   O1    A    
Cr2   O12   S    
C47   O23   A    
C58   C60   T    
Cr4   O25   S    
C29   C33   A    
C39   O27   A    
C30   C38   A    
C53   H8    S    
C1    C2    S    
Cr5   O28   S    
Cr3   O16   S    
C19   C26   A    
C9    H19   S    
C24   F1    S    
C1    O13   A    
C7    C14   A    
C32   H17   S    
C35   C36   A    
C35   F4    S    
C4    C12   S    
C9    C10   A    
Cr2   O24   S    
C33   F3    S    
C40   O12   A    
C10   F5    S    
C22   O20   S    
C59   C60   S    
C21   C22   A    
Cr1   O24   S    
C31   F2    S    
C18   C25   A    
Cr6   O10   S    
C52   H5    S    
C1    O4    A    
C54   H10   S    
C7    H1    S    
C15   C20   A    
C46   O5    A    
C3    C44   S    
C51   C52   S    
C53   H7    S    
C24   C25   A    
C3    C8    A    
Cr3   O22   S    
C2    C59   T    
Cr4   O5    S    
C17   C21   A    
C57   H14   S    
C30   C37   A    
Cr6   O3    S    
C16   C56   S    
C5    C9    A    
C29   C30   A    
C28   O19   A    
C6    C14   A    
Cr3   O23   S    
C31   C32   A    
Cr2   O14   S    
C28   C38   S    
C25   H12   S    
C17   C18   A    
C34   C45   S    
C51   H3    S    
C28   O18   A    
C26   C47   S    
C27   C46   S    
C4    O15   A    
C55   C57   S    
Cr1   O17   S    
C22   C24   A    
Cr1   O4    S    
Cr5   O7    S    
Cr6   O9    S    
C52   H4    S    
C54   H9    S    
C19   H22   S    
C52   C53   S    
C16   O16   A    
Cr4   O11   S    
C47   O17   A    
C4    O14   A    
C54   C55   S    
C27   C32   A    
C11   F6    S    
Cr1   O1    S    
C8    H20   S    
C3    C5    A    
C36   H18   S    
C57   H15   S    
C15   C17   A    
C21   H23   S    
C51   O20   S    
C31   C38   A    
C13   H21   S    
Cr6   O2    S    
C55   H13   S    
C43   O6    A    
C15   C43   S    
Cr2   O19   S    
C42   O3    A    
C6    C13   A    
Cr3   O24   S    
C11   C13   A    
Cr2   O13   S    
C23   C39   S    
C46   O10   A    
C48   C50   T    
C33   C35   A    
C41   C48   S    
C20   F7    S    
Cr5   O27   S    
Cr3   O15   S    
C43   O7    A    
C10   C11   A    
C14   C40   S    
C37   O21   S    
C49   C50   S    
C54   O21   S    
Cr1   O18   S    
C41   O2    A    
Cr5   O8    S    
C55   H11   S    
Cr5   O11   S    
C42   O25   A    
