data_mof_unit_2991.cif
_audit_creation_date              2012-12-10T17:32:14-0500
_audit_creation_method            fapswitch 2.2
_symmetry_space_group_name_H-M    P1
_symmetry_Int_Tables_number       1
_space_group_crystal_system       triclinic
_cell_length_a                    12.315243
_cell_length_b                    13.195939
_cell_length_c                    15.069523
_cell_angle_alpha                 77.455106
_cell_angle_beta                  101.410771
_cell_angle_gamma                 116.624051
_cell_volume                      2122.80453708

loop_
_atom_site_label
_atom_site_type_symbol
_atom_type_description
_atom_site_fract_x
_atom_site_fract_y
_atom_site_fract_z
_atom_type_partial_charge
C1    C     C_R   0.854858 0.286595 0.508011 0.777831
C2    C     C_R   0.906962 0.520370 0.074196 -0.007239
C3    C     C_R   0.189781 0.478839 0.080895 -0.210877
C4    C     C_R   0.189313 0.477831 0.988640 -0.209541
C5    C     C_R   0.095173 0.489972 0.924438 0.123628
C6    C     C_R   0.000878 0.504186 0.952828 0.060416
C7    C     C_R   0.905690 0.515699 0.888436 0.016002
C8    C     C_R   0.812828 0.530473 0.916590 -0.211445
C9    C     C_R   0.813798 0.535997 0.008138 0.392904
C10   C     C_R   0.093784 0.488112 0.832165 -0.243918
C11   C     C_R   0.999387 0.500182 0.767959 -0.069304
C12   C     C_R   0.999541 0.499694 0.671196 0.807627
C13   C     C_R   0.905419 0.513502 0.796378 -0.225122
C14   C     C_R   0.275218 0.021246 0.377232 -0.188155
C15   C     C_R   0.227926 0.834474 0.467359 -0.049233
C16   C     C_R   0.815660 0.085328 0.567963 -0.187079
C17   C     C_R   0.736964 0.970379 0.585814 -0.142153
C18   C     C_R   0.613532 0.932617 0.553422 -0.180151
C19   C     C_R   0.566625 0.009409 0.498904 0.079371
C20   C     C_R   0.650063 0.123870 0.471829 0.080430
C21   C     C_R   0.439877 0.976092 0.469505 0.073610
C22   C     C_R   0.400065 0.053273 0.406800 0.164227
C23   C     C_R   0.145105 0.713403 0.486452 0.802403
C24   C     C_R   0.485377 0.160450 0.372574 -0.235836
C25   C     C_R   0.608613 0.194682 0.403452 -0.194326
C26   C     C_R   0.351068 0.868488 0.501226 -0.250723
C27   C     C_R   0.189447 0.911883 0.406885 -0.193742
C28   C     C_R   0.773090 0.163645 0.513158 -0.102117
C29   C     C_R   0.347676 0.329315 0.646586 -0.295932
C30   C     C_R   0.758917 0.644954 0.375600 0.072174
C31   C     C_R   0.662048 0.676365 0.348674 -0.250369
C32   C     C_R   0.558866 0.621767 0.395438 -0.194325
C33   C     C_R   0.551270 0.534468 0.470273 -0.006415
C34   C     C_R   0.000364 0.500311 0.328756 0.804131
C35   C     C_R   0.653142 0.505316 0.495455 0.289690
C36   C     C_R   0.447103 0.475249 0.521080 -0.037266
C37   C     C_R   0.447427 0.388689 0.595537 0.177012
C38   C     C_R   0.547300 0.361774 0.618921 -0.284576
C39   C     C_R   0.647652 0.418758 0.570192 -0.191806
C40   C     C_R   0.341798 0.497654 0.501759 0.016958
C41   C     C_R   0.247423 0.355582 0.624132 0.068983
C42   C     C_R   0.906754 0.515307 0.167932 -0.243101
C43   C     C_R   0.001086 0.502044 0.231587 -0.069271
C44   C     C_R   0.095847 0.491304 0.202304 -0.240948
C45   C     C_R   0.096232 0.492185 0.109893 0.131532
C46   C     C_R   0.001432 0.505960 0.045641 0.018084
Cu1   Cu    Cu3+1 0.098270 0.475420 0.521130 0.935414
Cu2   Cu    Cu3+1 0.901730 0.524580 0.478870 0.923241
H1    H     H_    0.832355 0.519292 0.192661 0.164402
H2    H     H_    0.456773 0.218282 0.321627 0.148699
H3    H     H_    0.244377 0.079706 0.329188 0.135613
H4    H     H_    0.375051 0.808275 0.551888 0.148890
H5    H     H_    0.909683 0.113350 0.599023 0.152557
H6    H     H_    0.558125 0.842292 0.570573 0.130766
H7    H     H_    0.771123 0.910548 0.627490 0.144836
H8    H     H_    0.670748 0.276256 0.370877 0.177566
H9    H     H_    0.170098 0.310071 0.663231 0.121389
H10   H     H_    0.548168 0.295750 0.675906 0.156188
H11   H     H_    0.347334 0.263012 0.703576 0.139698
H12   H     H_    0.169002 0.481405 0.251435 0.151157
H13   H     H_    0.333541 0.561799 0.446406 0.122531
H14   H     H_    0.838616 0.687876 0.338933 0.122795
H15   H     H_    0.486718 0.649592 0.371649 0.135916
H16   H     H_    0.666967 0.743319 0.291340 0.147324
H17   H     H_    0.719146 0.391793 0.594080 0.208135
H18   H     H_    0.262991 0.468625 0.129662 0.146744
H19   H     H_    0.262237 0.467061 0.967538 0.152715
H20   H     H_    0.166626 0.477711 0.810483 0.156685
H21   H     H_    0.832097 0.522518 0.746932 0.158856
H22   H     H_    0.740319 0.540626 0.866838 0.167782
H23   H     H_    0.094171 0.886446 0.379769 0.148337
N1    N     N_R   0.246280 0.438190 0.553160 -0.180222
N2    N     N_R   0.754320 0.561190 0.447410 -0.206756
O1    O     O_R   0.972510 0.318130 0.526570 -0.579084
O2    O     O_R   0.806530 0.359650 0.490890 -0.604560
O3    O     O_R   0.082980 0.479210 0.647590 -0.586051
O4    O     O_R   0.917000 0.520730 0.611900 -0.602764
O5    O     O_R   0.193470 0.640350 0.509110 -0.587056
O6    O     O_R   0.027490 0.681870 0.473430 -0.585534
O7    O     O_R   0.083000 0.479270 0.388100 -0.586325
O8    O     O_R   0.917020 0.520790 0.352410 -0.599845
O9    O     O_3   0.722213 0.556510 0.029441 -0.735406
H24   H     H_    0.756253 0.604310 0.079135 0.313326

loop_
_geom_bond_atom_site_label_1
_geom_bond_atom_site_label_2
_ccdc_geom_bond_type
C16   C28   A    
C21   C26   A    
C19   C20   A    
C25   H8    S    
C7    C8    A    
C45   C46   A    
C2    C46   A    
C5    C6    A    
C1    O1    A    
Cu2   O6    S    
C36   C37   A    
C19   C21   A    
C44   H12   S    
Cu1   O3    S    
C38   C39   A    
C20   C25   A    
C33   C36   A    
Cu2   O8    S    
C18   C19   A    
C16   H5    S    
C34   O7    A    
C38   H10   S    
Cu1   Cu2   S    
C8    C9    A    
C1    C28   S    
C34   O8    A    
C14   C27   A    
C40   N1    A    
C17   H7    S    
C9    O9    S    
C15   C23   S    
C21   C22   A    
C39   H17   S    
Cu2   O2    S    
Cu1   O7    S    
Cu2   N2    S    
C24   H2    S    
C1    O2    A    
C29   H11   S    
C36   C40   A    
C24   C25   A    
Cu1   O1    S    
C30   N2    A    
C16   C17   A    
C15   C26   A    
C20   C28   A    
C3    C45   A    
C40   H13   S    
Cu2   O4    S    
C35   C39   A    
C43   C44   A    
C37   C38   A    
C26   H4    S    
C15   C27   A    
C14   H3    S    
C12   O4    A    
C17   C18   A    
C41   N1    A    
C12   O3    A    
C22   C24   A    
C3    H18   S    
C42   C43   A    
C3    C4    A    
C27   H23   S    
C44   C45   A    
C35   N2    A    
C6    C46   A    
C29   C41   A    
C31   H16   S    
C31   C32   A    
C34   C43   S    
C32   H15   S    
C4    C5    A    
C4    H19   S    
C11   C12   S    
C6    C7    A    
C10   H20   S    
C8    H22   S    
C32   C33   A    
C14   C22   A    
C30   H14   S    
C41   H9    S    
C5    C10   A    
C11   C13   A    
C30   C31   A    
C13   H21   S    
C2    C42   A    
C33   C35   A    
C23   O5    A    
Cu1   N1    S    
C10   C11   A    
C18   H6    S    
C42   H1    S    
C7    C13   A    
O9    H24   S    
C29   C37   A    
Cu1   O5    S    
C23   O6    A    
C2    C9    A    
