data_mof_unit_370.cif
_audit_creation_date              2012-12-10T17:50:32-0500
_audit_creation_method            fapswitch 2.2
_symmetry_space_group_name_H-M    P1
_symmetry_Int_Tables_number       1
_space_group_crystal_system       triclinic
_cell_length_a                    15.687086
_cell_length_b                    10.619304
_cell_length_c                    9.937258
_cell_angle_alpha                 89.930802
_cell_angle_beta                  89.198088
_cell_angle_gamma                 89.760009
_cell_volume                      1655.22966825

loop_
_atom_site_label
_atom_site_type_symbol
_atom_type_description
_atom_site_fract_x
_atom_site_fract_y
_atom_site_fract_z
_atom_type_partial_charge
C1    C     C_R   0.501042 0.260690 0.499963 0.846433
C2    C     C_R   0.724638 0.063918 0.629937 0.196437
C3    C     C_R   0.723539 0.932015 0.634051 0.190762
C4    C     C_R   0.338102 0.501262 0.500807 0.894011
C5    C     C_R   0.651199 0.867579 0.592333 -0.258100
C6    C     C_R   0.578524 0.933477 0.547224 0.058706
C7    C     C_R   0.578944 0.065209 0.545973 0.062158
C8    C     C_R   0.505858 0.128314 0.499349 -0.052495
C9    C     C_R   0.435714 0.064997 0.449209 -0.207685
C10   C     C_R   0.435675 0.936149 0.449068 -0.172541
C11   C     C_R   0.505588 0.871625 0.499651 -0.059459
C12   C     C_3   0.083065 0.515885 0.503552 0.081790
C13   C     C_R   0.365504 0.384039 0.131668 -0.183570
C14   C     C_R   0.288129 0.366030 0.063423 0.007602
C15   C     C_R   0.275781 0.434827 0.943814 -0.246779
C16   C     C_R   0.500778 0.739311 0.499899 0.869558
C17   C     C_R   0.343656 0.499780 0.883242 0.203933
C18   C     C_R   0.425865 0.481116 0.932821 0.103664
C19   C     C_R   0.430996 0.455550 0.072125 0.139958
C20   C     C_R   0.570219 0.533237 0.069918 -0.086834
C21   C     C_R   0.571609 0.526237 0.926694 -0.077637
C22   C     C_R   0.661974 0.500478 0.499326 0.866758
C23   C     C_3   0.971167 0.624029 0.452969 -0.210711
C24   C     C_3   0.971303 0.500328 0.629732 0.268488
C25   C     C_3   0.029071 0.405150 0.554208 -0.236852
C26   C     C_1   0.249222 0.507949 0.502839 -0.161435
C27   C     C_1   0.750987 0.504736 0.498681 -0.137274
C28   C     C_3   0.026973 0.610991 0.579810 -0.193691
C29   C     C_R   0.218202 0.286011 0.120588 0.159602
C30   C     C_R   0.209868 0.264665 0.260315 -0.138869
C31   C     C_R   0.142865 0.192349 0.312354 -0.136689
C32   C     C_R   0.083357 0.139678 0.226199 -0.098513
C33   C     C_R   0.091153 0.158284 0.087565 -0.080734
C34   C     C_3   0.917245 0.513111 0.503442 0.099120
C35   C     C_R   0.158132 0.230328 0.034854 -0.119332
C36   C     C_3   0.029082 0.529014 0.377416 0.228578
C37   C     C_3   0.973644 0.418175 0.427067 -0.203268
C38   C     C_1   0.173921 0.513087 0.503715 0.001876
C39   C     C_1   0.826330 0.509023 0.500628 0.042113
C40   C     C_R   0.652689 0.129782 0.587090 -0.249364
H1    H     H_    0.054407 0.315914 0.596412 0.166726
H2    H     H_    0.050736 0.689583 0.642385 0.192267
H3    H     H_    0.380621 0.115652 0.412011 0.136439
H4    H     H_    0.655791 0.231424 0.583992 0.167186
H5    H     H_    0.253847 0.304994 0.330400 0.115587
H6    H     H_    0.136916 0.177630 0.419853 0.136873
H7    H     H_    0.031364 0.084102 0.266848 0.147729
H8    H     H_    0.045300 0.116653 0.020649 0.163637
H9    H     H_    0.163033 0.241472 0.926741 0.130506
H10   H     H_    0.653124 0.765860 0.593943 0.165837
H11   H     H_    0.380576 0.886438 0.411711 0.158285
H12   H     H_    0.626977 0.562095 0.121910 0.162575
H13   H     H_    0.376939 0.336731 0.225481 0.178501
H14   H     H_    0.212329 0.447332 0.904335 0.186427
H15   H     H_    0.629788 0.548346 0.872228 0.173543
H16   H     H_    0.950280 0.339409 0.364340 0.178888
H17   H     H_    0.945549 0.713307 0.411274 0.185472
I1    I     I_    0.828764 0.824216 0.700737 -0.337008
I2    I     I_    0.311518 0.684101 0.814930 -0.315374
I3    I     I_    0.927384 0.482122 0.833219 -0.269376
I4    I     I_    0.075471 0.558631 0.177025 -0.321288
I5    I     I_    0.833424 0.169126 0.682553 -0.339083
N1    N     N_R   0.499210 0.498800 0.142780 -0.111621
N2    N     N_R   0.499180 0.498720 0.857170 -0.114099
O1    O     O_R   0.500000 0.316780 0.614690 -0.607110
O2    O     O_R   0.499990 0.316750 0.385360 -0.627883
O3    O     O_R   0.376780 0.500000 0.614650 -0.599895
O4    O     O_R   0.376770 0.499980 0.385310 -0.626334
O5    O     O_R   0.500010 0.683250 0.614640 -0.593329
O6    O     O_R   0.500000 0.683220 0.385310 -0.605258
O7    O     O_R   0.623230 0.500020 0.614690 -0.619104
O8    O     O_R   0.623220 0.500000 0.385350 -0.615195
Zn1   Zn    Zn3+2 0.500010 0.500020 0.653130 0.982446
Zn2   Zn    Zn3+2 0.499990 0.499980 0.346870 0.963314

loop_
_geom_bond_atom_site_label_1
_geom_bond_atom_site_label_2
_ccdc_geom_bond_type
C34   C37   S    
C30   H5    S    
C7    C8    A    
C12   C28   S    
C36   C37   S    
C30   C31   A    
O4    Zn2   S    
C1    C8    S    
O1    Zn1   S    
C15   C17   A    
C18   C19   A    
C21   N2    A    
C25   C37   S    
C37   H16   S    
C19   N1    A    
C8    C9    A    
C31   H6    S    
O6    Zn2   S    
C1    O1    A    
C7    C40   A    
O5    Zn1   S    
O3    Zn1   S    
C12   C36   S    
C9    C10   A    
C24   I3    S    
C13   C14   A    
C10   H11   S    
C22   O8    A    
C1    O2    A    
C13   H13   S    
C9    H3    S    
C13   C19   A    
C27   C39   T    
C34   C39   S    
C15   H14   S    
C16   O6    A    
C24   C25   S    
O8    Zn2   S    
C25   H1    S    
C6    C11   A    
C21   H15   S    
C26   C38   T    
C4    O4    A    
C24   C34   S    
C35   H9    S    
C29   C30   A    
C11   C16   S    
C31   C32   A    
N2    Zn1   S    
C23   C34   S    
C17   C18   A    
C23   C28   S    
C17   I2    S    
C22   C27   S    
C32   H7    S    
C5    H10   S    
C14   C29   S    
C36   I4    S    
C22   O7    A    
O7    Zn1   S    
C23   H17   S    
C16   O5    A    
C24   C28   S    
C3    C5    A    
C4    O3    A    
C4    C26   S    
C6    C7    A    
N1    Zn2   S    
C29   C35   A    
C12   C25   S    
C32   C33   A    
C20   N1    A    
C2    C3    A    
C20   H12   S    
C18   N2    A    
C5    C6    A    
C28   H2    S    
C33   C35   A    
C12   C38   S    
C10   C11   A    
C3    I1    S    
C2    C40   A    
C40   H4    S    
C20   C21   A    
C23   C36   S    
C33   H8    S    
C14   C15   A    
C2    I5    S    
O2    Zn2   S    
