data_mof_unit_2873.cif
_audit_creation_date              2012-12-10T19:50:01-0500
_audit_creation_method            fapswitch 2.2
_symmetry_space_group_name_H-M    P1
_symmetry_Int_Tables_number       1
_space_group_crystal_system       triclinic
_cell_length_a                    14.152667
_cell_length_b                    15.007881
_cell_length_c                    15.499858
_cell_angle_alpha                 90.0
_cell_angle_beta                  67.751729
_cell_angle_gamma                 90.049859
_cell_volume                      3047.09492554

loop_
_atom_site_label
_atom_site_type_symbol
_atom_type_description
_atom_site_fract_x
_atom_site_fract_y
_atom_site_fract_z
_atom_type_partial_charge
C1    C     C_R   0.500168 0.672272 0.499644 0.868205
C2    C     C_R   0.500115 0.327738 0.499650 0.868533
C3    C     C_R   0.372217 0.545740 0.107330 -0.241275
C4    C     C_R   0.612625 0.583531 0.902071 -0.223610
C5    C     C_R   0.300247 0.541501 0.066495 -0.247457
C6    C     C_R   0.684589 0.586989 0.943067 -0.227309
C7    C     C_R   0.436194 0.905224 0.462215 -0.177455
C8    C     C_R   0.595023 0.094827 0.460867 -0.177736
C9    C     C_R   0.434650 0.813289 0.465073 -0.193384
C10   C     C_R   0.594254 0.186773 0.463720 -0.190992
C11   C     C_R   0.501057 0.768016 0.497570 -0.026221
C12   C     C_R   0.500918 0.232009 0.497514 -0.026590
C13   C     C_R   0.568853 0.814600 0.527341 -0.193062
C14   C     C_R   0.408403 0.185417 0.528515 -0.192074
C15   C     C_R   0.569472 0.906555 0.525567 -0.175986
C16   C     C_R   0.409215 0.093465 0.526779 -0.173972
C17   C     C_R   0.503191 0.951899 0.492959 0.114230
C18   C     C_R   0.502512 0.048135 0.492930 0.115152
C19   C     C_R   0.868744 0.553560 0.562686 -0.057409
C20   C     C_R   0.091970 0.425970 0.530696 -0.058216
C21   C     C_R   0.770105 0.552629 0.561058 -0.034929
C22   C     C_R   0.191542 0.427143 0.530169 -0.044509
C23   C     C_R   0.436455 0.501946 0.676257 0.879005
C24   C     C_R   0.563494 0.500935 0.323695 0.875382
C25   C     C_R   0.820108 0.446720 0.439216 -0.051465
C26   C     C_R   0.217436 0.573923 0.470789 -0.048675
C27   C     C_R   0.920963 0.444811 0.436847 -0.084109
C28   C     C_R   0.117638 0.577654 0.470788 -0.087427
C29   C     C_R   0.946799 0.500280 0.499226 0.030103
C30   C     C_R   0.053479 0.501330 0.499716 0.033495
C31   C     C_R   0.397221 0.514211 0.777235 -0.064852
C32   C     C_R   0.601545 0.514323 0.222953 -0.065059
C33   C     C_R   0.260245 0.522668 0.928782 -0.202132
C34   C     C_R   0.730753 0.561833 0.076789 -0.198259
C35   C     C_R   0.292815 0.511360 0.832505 -0.196033
C36   C     C_R   0.702755 0.538351 0.170409 -0.199143
C37   C     C_R   0.467787 0.532195 0.817951 -0.263152
C38   C     C_R   0.529724 0.513204 0.181471 -0.258554
C39   C     C_R   0.437066 0.545880 0.913541 0.093749
C40   C     C_R   0.553734 0.543623 0.090874 0.092192
C41   C     C_R   0.331894 0.537491 0.969904 0.181516
C42   C     C_R   0.656877 0.564447 0.036588 0.169904
C43   C     C_R   0.509609 0.560317 0.954766 0.066262
C44   C     C_R   0.478103 0.549716 0.052098 0.073350
H1    H     H_    0.219948 0.537392 0.110771 0.144374
H2    H     H_    0.762712 0.604877 0.900756 0.161065
H3    H     H_    0.710565 0.593703 0.609310 0.124715
H4    H     H_    0.220406 0.369646 0.554523 0.131079
H5    H     H_    0.799285 0.405470 0.391866 0.127725
H6    H     H_    0.267577 0.630860 0.447239 0.135052
H7    H     H_    0.454466 0.487635 0.221132 0.159599
H8    H     H_    0.547789 0.531106 0.774337 0.158938
H9    H     H_    0.759343 0.540138 0.201758 0.154686
H10   H     H_    0.236985 0.498798 0.801720 0.159401
H11   H     H_    0.179525 0.517672 0.971260 0.136511
H12   H     H_    0.809551 0.579061 0.036236 0.136976
H13   H     H_    0.342809 0.547880 0.182537 0.148463
H14   H     H_    0.639059 0.601878 0.829407 0.147872
H15   H     H_    0.385609 0.939853 0.435751 0.132114
H16   H     H_    0.667508 0.060203 0.433405 0.129227
H17   H     H_    0.382639 0.777749 0.440934 0.145137
H18   H     H_    0.666270 0.222380 0.438572 0.145541
H19   H     H_    0.620042 0.780087 0.553201 0.152469
H20   H     H_    0.335808 0.219923 0.555349 0.146903
H21   H     H_    0.620420 0.942237 0.550859 0.134502
H22   H     H_    0.337302 0.057773 0.553070 0.132623
N1    N     N_R   0.747530 0.500020 0.500000 -0.096489
N2    N     N_R   0.252470 0.499980 0.500000 -0.097760
O1    O     O_R   0.420530 0.630930 0.499990 -0.628965
O2    O     O_R   0.579470 0.369070 0.500010 -0.617599
O3    O     O_R   0.579480 0.630940 0.499990 -0.621008
O4    O     O_R   0.420520 0.369060 0.500010 -0.626842
O5    O     O_R   0.375120 0.499990 0.632240 -0.610907
O6    O     O_R   0.624880 0.500010 0.367760 -0.618655
O7    O     O_R   0.534080 0.500000 0.632240 -0.620065
O8    O     O_R   0.465920 0.500000 0.367760 -0.613704
Zn1   Zn    Zn3+2 0.393860 0.499990 0.500000 0.941510
Zn2   Zn    Zn3+2 0.606140 0.500010 0.500000 0.942148
C45   C     C_1   0.887053 0.607626 0.631831 0.153306
N3    N     N_1   0.901680 0.650932 0.687307 -0.221561
C46   C     C_1   0.029847 0.347738 0.565878 0.160650
N4    N     N_1   0.980023 0.285036 0.594061 -0.210281
C47   C     C_R   0.995309 0.382198 0.370997 0.122797
C48   C     C_R   0.092580 0.410773 0.310135 -0.154040
C49   C     C_R   0.161165 0.350521 0.249504 -0.139469
C50   C     C_R   0.133474 0.261338 0.248447 -0.104745
C51   C     C_R   0.037037 0.232234 0.307957 -0.136026
C52   C     C_R   0.968190 0.292216 0.368770 -0.145010
H23   H     H_    0.116064 0.479313 0.308889 0.118860
H24   H     H_    0.235867 0.373056 0.203224 0.139184
H25   H     H_    0.186718 0.214797 0.201466 0.127610
H26   H     H_    0.015648 0.163070 0.307150 0.125755
H27   H     H_    0.894124 0.268159 0.415028 0.125337
C53   C     C_R   0.082603 0.663173 0.444062 0.118992
C54   C     C_R   0.036437 0.666371 0.378034 -0.145782
C55   C     C_R   0.003644 0.747508 0.354866 -0.132941
C56   C     C_R   0.017062 0.826365 0.396672 -0.112018
C57   C     C_R   0.063459 0.824269 0.461695 -0.133080
C58   C     C_R   0.096187 0.743293 0.485249 -0.146509
H28   H     H_    0.025563 0.606737 0.344049 0.119901
H29   H     H_    0.967900 0.749225 0.304284 0.129770
H30   H     H_    0.991611 0.889097 0.378605 0.122118
H31   H     H_    0.073864 0.885409 0.494090 0.130510
H32   H     H_    0.131042 0.742997 0.536571 0.130004

loop_
_geom_bond_atom_site_label_1
_geom_bond_atom_site_label_2
_ccdc_geom_bond_type
C33   H11   S    
C22   H4    S    
C51   C52   A    
C34   H12   S    
O2    Zn2   S    
O1    Zn1   S    
C54   C55   A    
C25   N1    A    
C2    C12   S    
C56   C57   A    
C39   C41   A    
C20   C30   A    
C49   C50   A    
C1    O3    A    
C9    H17   S    
C32   C36   A    
C19   C21   A    
C50   H25   S    
C26   H6    S    
C27   C29   A    
C57   H31   S    
C15   H21   S    
C28   C53   S    
C20   C46   S    
C36   H9    S    
O4    Zn1   S    
C34   C42   A    
C7    C17   A    
C1    C11   S    
C14   C16   A    
C32   C38   A    
C56   H30   S    
C40   C42   A    
C47   C52   A    
C55   H29   S    
C21   N1    A    
C35   H10   S    
C10   H18   S    
N1    Zn2   S    
C23   O5    A    
C2    O4    A    
C7    H15   S    
C46   N4    T    
C25   H5    S    
C3    C44   A    
O8    Zn1   S    
C4    C6    A    
C23   O7    A    
C37   H8    S    
C50   C51   A    
C24   O8    A    
C39   C43   A    
C38   H7    S    
C5    H1    S    
C8    C18   A    
C31   C37   A    
C23   C31   S    
C43   C44   A    
C24   C32   S    
C29   C30   S    
C47   C48   A    
C13   H19   S    
C14   H20   S    
C55   C56   A    
C17   C18   S    
C48   C49   A    
C19   C45   S    
C9    C11   A    
C22   N2    A    
C10   C12   A    
C3    H13   S    
C16   C18   A    
C20   C22   A    
C13   C15   A    
O6    Zn2   S    
C31   C35   A    
C16   H22   S    
C48   H23   S    
C19   C29   A    
N2    Zn1   S    
C15   C17   A    
C5    C41   A    
C52   H27   S    
C6    H2    S    
C54   H28   S    
C12   C14   A    
C3    C5    A    
C49   H24   S    
C4    C43   A    
C25   C27   A    
C26   C28   A    
C26   N2    A    
C28   C30   A    
C33   C41   A    
C37   C39   A    
C2    O2    A    
C8    H16   S    
C38   C40   A    
C11   C13   A    
C24   O6    A    
C53   C58   A    
C27   C47   S    
C33   C35   A    
C58   H32   S    
C34   C36   A    
C53   C54   A    
O7    Zn2   S    
C1    O1    A    
C45   N3    T    
C7    C9    A    
C40   C44   A    
C8    C10   A    
C57   C58   A    
C6    C42   A    
C4    H14   S    
O5    Zn1   S    
C51   H26   S    
O3    Zn2   S    
C21   H3    S    
