data_mof_unit_556.cif
_audit_creation_date              2012-12-11T17:01:24-0500
_audit_creation_method            fapswitch 2.2
_symmetry_space_group_name_H-M    P1
_symmetry_Int_Tables_number       1
_space_group_crystal_system       triclinic
_cell_length_a                    19.541159
_cell_length_b                    7.072986
_cell_length_c                    17.584809
_cell_angle_alpha                 89.869638
_cell_angle_beta                  108.729879
_cell_angle_gamma                 89.969425
_cell_volume                      2301.75416881

loop_
_atom_site_label
_atom_site_type_symbol
_atom_type_description
_atom_site_fract_x
_atom_site_fract_y
_atom_site_fract_z
_atom_type_partial_charge
O1    O     O_R   0.413720 0.494330 0.415730 -0.520939
O2    O     O_R   0.586280 0.994330 0.584270 -0.518268
O3    O     O_R   0.560210 0.819300 0.430070 -0.498498
O4    O     O_R   0.439790 0.319300 0.569930 -0.511406
C1    C     C_R   0.581795 0.655327 0.414437 0.762720
C2    C     C_R   0.418977 0.154800 0.586305 0.778583
O5    O     O_R   0.412670 0.823730 0.406310 -0.530751
O6    O     O_R   0.587330 0.323730 0.593690 -0.537077
O7    O     O_R   0.437690 0.998790 0.560340 -0.558170
O8    O     O_R   0.562310 0.498790 0.439660 -0.549100
C3    C     C_R   0.386505 0.654909 0.382110 0.725748
C4    C     C_R   0.613471 0.154577 0.617936 0.722499
O9    O     O_3   0.508380 0.662350 0.550560 -0.371312
O10   O     O_3   0.491620 0.162350 0.449440 -0.354385
V1    V     V_3+5 0.498450 0.935370 0.490620 1.625305
V2    V     V_3+5 0.501550 0.435370 0.509380 1.602085
C5    C     C_R   0.735485 0.019215 0.688152 0.055677
C6    C     C_R   0.264175 0.521686 0.313049 0.066195
C7    C     C_R   0.680187 0.144687 0.688549 -0.206428
C8    C     C_R   0.319630 0.645563 0.311791 -0.197055
C9    C     C_R   0.691735 0.263140 0.756883 0.303804
C10   C     C_R   0.307759 0.763757 0.243071 0.306330
C11   C     C_R   0.758393 0.256468 0.820866 -0.041013
C12   C     C_R   0.241047 0.756313 0.179215 -0.029620
C13   C     C_R   0.813568 0.124880 0.819494 -0.153332
C14   C     C_R   0.186176 0.624345 0.180973 -0.145951
C15   C     C_R   0.800183 0.008449 0.751955 -0.031962
C16   C     C_R   0.199441 0.510612 0.249546 -0.082603
C17   C     C_3   0.802827 0.796669 0.748168 -0.302842
C18   C     C_3   0.195317 0.299642 0.256397 -0.287971
C19   C     C_3   0.732210 0.807927 0.677211 0.227120
C20   C     C_3   0.266560 0.311083 0.326665 0.225118
H1    H     H_    0.796417 0.729452 0.802626 0.216972
H2    H     H_    0.200503 0.226210 0.202736 0.222364
C21   C     C_R   0.317713 0.002523 0.624479 0.238609
C22   C     C_R   0.677933 0.490741 0.370190 0.313804
C23   C     C_R   0.370560 0.145329 0.637174 -0.167269
C24   C     C_R   0.630731 0.646283 0.363868 -0.205329
C25   C     C_R   0.373680 0.287139 0.694411 0.321926
C26   C     C_R   0.631039 0.795161 0.310300 0.343681
C27   C     C_R   0.330213 0.274161 0.745896 -0.000062
C28   C     C_R   0.671572 0.780512 0.255902 0.000996
C29   C     C_R   0.273068 0.140177 0.727361 -0.069250
C30   C     C_R   0.721250 0.628860 0.265696 -0.096763
C31   C     C_R   0.264601 0.010895 0.663416 -0.074563
C32   C     C_R   0.723548 0.481558 0.321728 -0.029681
C33   C     C_R   0.340581 0.396112 0.813091 -0.081661
C34   C     C_R   0.665475 0.916586 0.193869 -0.069410
C35   C     C_R   0.288748 0.401720 0.853629 -0.063531
C36   C     C_R   0.715460 0.916186 0.150640 -0.066656
C37   C     C_R   0.234205 0.260882 0.838171 -0.011835
C38   C     C_R   0.765646 0.765189 0.161141 -0.022441
C39   C     C_R   0.224442 0.134960 0.772645 -0.010737
C40   C     C_R   0.770176 0.626564 0.220965 -0.031508
C41   C     C_R   0.165496 0.005257 0.751897 -0.042438
C42   C     C_R   0.824728 0.486254 0.236868 0.032086
C43   C     C_R   0.158057 0.875888 0.688096 0.297715
C44   C     C_R   0.820491 0.327742 0.283879 0.278017
C45   C     C_R   0.204648 0.886631 0.641669 0.308185
C46   C     C_R   0.772652 0.329082 0.329460 0.272369
C47   C     C_R   0.190135 0.238699 0.888287 0.272027
C48   C     C_R   0.810377 0.743812 0.111508 0.321590
C49   C     C_R   0.128497 0.124473 0.863893 -0.148109
C50   C     C_R   0.870572 0.622473 0.135173 -0.197270
C51   C     C_R   0.114351 0.013487 0.794205 -0.103989
C52   C     C_R   0.881097 0.504297 0.202733 -0.117559
O11   O     O_R   0.937800 0.775460 0.060470 -0.512197
O12   O     O_R   0.062200 0.275460 0.939530 -0.516267
O13   O     O_R   0.087350 0.441340 0.093710 -0.538046
O14   O     O_R   0.912650 0.941340 0.906290 -0.533265
C53   C     C_R   0.116132 0.610169 0.114537 0.714892
C54   C     C_R   0.883689 0.110448 0.885808 0.763295
O15   O     O_R   0.939820 0.446010 0.069950 -0.560443
O16   O     O_R   0.060180 0.946010 0.930050 -0.563989
O17   O     O_R   0.913690 0.271230 0.915700 -0.506147
O18   O     O_R   0.086310 0.771230 0.084300 -0.513131
C55   C     C_R   0.919812 0.614482 0.086023 0.775609
C56   C     C_R   0.080665 0.114756 0.914646 0.829116
O19   O     O_3   0.991670 0.603050 0.949510 -0.357086
O20   O     O_3   0.008330 0.103050 0.050490 -0.362848
V3    V     V_3+5 0.001550 0.329940 0.009370 1.626361
V4    V     V_3+5 0.998450 0.829940 0.990630 1.622329
O21   O     O_3   0.637994 0.379920 0.765758 -0.613032
H3    H     H_    0.590205 0.330072 0.733522 0.314414
O22   O     O_3   0.361141 0.881046 0.233693 -0.613268
H4    H     H_    0.409076 0.832375 0.266331 0.311839
C57   C     C_2   0.286973 0.565457 0.906384 0.329876
H5    H     H_    0.235605 0.632110 0.901265 0.083090
O23   O     O_2   0.341372 0.621037 0.957985 -0.513003
C58   C     C_2   0.720426 0.083491 0.100775 0.319048
H6    H     H_    0.773102 0.140257 0.104900 0.105807
O24   O     O_2   0.666750 0.153584 0.052593 -0.511836
O25   O     O_3   0.208570 0.315843 0.964236 -0.642571
H7    H     H_    0.261346 0.298017 0.989794 0.316493
O26   O     O_3   0.794432 0.830437 0.037419 -0.641888
H8    H     H_    0.741329 0.824207 0.011446 0.309435
C59   C     C_2   0.042536 0.922669 0.763235 0.469266
H9    H     H_    0.037249 0.770192 0.764725 0.111613
O27   O     O_2   0.988490 0.020655 0.737980 -0.538392
C60   C     C_2   0.954084 0.422135 0.243541 0.530452
H10   H     H_    0.991625 0.395877 0.211139 0.022945
O28   O     O_2   0.975029 0.394007 0.315936 -0.491449
O29   O     O_3   0.104519 0.739549 0.671372 -0.648426
H11   H     H_    0.112681 0.642247 0.634826 0.349526
O30   O     O_3   0.859771 0.167572 0.279471 -0.625171
H12   H     H_    0.834797 0.054228 0.290629 0.296554
O31   O     O_3   0.187681 0.780014 0.572535 -0.604060
H13   H     H_    0.188069 0.866827 0.528279 0.343795
O32   O     O_3   0.774288 0.183478 0.382590 -0.602746
H14   H     H_    0.824392 0.134786 0.404446 0.327704
C61   C     C_2   0.763279 0.369459 0.893291 0.414486
H15   H     H_    0.723073 0.350141 0.923203 0.109877
O33   O     O_2   0.808707 0.492675 0.916891 -0.522814
C62   C     C_2   0.235399 0.869954 0.106619 0.418298
H16   H     H_    0.273266 0.845419 0.074068 0.099832
O34   O     O_2   0.191869 0.998818 0.085688 -0.525999
C63   C     C_2   0.867987 0.725709 0.728968 0.431341
H17   H     H_    0.882137 0.784964 0.679040 0.102589
O35   O     O_2   0.904914 0.599025 0.768969 -0.508019
C64   C     C_2   0.130138 0.237976 0.277738 0.380924
H18   H     H_    0.115358 0.310266 0.324583 0.105710
O36   O     O_2   0.093691 0.105254 0.242722 -0.506880
O37   O     O_3   0.673264 0.723186 0.693734 -0.614646
H19   H     H_    0.670536 0.773542 0.745388 0.315089
O38   O     O_3   0.324640 0.221521 0.310136 -0.615225
H20   H     H_    0.327032 0.268474 0.257750 0.319501
C65   C     C_2   0.736232 0.744398 0.596874 0.418298
H21   H     H_    0.747068 0.596930 0.588614 0.024728
O39   O     O_2   0.727797 0.855660 0.541369 -0.524372
C66   C     C_2   0.263463 0.253297 0.408308 0.420860
H22   H     H_    0.256482 0.105239 0.420337 0.068458
O40   O     O_2   0.269077 0.369761 0.461156 -0.526888
O41   O     O_3   0.316207 0.857036 0.572116 -0.620135
H23   H     H_    0.360957 0.782952 0.596431 0.311333
O42   O     O_3   0.682473 0.350197 0.426155 -0.584393
H24   H     H_    0.686356 0.411538 0.477895 0.295082
O43   O     O_3   0.417849 0.440332 0.696789 -0.618849
H25   H     H_    0.389498 0.555137 0.699072 0.271343
O44   O     O_3   0.594269 0.958329 0.315412 -0.602293
H26   H     H_    0.628230 0.064798 0.319551 0.325850
C67   C     C_2   0.407661 0.509507 0.845587 0.539988
H27   H     H_    0.404724 0.659834 0.856275 0.067477
O45   O     O_2   0.466853 0.434023 0.861711 -0.472192
C68   C     C_2   0.604821 0.054456 0.169917 0.550171
H28   H     H_    0.615459 0.204189 0.166151 0.056504
O46   O     O_2   0.542370 0.000312 0.152661 -0.472011

loop_
_geom_bond_atom_site_label_1
_geom_bond_atom_site_label_2
_ccdc_geom_bond_type
C18   C20   S    
C57   H5    S    
C25   O43   S    
C12   C62   S    
O25   H7    S    
C15   C17   S    
C50   C55   S    
C35   C57   S    
O26   H8    S    
O1    C3    A    
C19   C65   S    
O2    C4    A    
C21   O41   S    
C2    O7    A    
C49   C51   A    
C59   H9    S    
O42   H24   S    
C33   C35   A    
O22   H4    S    
O5    C3    A    
C18   C64   S    
O12   V3    S    
C21   C23   A    
C12   C14   A    
C63   O35   D    
C53   O18   A    
O20   V3    S    
C47   O25   S    
C43   C45   A    
C44   C46   A    
C26   O44   S    
C17   H1    S    
C34   C68   S    
C47   C49   A    
C10   O22   S    
C52   C60   S    
O13   C53   A    
C48   C50   A    
C46   O32   S    
C41   C51   A    
C67   H27   S    
C29   C39   A    
C9    O21   S    
C30   C32   A    
C35   C37   A    
C36   C58   S    
C36   C38   A    
O31   H13   S    
C22   C32   A    
O5    V1    S    
O6    V2    S    
C1    C24   S    
C14   C53   S    
C27   C29   A    
C28   C30   A    
O16   V4    S    
C54   O17   A    
C20   C66   S    
C59   O27   D    
C38   C40   A    
C62   H16   S    
C39   C41   A    
C9    C11   A    
O12   C56   A    
C43   O29   S    
C40   C42   A    
C3    C8    S    
O14   C54   A    
C18   H2    S    
C5    C15   A    
O37   H19   S    
C6    C16   A    
C68   O46   D    
O18   V4    S    
O19   V3    S    
O17   V3    S    
C17   C63   S    
C45   O31   S    
C37   C39   A    
C50   C52   A    
C20   O38   S    
O4    V2    S    
C66   O40   D    
C65   O39   D    
O11   C55   A    
C58   O24   D    
O21   H3    S    
O6    C4    A    
C60   O28   D    
C27   C33   A    
C2    C23   S    
C61   O33   D    
O1    V2    S    
C28   C34   A    
O2    V1    S    
C29   C31   A    
O15   V3    S    
O20   V4    S    
C8    C10   A    
C41   C43   A    
O38   H20   S    
C5    C19   S    
C10   C12   A    
O4    C2    A    
C6    C20   S    
C65   H21   S    
C21   C31   A    
C22   O42   S    
O3    V1    S    
C64   H18   S    
C64   O36   D    
O43   H25   S    
C31   C45   A    
C61   H15   S    
C32   C46   A    
C26   C28   A    
O3    C1    A    
O19   V4    S    
C62   O34   D    
O44   H26   S    
C13   C15   A    
C11   C61   S    
O30   H12   S    
C33   C67   S    
C14   C16   A    
C68   H28   S    
C44   O30   S    
C67   O45   D    
C66   H22   S    
O7    V1    S    
C51   C59   S    
C16   C18   S    
C17   C19   S    
C38   C48   A    
C63   H17   S    
C22   C24   A    
C24   C26   A    
C37   C47   A    
C58   H6    S    
O41   H23   S    
C13   C54   S    
C42   C52   A    
C4    C7    S    
C34   C36   A    
C60   H10   S    
C5    C7    A    
C42   C44   A    
C6    C8    A    
C11   C13   A    
O14   V4    S    
O13   V3    S    
C19   O37   S    
C30   C40   A    
C1    O8    A    
C25   C27   A    
O11   V4    S    
C23   C25   A    
O16   C56   A    
O9    V2    S    
O32   H14   S    
O29   H11   S    
C57   O23   D    
O15   C55   A    
O10   V1    S    
O8    V2    S    
C48   O26   S    
C7    C9    A    
C49   C56   S    
