data_mof_unit_2662.cif
_audit_creation_date              2012-12-10T17:22:12-0500
_audit_creation_method            fapswitch 2.2
_symmetry_space_group_name_H-M    P1
_symmetry_Int_Tables_number       1
_space_group_crystal_system       triclinic
_cell_length_a                    15.867178
_cell_length_b                    10.805179
_cell_length_c                    9.642568
_cell_angle_alpha                 91.57481
_cell_angle_beta                  91.50884
_cell_angle_gamma                 92.23026
_cell_volume                      1650.69842254

loop_
_atom_site_label
_atom_site_type_symbol
_atom_type_description
_atom_site_fract_x
_atom_site_fract_y
_atom_site_fract_z
_atom_type_partial_charge
C1    C     C_R   0.496294 0.262817 0.497675 0.844139
C2    C     C_3   0.949401 0.396956 0.602653 -0.451728
C3    C     C_3   0.917358 0.496463 0.503122 0.121186
C4    C     C_3   0.957767 0.624489 0.552280 0.171400
C5    C     C_3   0.055356 0.620516 0.552828 -0.376520
C6    C     C_1   0.825058 0.497799 0.504458 0.012053
C7    C     C_1   0.175151 0.491506 0.497098 0.023890
C8    C     C_1   0.250727 0.494229 0.495960 -0.063169
C9    C     C_R   0.656095 0.153901 0.516202 -0.157335
C10   C     C_R   0.732482 0.109569 0.559909 -0.164300
C11   C     C_R   0.736195 0.990432 0.608190 0.367359
C12   C     C_R   0.340442 0.498334 0.498547 0.845456
C13   C     C_R   0.664273 0.909096 0.597850 0.186852
C14   C     C_R   0.586382 0.949709 0.539896 -0.017334
C15   C     C_R   0.581785 0.077954 0.514549 0.028944
C16   C     C_R   0.502663 0.129521 0.492104 -0.111078
C17   C     C_R   0.429549 0.053998 0.473685 0.251527
C18   C     C_R   0.435252 0.926616 0.476646 -0.185734
C19   C     C_R   0.511808 0.872943 0.509760 -0.097980
C20   C     C_R   0.630092 0.631801 0.142276 -0.173907
C21   C     C_R   0.707190 0.647933 0.076558 0.371224
C22   C     C_R   0.721969 0.576589 0.957384 -0.190546
C23   C     C_R   0.508979 0.737540 0.502809 0.820842
C24   C     C_R   0.654826 0.508884 0.890964 0.277111
C25   C     C_R   0.572299 0.529687 0.933416 0.156335
C26   C     C_R   0.565227 0.557037 0.077239 0.063199
C27   C     C_R   0.435509 0.445672 0.067455 0.353112
C28   C     C_R   0.432706 0.455866 0.920645 -0.044478
C29   C     C_R   0.659638 0.500029 0.501299 0.825579
C30   C     C_3   0.047031 0.390332 0.597509 0.256836
C31   C     C_3   0.044720 0.466189 0.352757 -0.412064
C32   C     C_3   0.947105 0.463342 0.355169 -0.347455
C33   C     C_1   0.749451 0.498911 0.504027 -0.061072
C34   C     C_3   0.083015 0.491713 0.500944 0.119335
Cu1   Cu    Cu3+1 0.499990 0.499990 0.640660 1.036261
Cu2   Cu    Cu3+1 0.500010 0.500010 0.359340 1.018618
H1    H     H_    0.920061 0.304586 0.572517 0.180240
H2    H     H_    0.929364 0.419079 0.709987 0.228633
H3    H     H_    0.655452 0.249367 0.486502 0.142169
H4    H     H_    0.787885 0.171370 0.565441 0.171384
H5    H     H_    0.378672 0.868631 0.456397 0.168088
H6    H     H_    0.062761 0.297620 0.554571 0.159360
H7    H     H_    0.622584 0.676917 0.241783 0.209536
H8    H     H_    0.785741 0.567266 0.922274 0.202159
H9    H     H_    0.378614 0.417137 0.861666 0.187340
H10   H     H_    0.067199 0.539452 0.282023 0.226651
H11   H     H_    0.065857 0.376054 0.310301 0.209954
H12   H     H_    0.921770 0.369218 0.322439 0.189289
H13   H     H_    0.922350 0.528798 0.278458 0.245681
H14   H     H_    0.081047 0.641585 0.659685 0.210631
H15   H     H_    0.082655 0.693330 0.485967 0.213276
H16   H     H_    0.937537 0.646417 0.659582 0.163927
N1    N     N_R   0.500800 0.501210 0.147910 -0.206668
N2    N     N_R   0.500820 0.501290 0.852040 -0.199558
O1    O     O_R   0.499990 0.319640 0.618810 -0.546324
O2    O     O_R   0.500000 0.319660 0.381240 -0.545179
O3    O     O_R   0.379430 0.499990 0.618840 -0.583807
O4    O     O_R   0.379440 0.500020 0.381260 -0.537501
O5    O     O_R   0.500000 0.680340 0.618760 -0.535176
O6    O     O_R   0.500010 0.680360 0.381190 -0.595214
O7    O     O_R   0.620560 0.499980 0.618740 -0.532496
O8    O     O_R   0.620570 0.500010 0.381160 -0.601898
Cl1   Cl    Cl    0.093297 0.402556 0.769621 -0.562673
Br1   Br    Br    0.921181 0.759702 0.438084 -0.364749
Br2   Br    Br    0.320460 0.121233 0.444050 -0.428897
Br3   Br    Br    0.839684 0.949615 0.701252 -0.333020
Br4   Br    Br    0.673035 0.760525 0.696876 -0.469577
Br5   Br    Br    0.348765 0.341697 0.142474 -0.377875
Cl2   Cl    Cl    0.788392 0.742488 0.153183 -0.500286
Br6   Br    Br    0.681176 0.345261 0.825923 -0.483978

loop_
_geom_bond_atom_site_label_1
_geom_bond_atom_site_label_2
_ccdc_geom_bond_type
C15   C16   A    
C19   C23   S    
C24   C25   A    
C27   N1    A    
Cu2   O2    S    
C11   C13   A    
C9    C10   A    
C2    H2    S    
C17   Br2   S    
Cu1   Cu2   S    
C14   C15   A    
C11   Br3   S    
C2    C30   S    
C8    C12   S    
C3    C6    S    
C12   O4    A    
C5    C34   S    
C17   C18   A    
C1    O1    A    
C31   C34   S    
C24   Br6   S    
C7    C8    T    
Cu1   O7    S    
C6    C33   T    
C31   H11   S    
C13   C14   A    
C25   N2    A    
Cu1   N2    S    
C23   O5    A    
C32   H12   S    
C2    H1    S    
C23   O6    A    
C20   C26   A    
C4    H16   S    
Cu2   O8    S    
C12   O3    A    
Cu1   O5    S    
C1    O2    A    
C22   H8    S    
C2    C3    S    
Cu2   O4    S    
C9    C15   A    
C3    C32   S    
C32   H13   S    
C7    C34   S    
C22   C24   A    
C5    H14   S    
C16   C17   A    
C29   O7    A    
C30   C34   S    
Cu1   O1    S    
C3    C4    S    
C26   N1    A    
C29   C33   S    
C9    H3    S    
C20   H7    S    
C20   C21   A    
C10   H4    S    
Cu1   O3    S    
C10   C11   A    
C18   H5    S    
C5    H15   S    
C27   C28   A    
C1    C16   S    
C28   H9    S    
C4    Br1   S    
C29   O8    A    
C18   C19   A    
C28   N2    A    
Cu2   N1    S    
C27   Br5   S    
C25   C26   A    
C21   C22   A    
C30   H6    S    
C14   C19   A    
C31   C32   S    
C13   Br4   S    
C30   Cl1   S    
C21   Cl2   S    
C4    C5    S    
Cu2   O6    S    
C31   H10   S    
