data_mof_unit_845.cif
_audit_creation_date              2012-12-10T18:09:52-0500
_audit_creation_method            fapswitch 2.2
_symmetry_space_group_name_H-M    P1
_symmetry_Int_Tables_number       1
_space_group_crystal_system       triclinic
_cell_length_a                    10.619591
_cell_length_b                    12.595731
_cell_length_c                    13.125711
_cell_angle_alpha                 82.320772
_cell_angle_beta                  90.517797
_cell_angle_gamma                 102.126619
_cell_volume                      1700.81478195

loop_
_atom_site_label
_atom_site_type_symbol
_atom_type_description
_atom_site_fract_x
_atom_site_fract_y
_atom_site_fract_z
_atom_type_partial_charge
C1    C     C_R   0.480537 0.438845 0.691130 0.850344
C2    C     C_R   0.467097 0.446932 0.973556 0.084409
C3    C     C_R   0.434648 0.467065 0.869605 0.086289
C4    C     C_R   0.742010 0.501039 0.499092 0.828427
C5    C     C_R   0.465169 0.529265 0.036415 0.077696
C6    C     C_R   0.410990 0.620984 0.000454 0.177898
C7    C     C_R   0.361776 0.630838 0.901767 -0.258567
C8    C     C_R   0.373548 0.554920 0.836867 -0.209049
C9    C     C_R   0.518099 0.523707 0.133713 -0.263963
C10   C     C_R   0.447845 0.687196 0.165323 -0.212519
C11   C     C_R   0.466208 0.399519 0.800727 -0.116596
C12   C     C_3   0.121776 0.501673 0.498110 0.187757
C13   C     C_R   0.339760 0.094060 0.334483 -0.314876
C14   C     C_R   0.654406 0.798197 0.628271 -0.014700
C15   C     C_R   0.706456 0.905237 0.642860 -0.311067
C16   C     C_R   0.512801 0.561017 0.308806 0.855646
C17   C     C_R   0.665598 0.992381 0.583239 0.179575
C18   C     C_R   0.555498 0.967827 0.519360 -0.010661
C19   C     C_R   0.515340 0.857306 0.500467 0.199434
C20   C     C_R   0.486991 0.045739 0.469415 -0.010476
C21   C     C_R   0.401361 0.016846 0.388819 0.199598
C22   C     C_R   0.374363 0.910249 0.365541 -0.304108
C23   C     C_3   0.063405 0.469973 0.395073 -0.407368
C24   C     C_R   0.426785 0.830995 0.423368 -0.212423
C25   C     C_R   0.491956 0.148844 0.500263 -0.050987
C26   C     C_R   0.359686 0.198271 0.362627 0.002134
C27   C     C_R   0.258259 0.500404 0.498787 0.809571
C28   C     C_3   0.908953 0.420617 0.589242 -0.413780
C29   C     C_3   0.052879 0.418747 0.588331 -0.402355
C30   C     C_3   0.919164 0.471341 0.394998 -0.401667
C31   C     C_3   0.958075 0.618905 0.510688 -0.390553
C32   C     C_3   0.879142 0.502928 0.498417 0.185436
C33   C     C_3   0.759484 0.102828 0.575504 -0.407489
C34   C     C_3   0.101020 0.618186 0.510635 -0.385246
C35   C     C_3   0.808414 0.144485 0.465127 -0.857049
C36   C     C_R   0.405025 0.700506 0.064657 -0.206608
C37   C     C_R   0.501060 0.596539 0.200192 -0.050076
C38   C     C_R   0.501654 0.300495 0.838049 -0.200545
C39   C     C_R   0.514111 0.272090 0.942890 -0.151769
C40   C     C_R   0.500226 0.345383 0.010289 -0.196943
H1    H     H_    0.851911 0.337270 0.583723 0.185458
H2    H     H_    0.512728 0.319332 0.090757 0.133731
H3    H     H_    0.540088 0.195080 0.971696 0.140598
H4    H     H_    0.881729 0.444121 0.663523 0.157482
H5    H     H_    0.332952 0.565012 0.761164 0.165167
H6    H     H_    0.315663 0.260144 0.320028 0.135669
H7    H     H_    0.307868 0.886816 0.305283 0.145632
H8    H     H_    0.276781 0.073891 0.271283 0.143097
H9    H     H_    0.536929 0.171507 0.569668 0.128713
H10   H     H_    0.692042 0.731952 0.670007 0.150108
H11   H     H_    0.785872 0.919828 0.695119 0.143500
H12   H     H_    0.150237 0.679425 0.446562 0.170917
H13   H     H_    0.397395 0.749469 0.405284 0.208208
H14   H     H_    0.095510 0.439928 0.662715 0.153631
H15   H     H_    0.065000 0.334499 0.580509 0.180068
H16   H     H_    0.862867 0.389320 0.382457 0.185820
H17   H     H_    0.076096 0.386722 0.383975 0.178849
H18   H     H_    0.938077 0.680204 0.446592 0.177048
H19   H     H_    0.931329 0.644534 0.584166 0.176095
H20   H     H_    0.142338 0.643574 0.584149 0.180711
H21   H     H_    0.893324 0.212960 0.465192 0.238720
H22   H     H_    0.838816 0.078188 0.429934 0.261732
H23   H     H_    0.898884 0.531306 0.329894 0.155140
H24   H     H_    0.733331 0.174635 0.417358 0.263828
H25   H     H_    0.721345 0.164545 0.610482 0.177447
H26   H     H_    0.846402 0.095241 0.621538 0.200238
H27   H     H_    0.113350 0.528607 0.329571 0.156852
H28   H     H_    0.433433 0.744083 0.216814 0.148844
H29   H     H_    0.316315 0.698340 0.874023 0.145491
H30   H     H_    0.362675 0.770228 0.038395 0.133132
H31   H     H_    0.568937 0.460218 0.161690 0.146145
H32   H     H_    0.523808 0.246734 0.785999 0.147453
N1    N     N_R   0.433240 0.222190 0.444680 -0.104352
N2    N     N_R   0.566070 0.776970 0.554790 -0.128124
O1    O     O_R   0.468120 0.366740 0.627160 -0.615288
O2    O     O_R   0.510770 0.544830 0.662520 -0.613928
O3    O     O_R   0.663880 0.410950 0.482330 -0.619841
O4    O     O_R   0.706530 0.589040 0.517700 -0.625394
O5    O     O_R   0.489230 0.455170 0.337480 -0.615460
O6    O     O_R   0.531880 0.633260 0.372840 -0.629181
O7    O     O_R   0.293470 0.410960 0.482300 -0.618723
O8    O     O_R   0.336120 0.589050 0.517670 -0.651213
Zn1   Zn    Zn3+2 0.471520 0.381090 0.476390 0.925825
Zn2   Zn    Zn3+2 0.528480 0.618910 0.523610 0.917381

loop_
_geom_bond_atom_site_label_1
_geom_bond_atom_site_label_2
_ccdc_geom_bond_type
O5    Zn1   S    
C12   C29   S    
C1    C11   S    
O6    Zn2   S    
O2    Zn2   S    
C33   H25   S    
C7    C8    A    
C4    O4    A    
C12   C23   S    
C10   C37   A    
C5    C6    A    
C14   N2    A    
C31   H18   S    
C28   C29   S    
C38   C39   A    
C20   C25   A    
O3    Zn1   S    
C31   H19   S    
C28   H1    S    
C26   N1    A    
C15   C17   A    
C18   C19   A    
C23   H27   S    
C8    H5    S    
C35   H24   S    
C15   H11   S    
C25   N1    A    
C16   C37   S    
C40   H2    S    
C22   H7    S    
C21   C22   A    
C34   H20   S    
C17   C33   S    
O7    Zn1   S    
C36   H30   S    
C33   H26   S    
C27   O8    A    
C38   H32   S    
C12   C27   S    
C1    O1    A    
C23   C30   S    
C28   C32   S    
C3    C8    A    
C39   C40   A    
C39   H3    S    
C29   H15   S    
C24   H13   S    
C30   H16   S    
C28   H4    S    
C16   O6    A    
C11   C38   A    
C5    C9    A    
O4    Zn2   S    
C31   C32   S    
C27   O7    A    
C9    C37   A    
C17   C18   A    
C31   C34   S    
C13   C21   A    
C35   H21   S    
C4    C32   S    
O8    Zn2   S    
C22   C24   A    
C13   C26   A    
C2    C5    A    
C12   C34   S    
C23   H17   S    
C1    O2    A    
C19   N2    A    
C9    H31   S    
N2    Zn2   S    
C7    H29   S    
C13   H8    S    
C6    C7    A    
C10   H28   S    
C34   H12   S    
C16   O5    A    
C2    C3    A    
C4    O3    A    
C30   C32   S    
O1    Zn1   S    
C14   H10   S    
C33   C35   S    
C6    C36   A    
C19   C24   A    
C35   H22   S    
C18   C20   A    
C25   H9    S    
C3    C11   A    
C26   H6    S    
C2    C40   A    
C20   C21   A    
C29   H14   S    
C14   C15   A    
C10   C36   A    
C30   H23   S    
N1    Zn1   S    
