data_mof_unit_482.cif
_audit_creation_date              2012-12-10T19:21:59-0500
_audit_creation_method            fapswitch 2.2
_symmetry_space_group_name_H-M    P1
_symmetry_Int_Tables_number       1
_space_group_crystal_system       triclinic
_cell_length_a                    8.712926
_cell_length_b                    17.712591
_cell_length_c                    16.556426
_cell_angle_alpha                 89.983266
_cell_angle_beta                  97.557916
_cell_angle_gamma                 92.691213
_cell_volume                      2530.09214593

loop_
_atom_site_label
_atom_site_type_symbol
_atom_type_description
_atom_site_fract_x
_atom_site_fract_y
_atom_site_fract_z
_atom_type_partial_charge
C1    C     C_R   0.503355 0.355418 0.500139 0.912805
C2    C     C_R   0.498429 0.644609 0.499792 0.909652
C3    C     C_1   0.506471 0.966211 0.481669 0.030207
C4    C     C_1   0.508019 0.033900 0.482954 0.055302
C5    C     C_R   0.614210 0.540715 0.838696 -0.249655
C6    C     C_R   0.392064 0.455477 0.163591 -0.335222
C7    C     C_R   0.615829 0.538706 0.753371 0.308600
C8    C     C_R   0.394814 0.454780 0.249388 0.323809
C9    C     C_R   0.385176 0.461007 0.737894 0.304464
C10   C     C_R   0.603845 0.546369 0.264190 0.320903
C11   C     C_R   0.384650 0.461602 0.823304 -0.249479
C12   C     C_R   0.605113 0.547198 0.178689 -0.329760
C13   C     C_R   0.498729 0.501866 0.874835 0.043307
C14   C     C_R   0.498425 0.501622 0.127275 0.111797
C15   C     C_1   0.498627 0.502130 0.964000 -0.030831
C16   C     C_1   0.498458 0.502013 0.038145 -0.022987
C17   C     C_R   0.203565 0.499988 0.479293 0.899149
C18   C     C_R   0.796321 0.502036 0.520498 0.904471
C19   C     C_2   0.037806 0.498067 0.467610 -0.333701
C20   C     C_2   0.961738 0.507403 0.531264 -0.358306
C21   C     C_R   0.604300 0.850856 0.547016 0.401925
C22   C     C_R   0.608162 0.158739 0.443396 0.361449
C23   C     C_R   0.588288 0.772379 0.557660 0.265502
C24   C     C_R   0.605586 0.238390 0.446954 0.264854
C25   C     C_R   0.495224 0.727683 0.497961 -0.273624
C26   C     C_R   0.512379 0.272478 0.499321 -0.258296
C27   C     C_R   0.403557 0.762791 0.433254 0.382390
C28   C     C_R   0.426909 0.226943 0.549131 0.379028
C29   C     C_R   0.406833 0.842003 0.428920 -0.343396
C30   C     C_R   0.423614 0.148316 0.540868 -0.344847
C31   C     C_R   0.507911 0.885547 0.484703 -0.099082
C32   C     C_R   0.511714 0.114600 0.487910 -0.074796
Cu1   Cu    Cu3+1 0.499990 0.499980 0.580420 0.932762
Cu2   Cu    Cu3+1 0.500010 0.500020 0.419580 0.979820
H1    H     H_    0.978080 0.487338 0.406506 0.162628
H2    H     H_    0.020765 0.520578 0.591615 0.152757
H3    H     H_    0.328938 0.869651 0.383010 0.167023
H4    H     H_    0.351350 0.113510 0.576077 0.176773
H5    H     H_    0.706621 0.571720 0.876943 0.159188
H6    H     H_    0.307716 0.419470 0.125781 0.142610
H7    H     H_    0.293050 0.430353 0.849202 0.156785
H8    H     H_    0.688738 0.583872 0.152804 0.140354
N1    N     N_R   0.499960 0.499970 0.701210 -0.201195
N2    N     N_R   0.500040 0.500030 0.298790 -0.167573
O1    O     O_R   0.499990 0.391240 0.567930 -0.590796
O2    O     O_R   0.500010 0.608760 0.432070 -0.549206
O3    O     O_R   0.500000 0.391270 0.432120 -0.553422
O4    O     O_R   0.500000 0.608730 0.567880 -0.593460
O5    O     O_R   0.274830 0.499990 0.552240 -0.603787
O6    O     O_R   0.725170 0.500010 0.447760 -0.559651
O7    O     O_R   0.274840 0.500020 0.416420 -0.569666
O8    O     O_R   0.725160 0.499980 0.583580 -0.617107
O9    O     O_3   0.705400 0.893678 0.602546 -0.605960
C33   C     C_3   0.842375 0.913822 0.568352 0.053317
H9    H     H_    0.891614 0.967632 0.597610 0.158035
H10   H     H_    0.821105 0.925103 0.501587 0.126127
C34   C     C_3   0.962207 0.853192 0.585927 -0.322817
H11   H     H_    0.981890 0.842159 0.652483 0.227177
H12   H     H_    0.917993 0.799817 0.554024 0.236079
C35   C     C_3   0.116249 0.877708 0.557171 -0.920499
H13   H     H_    0.099666 0.888041 0.490476 0.267480
H14   H     H_    0.199764 0.832415 0.570318 0.261953
H15   H     H_    0.165790 0.930030 0.589507 0.249927
O10   O     O_3   0.697854 0.123561 0.393066 -0.624142
C36   C     C_3   0.848127 0.116353 0.435038 0.071427
H16   H     H_    0.844428 0.090213 0.496155 0.122167
H17   H     H_    0.910233 0.172824 0.442597 0.186753
C37   C     C_3   0.936766 0.065333 0.384997 -0.343244
H18   H     H_    0.879447 0.007808 0.380729 0.214851
H19   H     H_    0.934599 0.088192 0.322325 0.227213
C38   C     C_3   0.104728 0.060038 0.423259 -0.929472
H20   H     H_    0.165975 0.116317 0.422392 0.272091
H21   H     H_    0.163775 0.019668 0.387914 0.258052
H22   H     H_    0.110455 0.039963 0.487056 0.253896
O11   O     O_3   0.672288 0.739406 0.623926 -0.617618
C39   C     C_3   0.600496 0.751512 0.694630 0.119624
H23   H     H_    0.528100 0.700119 0.705549 0.157716
H24   H     H_    0.523339 0.800449 0.690416 0.136653
C40   C     C_3   0.725633 0.765471 0.767608 -0.319452
H25   H     H_    0.809071 0.719717 0.771669 0.235138
H26   H     H_    0.790451 0.819824 0.759178 0.232402
C41   C     C_3   0.655267 0.768851 0.847127 -0.938849
H27   H     H_    0.574112 0.815538 0.845269 0.258684
H28   H     H_    0.748926 0.779139 0.898770 0.256667
H29   H     H_    0.591964 0.714542 0.857500 0.260824
O12   O     O_3   0.711044 0.283328 0.410300 -0.607267
C42   C     C_3   0.670666 0.282890 0.324852 0.115477
H30   H     H_    0.546462 0.295182 0.307645 0.134364
H31   H     H_    0.693013 0.227506 0.298427 0.182976
C43   C     C_3   0.771136 0.343757 0.288649 -0.335612
H32   H     H_    0.743517 0.400204 0.310368 0.241010
H33   H     H_    0.895510 0.334993 0.309739 0.220660
C44   C     C_3   0.745028 0.341774 0.195720 -0.945860
H34   H     H_    0.784898 0.288059 0.172956 0.255041
H35   H     H_    0.811777 0.389712 0.171601 0.260084
H36   H     H_    0.620340 0.346502 0.172903 0.266499
O13   O     O_3   0.296478 0.719173 0.381553 -0.595910
C45   C     C_3   0.326410 0.727487 0.300150 0.089152
H37   H     H_    0.452260 0.723222 0.295289 0.134154
H38   H     H_    0.287041 0.782832 0.275699 0.130807
C46   C     C_3   0.236103 0.664430 0.248605 -0.312475
H39   H     H_    0.272940 0.608767 0.272977 0.241925
H40   H     H_    0.110176 0.667964 0.252407 0.210147
C47   C     C_3   0.263116 0.669924 0.159548 -0.938457
H41   H     H_    0.219228 0.723543 0.132788 0.253386
H42   H     H_    0.200548 0.621777 0.124572 0.261389
H43   H     H_    0.388584 0.667833 0.154294 0.262138
O14   O     O_3   0.334362 0.259140 0.600154 -0.610819
C48   C     C_3   0.391170 0.244802 0.682733 0.071401
H44   H     H_    0.459036 0.295921 0.708492 0.174212
H45   H     H_    0.469148 0.196389 0.692124 0.124269
C49   C     C_3   0.254027 0.228579 0.730034 -0.325590
H46   H     H_    0.170598 0.274169 0.719230 0.245775
H47   H     H_    0.193139 0.174464 0.707906 0.206908
C50   C     C_3   0.307040 0.223017 0.821332 -0.929585
H48   H     H_    0.388546 0.176778 0.833860 0.255001
H49   H     H_    0.205015 0.210762 0.853753 0.255745
H50   H     H_    0.365210 0.277233 0.844955 0.261003
N3    N     N_3   0.747740 0.575711 0.725266 -0.617524
H51   H     H_    0.715976 0.605194 0.672004 0.293666
H52   H     H_    0.828697 0.535599 0.717457 0.228202
N4    N     N_3   0.285620 0.406660 0.284664 -0.539675
H53   H     H_    0.297956 0.351188 0.265902 0.180635
H54   H     H_    0.174262 0.422039 0.261029 0.192562
N5    N     N_3   0.259271 0.418769 0.692477 -0.611024
H55   H     H_    0.168167 0.454437 0.678478 0.215323
H56   H     H_    0.290619 0.395286 0.640193 0.302093
N6    N     N_3   0.712125 0.594639 0.314873 -0.533242
H57   H     H_    0.823804 0.581296 0.304952 0.189817
H58   H     H_    0.695620 0.650358 0.296109 0.184544

loop_
_geom_bond_atom_site_label_1
_geom_bond_atom_site_label_2
_ccdc_geom_bond_type
C21   O9    S    
C42   H30   S    
C44   H34   S    
C27   C29   A    
Cu1   O1    S    
C19   C20   D    
C39   C40   S    
C1    O1    A    
N6    H57   S    
C17   O7    A    
C40   C41   S    
C49   H47   S    
O13   C45   S    
C43   H32   S    
C18   O8    A    
O9    C33   S    
C2    O2    A    
Cu1   O8    S    
C21   C31   A    
Cu2   O7    S    
C46   H39   S    
C22   C32   A    
C35   H15   S    
C39   H24   S    
C22   C24   A    
C24   C26   A    
C48   H45   S    
C34   H12   S    
Cu1   O5    S    
C50   H48   S    
C45   H37   S    
O14   C48   S    
C30   H4    S    
C35   H14   S    
C47   H41   S    
C12   H8    S    
C37   H18   S    
C50   H49   S    
Cu2   O2    S    
C7    N1    A    
C5    C13   A    
C50   H50   S    
C46   H40   S    
C10   N6    S    
C47   H42   S    
C49   H46   S    
N3    H52   S    
C33   H10   S    
C9    N1    A    
Cu2   O6    S    
C10   N2    A    
Cu1   N1    S    
C7    N3    S    
C6    H6    S    
Cu2   N2    S    
C39   H23   S    
C48   C49   S    
C17   O5    A    
C38   H21   S    
O12   C42   S    
C1    O3    A    
C34   C35   S    
C6    C8    A    
C36   H17   S    
C9    N5    S    
C35   H13   S    
O11   C39   S    
C6    C14   A    
C43   H33   S    
C13   C15   S    
C36   C37   S    
Cu1   Cu2   S    
C47   H43   S    
C3    C31   S    
C9    C11   A    
C4    C32   S    
C10   C12   A    
C37   H19   S    
C12   C14   A    
C41   H27   S    
C44   H36   S    
C41   H28   S    
C21   C23   A    
C1    C26   S    
C14   C16   S    
C25   C27   A    
N4    H54   S    
C3    C4    T    
C45   C46   S    
C18   O6    A    
C43   C44   S    
C5    C7    A    
C5    H5    S    
C33   H9    S    
C27   O13   S    
C8    N2    A    
C23   O11   S    
N6    H58   S    
C38   H22   S    
N3    H51   S    
C40   H26   S    
C46   C47   S    
C41   H29   S    
C26   C28   A    
C2    O4    A    
O10   C36   S    
C42   H31   S    
C38   H20   S    
C29   C31   A    
C19   H1    S    
C48   H44   S    
C30   C32   A    
C11   C13   A    
C8    N4    S    
C34   H11   S    
N5    H55   S    
C28   O14   S    
C37   C38   S    
C28   C30   A    
C17   C19   S    
C11   H7    S    
C2    C25   S    
C18   C20   S    
C23   C25   A    
C45   H38   S    
C22   O10   S    
C40   H25   S    
C20   H2    S    
C44   H35   S    
C36   H16   S    
C42   C43   S    
C29   H3    S    
N5    H56   S    
Cu1   O4    S    
Cu2   O3    S    
N4    H53   S    
C24   O12   S    
C49   C50   S    
C15   C16   T    
C33   C34   S    
