data_mof_unit_1559.cif
_audit_creation_date              2012-12-11T14:28:22-0500
_audit_creation_method            fapswitch 2.2
_symmetry_space_group_name_H-M    P1
_symmetry_Int_Tables_number       1
_space_group_crystal_system       triclinic
_cell_length_a                    10.956225
_cell_length_b                    19.030566
_cell_length_c                    18.481018
_cell_angle_alpha                 89.604404
_cell_angle_beta                  90.678767
_cell_angle_gamma                 90.055392
_cell_volume                      3852.98696263

loop_
_atom_site_label
_atom_site_type_symbol
_atom_type_description
_atom_site_fract_x
_atom_site_fract_y
_atom_site_fract_z
_atom_type_partial_charge
C1    C     C_R   0.319070 0.969559 0.645807 0.522840
C2    C     C_3   0.213418 0.740005 0.047375 -0.138191
C3    C     C_3   0.014730 0.206382 0.983077 -0.110286
C4    C     C_3   0.483958 0.286465 0.481627 -0.113403
C5    C     C_3   0.564858 0.316033 0.029097 -0.118883
C6    C     C_3   0.551491 0.688300 0.527021 -0.118780
C7    C     C_3   0.514742 0.706374 0.983074 -0.110281
C8    C     C_3   0.101613 0.814373 0.518023 -0.117029
C9    C     C_3   0.198046 0.808661 0.002556 -0.135249
C10   C     C_3   0.173619 0.205447 0.489656 -0.110124
C11   C     C_3   0.139644 0.177509 0.009525 -0.128793
C12   C     C_3   0.601791 0.314359 0.517995 -0.117042
C13   C     C_3   0.186630 0.273947 0.533503 -0.136768
C14   C     C_3   0.698028 0.308667 0.002552 -0.135243
C15   C     C_3   0.673449 0.705309 0.489677 -0.110114
C16   C     C_3   0.639662 0.677511 0.009522 -0.128802
C17   C     C_3   0.099009 0.751030 0.569147 0.058706
C18   C     C_3   0.149999 0.764291 0.939370 0.059294
C19   C     C_3   0.101501 0.246985 0.431769 0.057972
C20   C     C_3   0.148004 0.238030 0.062275 0.057775
C21   C     C_3   0.599036 0.251038 0.569141 0.058727
C22   C     C_3   0.649997 0.264290 0.939370 0.059293
C23   C     C_3   0.601556 0.746983 0.431779 0.058022
C24   C     C_3   0.207854 0.222812 0.953082 -0.151518
C25   C     C_3   0.648006 0.738029 0.062275 0.057768
C26   C     C_3   0.982500 0.723127 0.534598 -0.155435
C27   C     C_3   0.018294 0.771985 0.964558 -0.118662
C28   C     C_3   0.980806 0.229169 0.467495 -0.140616
C29   C     C_3   0.024770 0.267068 0.037539 -0.117421
C30   C     C_3   0.482459 0.223223 0.534612 -0.155477
C31   C     C_3   0.518292 0.271972 0.964557 -0.118666
C32   C     C_3   0.480729 0.729329 0.467448 -0.140723
C33   C     C_3   0.524767 0.767058 0.037539 -0.117428
C34   C     C_3   0.062101 0.681054 0.482455 -0.107464
C35   C     C_3   0.681627 0.272138 0.465581 -0.152065
C36   C     C_3   0.034018 0.703847 0.009144 -0.107622
C37   C     C_3   0.993614 0.297635 0.511645 -0.103957
C38   C     C_3   0.092179 0.312081 0.981704 -0.105470
C39   C     C_3   0.561933 0.181062 0.482479 -0.107468
C40   C     C_3   0.534032 0.203840 0.009146 -0.107623
C41   C     C_3   0.493794 0.797770 0.511629 -0.103902
C42   C     C_3   0.592163 0.812078 0.981708 -0.105465
C43   C     C_3   0.179828 0.708779 0.517812 -0.098531
C44   C     C_3   0.166052 0.696005 0.983162 -0.100606
C45   C     C_3   0.115211 0.314948 0.474784 -0.110965
C46   C     C_3   0.713418 0.240016 0.047376 -0.138196
C47   C     C_3   0.216594 0.283638 0.007777 -0.117914
C48   C     C_3   0.679730 0.208701 0.517820 -0.098524
C49   C     C_3   0.666066 0.196008 0.983166 -0.100616
C50   C     C_3   0.615526 0.814924 0.474825 -0.110892
C51   C     C_3   0.716584 0.783645 0.007780 -0.117903
C52   C     C_3   0.686715 0.773785 0.533557 -0.136917
C53   C     C_3   0.707859 0.722822 0.953082 -0.151522
C54   C     C_3   0.065415 0.744196 0.430765 0.058357
C55   C     C_3   0.081994 0.748133 0.072480 0.053156
C56   C     C_3   0.066255 0.256429 0.569586 0.060257
C57   C     C_R   0.321561 0.970573 0.852838 0.520359
C58   C     C_3   0.083904 0.251205 0.927774 0.053242
C59   C     C_3   0.565396 0.244182 0.430769 0.058371
C60   C     C_3   0.581994 0.248133 0.072480 0.053156
C61   C     C_3   0.566209 0.756429 0.569584 0.060306
C62   C     C_3   0.583903 0.751205 0.927775 0.053242
C63   C     C_R   0.333742 0.989342 0.421203 -0.047645
C64   C     C_R   0.322530 0.995401 0.074937 -0.046963
C65   C     C_R   0.322734 0.000931 0.572410 -0.046281
C66   C     C_R   0.331988 0.006281 0.923256 -0.045261
C67   C     C_R   0.833743 0.489374 0.421225 -0.047624
C68   C     C_R   0.321698 0.028515 0.352260 0.527207
C69   C     C_R   0.822531 0.495401 0.074937 -0.046970
C70   C     C_R   0.822746 0.500971 0.572431 -0.046317
C71   C     C_R   0.831988 0.506281 0.923255 -0.045259
C72   C     C_R   0.559078 0.993718 0.429891 -0.103015
C73   C     C_R   0.542737 0.973453 0.079149 -0.076952
C74   C     C_R   0.543061 0.024295 0.576833 -0.077474
C75   C     C_R   0.557528 0.005916 0.932059 -0.092682
C76   C     C_R   0.059086 0.493756 0.429911 -0.103148
C77   C     C_R   0.042737 0.473452 0.079149 -0.076949
C78   C     C_R   0.043071 0.524321 0.576856 -0.077451
C79   C     C_R   0.319070 0.029737 0.146626 0.515346
C80   C     C_R   0.057529 0.505916 0.932059 -0.092686
C81   C     C_R   0.664178 0.009331 0.470062 -0.148916
C82   C     C_R   0.655110 0.973287 0.045339 -0.126990
C83   C     C_R   0.655527 0.026128 0.543080 -0.128657
C84   C     C_R   0.663172 0.991655 0.972407 -0.146963
C85   C     C_R   0.164191 0.509342 0.470089 -0.148969
C86   C     C_R   0.155110 0.473285 0.045339 -0.126991
C87   C     C_R   0.155541 0.526144 0.543107 -0.128634
C88   C     C_R   0.163173 0.491654 0.972407 -0.146971
C89   C     C_R   0.436332 0.006288 0.537817 -0.001383
C90   C     C_R   0.819073 0.469568 0.645815 0.522839
C91   C     C_R   0.441666 0.001054 0.964312 -0.006652
C92   C     C_R   0.443090 0.995649 0.462323 -0.006618
C93   C     C_R   0.435586 0.990325 0.039999 -0.003891
C94   C     C_R   0.936342 0.506324 0.537837 -0.001314
C95   C     C_R   0.941667 0.501055 0.964312 -0.006646
C96   C     C_R   0.943095 0.495688 0.462343 -0.006575
C97   C     C_R   0.935587 0.490325 0.039999 -0.003886
C98   C     C_R   0.214459 0.996898 0.529466 0.005012
C99   C     C_R   0.220999 0.015419 0.959194 0.005400
C100  C     C_R   0.223488 0.977072 0.456956 0.006931
C101  C     C_R   0.821561 0.470572 0.852839 0.520351
C102  C     C_R   0.213628 0.996669 0.032424 -0.002968
C103  C     C_R   0.714472 0.496958 0.529490 0.004956
C104  C     C_R   0.720999 0.515417 0.959194 0.005392
C105  C     C_R   0.723486 0.477121 0.456984 0.006900
C106  C     C_R   0.713630 0.496668 0.032425 -0.002968
C107  C     C_R   0.096477 0.008009 0.557431 -0.093932
C108  C     C_R   0.114934 0.039575 0.922173 -0.068635
C109  C     C_R   0.118243 0.953394 0.419269 -0.073735
C110  C     C_R   0.096271 0.987686 0.062185 -0.086891
C111  C     C_R   0.596503 0.508085 0.557464 -0.093835
C112  C     C_R   0.821699 0.528521 0.352266 0.527193
C113  C     C_R   0.614931 0.539569 0.922175 -0.068639
C114  C     C_R   0.618232 0.453437 0.419310 -0.073753
C115  C     C_R   0.596275 0.487679 0.062185 -0.086876
C116  C     C_R   0.992672 0.988799 0.518055 -0.143373
C117  C     C_R   0.001486 0.035830 0.954464 -0.124250
C118  C     C_R   0.003442 0.960074 0.449528 -0.123319
C119  C     C_R   0.992134 0.008840 0.024104 -0.137520
C120  C     C_R   0.492690 0.488855 0.518107 -0.143286
C121  C     C_R   0.501485 0.535821 0.954464 -0.124252
C122  C     C_R   0.503440 0.460121 0.449581 -0.123320
C123  C     C_R   0.819070 0.529737 0.146626 0.515351
C124  C     C_R   0.492136 0.508829 0.024103 -0.137509
C125  C     C_R   0.131902 0.757269 0.644303 0.549605
C126  C     C_R   0.184568 0.771324 0.863912 0.565326
C127  C     C_R   0.134675 0.241805 0.356671 0.551633
C128  C     C_R   0.184514 0.228786 0.136716 0.561729
C129  C     C_R   0.631920 0.257275 0.644296 0.549624
C130  C     C_R   0.684566 0.271323 0.863912 0.565326
C131  C     C_R   0.634714 0.741796 0.356683 0.551695
C132  C     C_R   0.684514 0.728786 0.136716 0.561736
C133  C     C_R   0.541872 0.769511 0.644732 0.545286
C134  C     C_3   0.181576 0.772240 0.465596 -0.152019
C135  C     C_R   0.544359 0.768747 0.854792 0.537789
C136  C     C_R   0.542151 0.230584 0.355375 0.544106
C137  C     C_R   0.542570 0.230745 0.144853 0.539969
C138  C     C_R   0.041896 0.269504 0.644739 0.545242
C139  C     C_R   0.044360 0.268746 0.854792 0.537782
C140  C     C_R   0.042169 0.730592 0.355369 0.544080
C141  C     C_R   0.042571 0.730745 0.144854 0.539965
C142  C     C_3   0.983852 0.786394 0.481637 -0.113403
C143  C     C_3   0.064876 0.816037 0.029102 -0.118889
C144  C     C_3   0.051799 0.188278 0.527055 -0.118826
Cr1   Cr    Cr6+3 0.488160 0.884660 0.750000 1.000365
Cr2   Cr    Cr6+3 0.333410 0.272740 0.250000 0.988760
Cr3   Cr    Cr6+3 0.833410 0.227260 0.750000 0.990491
Cr4   Cr    Cr6+3 0.833410 0.772740 0.250000 0.988749
Cr5   Cr    Cr6+3 0.488160 0.115340 0.250000 0.998029
Cr6   Cr    Cr6+3 0.988160 0.384660 0.750000 1.000363
Cr7   Cr    Cr6+3 0.988160 0.615340 0.250000 0.998026
Cr8   Cr    Cr6+3 0.173480 0.883120 0.750000 1.008228
Cr9   Cr    Cr6+3 0.173480 0.116880 0.250000 1.009932
Cr10  Cr    Cr6+3 0.673480 0.383120 0.750000 1.008243
Cr11  Cr    Cr6+3 0.673480 0.616880 0.250000 1.009942
Cr12  Cr    Cr6+3 0.333410 0.727260 0.750000 0.990482
H1    H     H_    0.904920 0.818724 0.463577 0.131385
H2    H     H_    0.941929 0.786333 0.927480 0.125268
H3    H     H_    0.902221 0.208197 0.436199 0.113637
H4    H     H_    0.956750 0.288755 0.075155 0.111191
H5    H     H_    0.406459 0.200729 0.566353 0.099019
H6    H     H_    0.441923 0.286308 0.927475 0.125266
H7    H     H_    0.402106 0.708473 0.436090 0.113597
H8    H     H_    0.456743 0.788732 0.075157 0.111198
H9    H     H_    0.039490 0.628129 0.463371 0.163868
H10   H     H_    0.965577 0.660959 0.013568 0.120134
H11   H     H_    0.919984 0.335883 0.523220 0.123595
H12   H     H_    0.015576 0.861642 0.050736 0.116320
H13   H     H_    0.065628 0.366039 0.966923 0.158013
H14   H     H_    0.539207 0.128143 0.463421 0.163779
H15   H     H_    0.465603 0.160946 0.013573 0.120145
H16   H     H_    0.420287 0.836116 0.523177 0.123639
H17   H     H_    0.565601 0.866038 0.966932 0.158003
H18   H     H_    0.258832 0.675549 0.534084 0.132596
H19   H     H_    0.207857 0.646702 0.963482 0.126961
H20   H     H_    0.144165 0.365510 0.450918 0.133627
H21   H     H_    0.296272 0.317065 0.021588 0.118978
H22   H     H_    0.758672 0.175430 0.534099 0.132600
H23   H     H_    0.021423 0.138508 0.551924 0.114932
H24   H     H_    0.707877 0.146707 0.963490 0.126955
H25   H     H_    0.644738 0.865476 0.451014 0.133577
H26   H     H_    0.796258 0.817075 0.021593 0.118982
H27   H     H_    0.569360 0.979936 0.373587 0.130613
H28   H     H_    0.539461 0.957730 0.135518 0.128116
H29   H     H_    0.539428 0.040083 0.632927 0.125754
H30   H     H_    0.567217 0.020414 0.875712 0.134974
H31   H     H_    0.069371 0.479975 0.373607 0.130617
H32   H     H_    0.039461 0.457729 0.135518 0.128114
H33   H     H_    0.039437 0.540105 0.632952 0.125725
H34   H     H_    0.931431 0.175434 0.971020 0.119222
H35   H     H_    0.067218 0.520413 0.875711 0.134972
H36   H     H_    0.124900 0.931734 0.365376 0.121545
H37   H     H_    0.084233 0.965251 0.115618 0.133015
H38   H     H_    0.083419 0.031440 0.609960 0.130657
H39   H     H_    0.120247 0.062006 0.868236 0.126782
H40   H     H_    0.624877 0.431757 0.365421 0.121565
H41   H     H_    0.584241 0.465241 0.115618 0.133011
H42   H     H_    0.583473 0.531527 0.609988 0.130640
H43   H     H_    0.620240 0.561996 0.868237 0.126792
H44   H     H_    0.120886 0.866877 0.539750 0.163600
H45   H     H_    0.405080 0.318831 0.463561 0.131381
H46   H     H_    0.266971 0.851122 0.997524 0.114529
H47   H     H_    0.246547 0.166870 0.477742 0.123218
H48   H     H_    0.163691 0.126044 0.031871 0.150030
H49   H     H_    0.621199 0.366857 0.539693 0.163523
H50   H     H_    0.766944 0.351131 0.997516 0.114536
H51   H     H_    0.746258 0.666636 0.477796 0.123246
H52   H     H_    0.663726 0.626050 0.031860 0.150017
H53   H     H_    0.904601 0.993621 0.542175 0.105259
H54   H     H_    0.921748 0.054945 0.925556 0.098253
H55   H     H_    0.923462 0.942839 0.419734 0.102853
H56   H     H_    0.515539 0.361637 0.050723 0.116315
H57   H     H_    0.905169 0.006962 0.050040 0.104154
H58   H     H_    0.404630 0.493679 0.542238 0.105224
H59   H     H_    0.421745 0.554932 0.925556 0.098250
H60   H     H_    0.423455 0.442882 0.419795 0.102834
H61   H     H_    0.405172 0.506945 0.050039 0.104149
H62   H     H_    0.257170 0.795508 0.434113 0.098179
H63   H     H_    0.288002 0.724120 0.084980 0.119235
H64   H     H_    0.266361 0.294253 0.564327 0.118236
H65   H     H_    0.279368 0.202826 0.916560 0.104490
H66   H     H_    0.757261 0.295303 0.434063 0.098198
H67   H     H_    0.520827 0.638546 0.551833 0.114913
H68   H     H_    0.788006 0.224141 0.084982 0.119233
H69   H     H_    0.766485 0.793976 0.564443 0.118180
H70   H     H_    0.779378 0.702845 0.916560 0.104495
H71   H     H_    0.751363 0.011135 0.443601 0.110974
H72   H     H_    0.734554 0.956772 0.075941 0.107311
H73   H     H_    0.734639 0.042840 0.573760 0.103286
H74   H     H_    0.750264 0.991197 0.945967 0.109659
H75   H     H_    0.251379 0.511136 0.443629 0.111001
H76   H     H_    0.234552 0.456767 0.075940 0.107313
H77   H     H_    0.234651 0.542854 0.573787 0.103294
H78   H     H_    0.431448 0.675420 0.971016 0.119225
H79   H     H_    0.250265 0.491189 0.945966 0.109657
H80   H     H_    0.906535 0.700531 0.566304 0.099001
O1    O     O_R   0.575450 0.828820 0.667950 -0.512782
O2    O     O_R   0.416860 0.942890 0.825320 -0.512154
O3    O     O_R   0.416860 0.057110 0.325320 -0.509350
O4    O     O_R   0.416860 0.057110 0.174680 -0.502948
O5    O     O_R   0.916860 0.442890 0.674680 -0.498877
O6    O     O_R   0.916860 0.442890 0.825320 -0.512159
O7    O     O_R   0.916860 0.557110 0.325320 -0.509348
O8    O     O_R   0.916860 0.557110 0.174680 -0.502944
O9    O     O_R   0.213790 0.953680 0.668330 -0.529868
O10   O     O_R   0.213790 0.953680 0.831670 -0.520783
O11   O     O_R   0.213790 0.046320 0.331670 -0.510896
O12   O     O_R   0.575450 0.828820 0.832050 -0.520771
O13   O     O_R   0.213790 0.046320 0.168330 -0.536873
O14   O     O_R   0.713790 0.453680 0.668330 -0.529841
O15   O     O_R   0.713790 0.453680 0.831670 -0.520791
O16   O     O_R   0.713790 0.546320 0.331670 -0.510916
O17   O     O_R   0.713790 0.546320 0.168330 -0.536863
O18   O     O_R   0.121360 0.817890 0.672660 -0.503745
O19   O     O_R   0.121360 0.817890 0.827340 -0.499754
O20   O     O_R   0.121360 0.182110 0.327340 -0.493590
O21   O     O_R   0.121360 0.182110 0.172660 -0.503427
O22   O     O_R   0.621360 0.317890 0.672660 -0.503722
O23   O     O_R   0.575450 0.171180 0.332050 -0.521651
O24   O     O_R   0.621360 0.317890 0.827340 -0.499752
O25   O     O_R   0.621360 0.682110 0.327340 -0.493600
O26   O     O_R   0.621360 0.682110 0.172660 -0.503418
O27   O     O_R   0.206850 0.711370 0.665820 -0.530670
O28   O     O_R   0.206850 0.711370 0.834180 -0.536181
O29   O     O_R   0.206850 0.288630 0.334180 -0.535413
O30   O     O_R   0.206850 0.288630 0.165820 -0.531590
O31   O     O_R   0.706850 0.211370 0.665820 -0.530676
O32   O     O_R   0.706850 0.211370 0.834180 -0.536176
O33   O     O_R   0.706850 0.788630 0.334180 -0.535453
O34   O     O_R   0.575450 0.171180 0.167950 -0.511800
O35   O     O_R   0.706850 0.788630 0.165820 -0.531585
O36   O     O_R   0.457710 0.733190 0.672630 -0.515066
O37   O     O_R   0.457710 0.733190 0.827370 -0.529595
O38   O     O_R   0.457710 0.266810 0.327370 -0.514334
O39   O     O_R   0.457710 0.266810 0.172630 -0.532900
O40   O     O_R   0.957710 0.233190 0.672630 -0.515037
O41   O     O_R   0.957710 0.233190 0.827370 -0.529596
O42   O     O_R   0.957710 0.766810 0.327370 -0.514331
O43   O     O_R   0.957710 0.766810 0.172630 -0.532905
O44   O     O_3   0.331690 0.831680 0.750000 -0.266243
O45   O     O_R   0.075450 0.328820 0.667950 -0.512774
O46   O     O_3   0.331690 0.168320 0.250000 -0.268412
O47   O     O_3   0.831690 0.331680 0.750000 -0.266248
O48   O     O_3   0.831690 0.668320 0.250000 -0.268410
O49   O     O_R   0.075450 0.328820 0.832050 -0.520777
O50   O     O_R   0.075450 0.671180 0.332050 -0.521676
O51   O     O_R   0.075450 0.671180 0.167950 -0.511798
O52   O     O_R   0.416860 0.942890 0.674680 -0.498895

loop_
_geom_bond_atom_site_label_1
_geom_bond_atom_site_label_2
_ccdc_geom_bond_type
C6    C32   S    
C71   C104  A    
C73   C82   A    
C44   H19   S    
C73   C93   A    
C74   C83   A    
Cr9   O21   S    
C9    C143  S    
C61   C133  S    
C27   H2    S    
C65   C89   A    
C90   O14   A    
C114  H40   S    
C117  H54   S    
C2    C55   S    
C117  C119  A    
C86   C88   A    
C71   C95   A    
C69   C123  S    
C54   C134  S    
C32   H7    S    
C46   H68   S    
C37   C56   S    
C50   C52   S    
C28   C144  S    
Cr6   O49   S    
C41   C61   S    
C4    C12   S    
C84   H74   S    
C21   C48   S    
C100  C109  A    
C22   C130  S    
C7    C33   S    
Cr3   O41   S    
C109  C118  A    
C11   C20   S    
C140  O42   A    
C141  O43   A    
C14   C46   S    
C70   C103  A    
C67   C105  A    
C82   H72   S    
C137  O39   A    
C17   C43   S    
C7    C62   S    
C116  H53   S    
C18   C44   S    
C137  O34   A    
C113  H43   S    
C108  H39   S    
C94   C96   A    
Cr8   O9    S    
C22   C49   S    
C34   C54   S    
C82   C84   A    
C14   H50   S    
C64   C79   S    
C36   C44   S    
C37   C45   S    
Cr10  O24   S    
C38   H13   S    
C26   H80   S    
C16   C25   S    
C5    H56   S    
C127  O29   A    
C46   C60   S    
C139  O41   A    
Cr2   O38   S    
Cr7   O51   S    
C130  O24   A    
C95   C97   A    
C63   C68   S    
C8    C17   S    
C87   H77   S    
Cr4   O43   S    
C106  C115  A    
C52   C61   S    
C12   H49   S    
C80   C88   A    
C36   C55   S    
C1    O9    A    
C76   C96   A    
C13   C45   S    
C4    H45   S    
C78   C94   A    
C138  O45   A    
Cr5   O3    S    
C116  C118  A    
Cr6   O47   S    
C20   C47   S    
C3    C11   S    
C9    H46   S    
Cr7   O7    S    
Cr11  O25   S    
C67   C112  S    
C51   C53   S    
C76   C85   A    
C40   H15   S    
C78   C87   A    
C40   C60   S    
C85   H75   S    
C57   C66   S    
C48   H22   S    
C24   H65   S    
Cr11  O16   S    
C64   C102  A    
C99   C108  A    
C33   C42   S    
C121  H59   S    
C6    C61   S    
C103  C111  A    
Cr5   O34   S    
C75   C84   A    
C40   C49   S    
C59   C136  S    
C3    C29   S    
Cr1   O52   S    
Cr12  O28   S    
Cr6   O5    S    
C2    C44   S    
C29   C38   S    
C1    C65   S    
C32   C41   S    
C77   C97   A    
C34   H9    S    
C42   C62   S    
Cr10  O22   S    
C75   C91   A    
C11   H48   S    
C13   C56   S    
C7    H78   S    
C78   H33   S    
C133  O1    A    
C79   O4    A    
C81   C83   A    
C29   H4    S    
C55   C143  S    
C8    C134  S    
Cr10  O14   S    
C118  H55   S    
C135  O37   A    
Cr6   O45   S    
C62   C135  S    
Cr2   O29   S    
C101  O6    A    
C27   C143  S    
Cr1   O2    S    
C110  H37   S    
C23   C131  S    
C103  C105  A    
C10   C144  S    
C12   C35   S    
C19   C28   S    
C21   C129  S    
C8    H44   S    
C75   H30   S    
C132  O26   A    
C88   H79   S    
C124  H61   S    
C5    C60   S    
Cr9   O46   S    
Cr4   O33   S    
C34   C43   S    
C57   O10   A    
C110  C119  A    
C19   C45   S    
C80   C95   A    
C86   H76   S    
C128  O21   A    
C14   C22   S    
Cr7   O48   S    
C18   C126  S    
C28   C37   S    
C122  H60   S    
C30   C39   S    
C1    O52   A    
C13   H64   S    
C125  O18   A    
C107  C116  A    
C104  C113  A    
C50   H25   S    
C9    C18   S    
C113  C121  A    
C77   H32   S    
C128  O30   A    
C140  O50   A    
C25   C132  S    
C141  O51   A    
C107  H38   S    
C15   H51   S    
C25   C33   S    
C131  O25   A    
C69   C97   A    
C55   C141  S    
C104  C106  A    
C37   H11   S    
C115  H41   S    
C46   C49   S    
C70   C94   A    
C65   C98   A    
Cr12  O44   S    
C111  H42   S    
C72   C92   A    
C109  H36   S    
C31   C40   S    
C35   C59   S    
Cr5   O23   S    
C38   C58   S    
Cr4   O48   S    
C10   H47   S    
Cr8   O10   S    
C72   C81   A    
Cr2   O46   S    
C130  O32   A    
C71   C101  S    
C31   H6    S    
Cr4   O35   S    
Cr10  O47   S    
C101  O15   A    
C35   C48   S    
C108  C117  A    
Cr2   O39   S    
C35   H66   S    
Cr3   O32   S    
C133  O36   A    
C83   H73   S    
C134  H62   S    
C10   C13   S    
C98   C107  A    
C43   C134  S    
C53   H70   S    
C91   C93   A    
Cr3   O47   S    
C10   C19   S    
C39   C59   S    
C125  O27   A    
C136  O23   A    
C126  O28   A    
C15   C52   S    
C5    C14   S    
C76   H31   S    
C7    C16   S    
C54   C142  S    
C98   C100  A    
C2    H63   S    
C80   H35   S    
C3    H34   S    
C142  H1    S    
C41   C50   S    
C6    H67   S    
C115  C124  A    
C136  O38   A    
C72   H27   S    
C23   C50   S    
C68   O3    A    
Cr8   O19   S    
C69   C106  A    
Cr12  O36   S    
C27   C36   S    
C21   C30   S    
C23   C32   S    
Cr9   O11   S    
C123  O17   A    
C56   C144  S    
C3    C58   S    
Cr6   O6    S    
C99   C102  A    
C24   C58   S    
C8    C142  S    
C30   H5    S    
C39   C48   S    
C58   C139  S    
Cr11  O17   S    
C51   H26   S    
C132  O35   A    
C17   C26   S    
C74   C89   A    
C64   C93   A    
C20   C128  S    
C39   H14   S    
C43   H18   S    
Cr10  O15   S    
C120  H58   S    
C11   C24   S    
Cr5   O4    S    
C139  O49   A    
Cr11  O48   S    
Cr2   O30   S    
C16   C53   S    
C121  C124  A    
Cr8   O44   S    
C6    C15   S    
Cr11  O26   S    
C26   C34   S    
C112  O7    A    
C54   C140  S    
Cr4   O42   S    
Cr1   O1    S    
C63   C92   A    
Cr5   O46   S    
C126  O19   A    
Cr3   O40   S    
C129  O31   A    
C60   C137  S    
C49   H24   S    
C15   C23   S    
Cr7   O8    S    
C79   O13   A    
C70   C90   S    
C123  O8    A    
C120  C122  A    
C112  O16   A    
C20   C29   S    
C85   C87   A    
C68   O11   A    
C41   H16   S    
C22   C31   S    
C127  O20   A    
C105  C114  A    
C33   H8    S    
Cr3   O31   S    
C129  O22   A    
C45   H20   S    
C73   H28   S    
Cr9   O13   S    
C12   C21   S    
C28   H3    S    
C138  O40   A    
C111  C120  A    
C66   C99   A    
C25   C51   S    
C63   C100  A    
Cr12  O27   S    
C56   C138  S    
C53   C62   S    
C131  O33   A    
C144  H23   S    
C36   H10   S    
Cr12  O37   S    
C89   C92   A    
C38   C47   S    
Cr9   O20   S    
C77   C86   A    
C119  H57   S    
C67   C96   A    
Cr1   O44   S    
Cr7   O50   S    
C81   H71   S    
Cr1   O12   S    
C24   C47   S    
C135  O12   A    
C18   C27   S    
C57   O2    A    
C16   H52   S    
C42   H17   S    
C66   C91   A    
C42   C51   S    
C74   H29   S    
C47   H21   S    
Cr8   O18   S    
C2    C9    S    
C17   C125  S    
C4    C59   S    
C19   C127  S    
C143  H12   S    
C102  C110  A    
C114  C122  A    
C52   H69   S    
C90   O5    A    
C26   C142  S    
C4    C30   S    
C5    C31   S    
