data_mof_unit_3926.cif
_audit_creation_date              2013-03-05T15:48:44-0500
_audit_creation_method            fapswitch 2.2
_symmetry_space_group_name_H-M    P1
_symmetry_Int_Tables_number       1
_space_group_crystal_system       triclinic
_cell_length_a                    10.965559
_cell_length_b                    12.974953
_cell_length_c                    11.816543
_cell_angle_alpha                 100.572951
_cell_angle_beta                  95.225969
_cell_angle_gamma                 93.115933
_cell_volume                      1641.47299965

loop_
_atom_site_label
_atom_site_type_symbol
_atom_site_description
_atom_site_fract_x
_atom_site_fract_y
_atom_site_fract_z
_atom_type_partial_charge
O1    O     O_R   0.506640 0.354460 0.582000 -0.498334
O2    O     O_R   0.490840 0.341410 0.386200 -0.562490
C1    C     C_R   0.513606 0.300275 0.477809 0.915155
O3    O     O_R   0.325590 0.506510 0.597900 -0.557889
O4    O     O_R   0.309790 0.493450 0.402100 -0.536794
C2    C     C_R   0.260431 0.508983 0.500109 0.959620
Cu1   Cu    Cu3+1 0.509350 0.507730 0.615930 1.072388
Cu2   Cu    Cu3+1 0.490650 0.492270 0.384070 1.020758
O5    O     O_R   0.509160 0.658590 0.613800 -0.574596
O6    O     O_R   0.493360 0.645540 0.418000 -0.589666
O7    O     O_R   0.690210 0.506550 0.597900 -0.581134
O8    O     O_R   0.674410 0.493490 0.402100 -0.632354
C3    C     C_R   0.497070 0.701087 0.522685 0.842309
C4    C     C_R   0.739579 0.501784 0.501660 0.792598
C5    C     C_3   0.082082 0.534631 0.629650 -0.083213
H1    H     H_    0.102318 0.463323 0.663028 0.273775
C6    C     C_3   0.940126 0.545512 0.629884 -0.039246
H2    H     H_    0.904991 0.496851 0.689379 0.238286
H3    H     H_    0.875537 0.657340 0.451191 0.209529
C7    C     C_3   0.065754 0.604142 0.436878 0.548291
C8    C     C_3   0.056588 0.397780 0.430968 0.200262
C9    C     C_3   0.120774 0.512598 0.498728 -0.266891
C10   C     C_3   0.876899 0.502969 0.504376 -0.105598
C11   C     C_3   0.920755 0.582919 0.428426 -0.508238
C12   C     C_3   0.915430 0.386731 0.455275 0.293516
H4    H     H_    0.881361 0.552427 0.338581 0.202873
C13   C     C_R   0.491883 0.815931 0.538060 -0.123469
C14   C     C_R   0.535545 0.186594 0.462020 -0.193414
C15   C     C_R   0.481682 0.011461 0.342653 0.161483
C16   C     C_R   0.512249 0.119841 0.350386 0.138105
C17   C     C_R   0.566973 0.140392 0.560021 0.300131
C18   C     C_R   0.529821 0.033682 0.552684 -0.048384
C19   C     C_R   0.492760 0.968484 0.444172 0.069924
C20   C     C_R   0.476063 0.859724 0.438676 -0.194858
C21   C     C_R   0.507445 0.883251 0.647774 0.333910
C22   C     C_R   0.527077 0.991119 0.653481 -0.086309
H5    H     H_    0.455866 0.807206 0.356114 0.194397
H6    H     H_    0.537913 0.042094 0.737833 0.239903
N1    N     N_R   0.523430 0.519360 0.790130 -0.270912
N2    N     N_R   0.476570 0.480640 0.209880 -0.242043
C23   C     C_R   0.433635 0.375599 0.017738 0.217821
C24   C     C_R   0.411720 0.397893 0.134747 0.369196
C25   C     C_R   0.549585 0.551241 0.161435 0.282896
C26   C     C_R   0.545615 0.545237 0.036560 -0.037564
C27   C     C_R   0.482337 0.455647 0.965546 -0.227526
C28   C     C_R   0.463918 0.448295 0.843036 0.518178
C29   C     C_R   0.595372 0.600446 0.854673 0.070625
C30   C     C_R   0.604550 0.620144 0.976791 0.105980
H7    H     H_    0.641416 0.653798 0.809224 0.159183
C31   C     C_3   0.155150 0.619529 0.727175 -0.599013
H8    H     H_    0.119145 0.613220 0.810732 0.220523
H9    H     H_    0.253629 0.609645 0.744544 0.270529
H10   H     H_    0.145240 0.701255 0.716118 0.283006
C32   C     C_3   0.829189 0.335306 0.342488 -0.759845
H11   H     H_    0.812766 0.386442 0.278206 0.218420
H12   H     H_    0.863222 0.260667 0.299043 0.270435
H13   H     H_    0.737880 0.313495 0.366727 0.227024
N3    N     N_R   0.106173 0.606814 0.320428 0.111297
O9    O     O_R   0.219224 0.638036 0.311949 -0.300896
O10   O     O_R   0.026638 0.611259 0.232852 -0.364401
N4    N     N_R   0.502121 0.845066 0.753872 0.125877
O11   O     O_R   0.578726 0.886128 0.843456 -0.365616
O12   O     O_R   0.404600 0.789740 0.769274 -0.324710
C33   C     C_3   0.434606 0.941338 0.227278 -0.740589
H14   H     H_    0.415632 0.983408 0.155027 0.262910
H15   H     H_    0.502748 0.883896 0.201903 0.204307
H16   H     H_    0.346029 0.898953 0.235450 0.262805
C34   C     C_3   0.534987 0.157224 0.238838 -0.666126
H17   H     H_    0.595091 0.103156 0.189681 0.232331
H18   H     H_    0.447763 0.157287 0.183950 0.282398
H19   H     H_    0.584345 0.234895 0.249980 0.219974
N5    N     N_R   0.654990 0.192359 0.656654 0.179689
O13   O     O_R   0.686772 0.292323 0.674320 -0.285502
O14   O     O_R   0.726293 0.135806 0.710400 -0.263209
N6    N     N_R   0.365269 0.378765 0.778770 0.165632
O15   O     O_R   0.386456 0.284784 0.727865 -0.243693
O16   O     O_R   0.253935 0.396442 0.802477 -0.313511
N7    N     N_R   0.426060 0.267723 0.958191 0.159052
O17   O     O_R   0.521511 0.231090 0.911094 -0.311271
O18   O     O_R   0.334905 0.201936 0.966303 -0.230531
C35   C     C_3   0.672095 0.724956 0.031863 -0.753996
H20   H     H_    0.702155 0.769934 0.966738 0.256205
H21   H     H_    0.610241 0.776131 0.080975 0.238071
H22   H     H_    0.758732 0.715842 0.083298 0.244848
N8    N     N_R   0.304198 0.345492 0.164162 0.119998
O19   O     O_R   0.204305 0.335994 0.093178 -0.297952
O20   O     O_R   0.308508 0.290940 0.245794 -0.333673
C36   C     C_3   0.641286 0.632664 0.235901 -0.702660
H23   H     H_    0.658903 0.632484 0.326687 0.253952
H24   H     H_    0.733279 0.620435 0.206660 0.212121
H25   H     H_    0.611548 0.712414 0.235257 0.197525
C37   C     C_3   0.903348 0.657640 0.683607 -0.779298
H26   H     H_    0.950280 0.720885 0.649853 0.285168
H27   H     H_    0.804207 0.667744 0.668171 0.226948
H28   H     H_    0.925114 0.673177 0.779084 0.237946
N9    N     N_R   0.104550 0.709577 0.505767 0.119825
O21   O     O_R   0.040366 0.788384 0.490409 -0.307594
O22   O     O_R   0.220435 0.731738 0.541403 -0.357886
C38   C     C_3   0.064972 0.385992 0.297800 -0.634115
H29   H     H_    0.996644 0.427128 0.252732 0.220252
H30   H     H_    0.150932 0.419715 0.278980 0.291380
H31   H     H_    0.054809 0.302915 0.251901 0.286906
N10   N     N_R   0.119559 0.307643 0.465310 0.184124
O23   O     O_R   0.085756 0.212175 0.411075 -0.252208
O24   O     O_R   0.199887 0.318659 0.555205 -0.273501
N11   N     N_R   0.898107 0.313060 0.538096 0.179961
O25   O     O_R   0.841632 0.220216 0.501418 -0.280719
O26   O     O_R   0.958137 0.327557 0.640309 -0.279094

loop_
_geom_bond_atom_site_label_1
_geom_bond_atom_site_label_2
_geom_bond_distance
_ccdc_geom_bond_type
N5    O14   1.302316 A    
C20   H5    1.079552 S    
C23   C24   1.405144 A    
C21   C22   1.392728 A    
N6    O15   1.299933 A    
C35   H20   1.109743 S    
Cu1   Cu2   2.698185 S    
C29   H7    1.081828 S    
N8    O19   1.303309 A    
Cu1   O7    2.014426 S    
C6    C10   1.567017 S    
C25   C36   1.511196 S    
C18   C22   1.403796 A    
C1    C14   1.487981 S    
C5    C9    1.620355 S    
C11   H4    1.101802 S    
O4    C2    1.309669 A    
C8    C38   1.564475 S    
O7    C4    1.296209 A    
N7    O18   1.300643 A    
N11   O25   1.304192 A    
N3    O10   1.303008 A    
C5    H1    1.095954 S    
C2    C9    1.533370 S    
C15   C19   1.411035 A    
C30   C35   1.516382 S    
C5    C6    1.570841 S    
C5    C31   1.566347 S    
N4    O12   1.300750 A    
O5    C3    1.296389 A    
N2    C25   1.415652 A    
C29   C30   1.411784 A    
C34   H17   1.111038 S    
N9    O22   1.301208 A    
C31   H9    1.099564 S    
C10   C11   1.574436 S    
N2    C24   1.377967 A    
C7    N9    1.476514 S    
C15   C33   1.522667 S    
C8    C9    1.643625 S    
C6    C37   1.566443 S    
O3    Cu1   2.005762 S    
C28   N6    1.433030 S    
C35   H21   1.103169 S    
C12   N11   1.504986 S    
C19   C20   1.401864 A    
N8    O20   1.295988 A    
C13   C20   1.396642 A    
C32   H12   1.110152 S    
C31   H10   1.101857 S    
C33   H16   1.110710 S    
C7    C11   1.589743 S    
C12   C32   1.578352 S    
N10   O24   1.298011 A    
C23   N7    1.440983 S    
N7    O17   1.301645 A    
C31   H8    1.111139 S    
N3    O9    1.301474 A    
C27   C28   1.428134 A    
C37   H28   1.110269 S    
O1    C1    1.311952 A    
C33   H15   1.105936 S    
C4    C10   1.502387 S    
C25   C26   1.459816 A    
C15   C16   1.412163 A    
C38   H29   1.097715 S    
C36   H25   1.102831 S    
Cu2   O8    2.005761 S    
N9    O21   1.302644 A    
C37   H27   1.104744 S    
C6    H2    1.107746 S    
C21   N4    1.434846 S    
C24   N8    1.430891 S    
N6    O16   1.300265 A    
N1    C28   1.373802 A    
O3    C2    1.308636 A    
C17   N5    1.461497 S    
C38   H30   1.076315 S    
C36   H24   1.105849 S    
C14   C17   1.422574 A    
C7    N3    1.489314 S    
C35   H22   1.104230 S    
C26   C27   1.408959 A    
N1    C29   1.347814 A    
Cu1   O5    1.962287 S    
C8    C12   1.603411 S    
C32   H11   1.105735 S    
C23   C27   1.406775 A    
O1    Cu1   1.953265 S    
C17   C18   1.406656 A    
O2    Cu2   1.962287 S    
C7    C9    1.620216 S    
N5    O13   1.298281 A    
O6    C3    1.308352 A    
O4    Cu2   2.014424 S    
C13   C21   1.414486 A    
C33   H14   1.105062 S    
C14   C16   1.432059 A    
O2    C1    1.302410 A    
O8    C4    1.303196 A    
C18   C19   1.412288 A    
N11   O26   1.298392 A    
C34   H19   1.097685 S    
C22   H6    1.083065 S    
C37   H26   1.099510 S    
H3    C11   1.109795 S    
C10   C12   1.607051 S    
N4    O11   1.300947 A    
C8    N10   1.490029 S    
C38   H31   1.108995 S    
C36   H23   1.073039 S    
Cu2   O6    1.953265 S    
N10   O23   1.303054 A    
C34   H18   1.105788 S    
Cu1   N1    2.027158 S    
C3    C13   1.472535 S    
Cu2   N2    2.027043 S    
C16   C34   1.521901 S    
C26   C30   1.458720 A    
C32   H13   1.102645 S    
