data_mof_unit_1742.cif
_audit_creation_date              2012-12-10T20:50:56-0500
_audit_creation_method            fapswitch 2.2
_symmetry_space_group_name_H-M    P1
_symmetry_Int_Tables_number       1
_space_group_crystal_system       triclinic
_cell_length_a                    27.680343
_cell_length_b                    8.911256
_cell_length_c                    8.093897
_cell_angle_alpha                 90.053093
_cell_angle_beta                  91.412092
_cell_angle_gamma                 90.010221
_cell_volume                      1995.88702676

loop_
_atom_site_label
_atom_site_type_symbol
_atom_type_description
_atom_site_fract_x
_atom_site_fract_y
_atom_site_fract_z
_atom_type_partial_charge
C1    C     C_R   0.499998 0.217985 0.499951 0.949006
C2    C     C_R   0.050103 0.513629 0.474861 0.069073
C3    C     C_R   0.949750 0.236285 0.405357 -0.311602
C4    C     C_R   0.050238 0.763538 0.594584 -0.311612
C5    C     C_R   0.949983 0.718381 0.682338 -0.275579
C6    C     C_R   0.050011 0.281422 0.317652 -0.275590
C7    C     C_1   0.499999 0.065228 0.499930 -0.172902
C8    C     C_1   0.500001 0.934772 0.500070 -0.172901
C9    C     C_R   0.405662 0.501092 0.497729 0.877841
C10   C     C_R   0.594337 0.498899 0.502270 0.877866
C11   C     C_R   0.177033 0.411671 0.381756 0.540350
C12   C     C_R   0.500002 0.782015 0.500049 0.949028
C13   C     C_R   0.822961 0.588113 0.618294 0.540155
C14   C     C_R   0.177006 0.644319 0.528216 0.533948
C15   C     C_R   0.822984 0.355528 0.471714 0.534048
C16   C     C_R   0.279023 0.540290 0.328077 -0.078282
C17   C     C_R   0.720969 0.459299 0.671867 -0.078122
C18   C     C_R   0.275817 0.498490 0.623882 -0.033826
C19   C     C_R   0.724184 0.501642 0.376145 -0.034087
C20   C     C_R   0.329051 0.532269 0.337288 -0.190023
C21   C     C_R   0.670941 0.467366 0.662663 -0.189952
C22   C     C_R   0.326035 0.491474 0.633693 -0.182498
C23   C     C_R   0.352919 0.507696 0.490107 -0.048308
C24   C     C_R   0.673967 0.508711 0.366338 -0.182274
C25   C     C_R   0.252337 0.522797 0.470978 0.305423
C26   C     C_R   0.747658 0.477041 0.529006 0.305511
C27   C     C_R   0.100816 0.524193 0.456490 -0.095621
C28   C     C_R   0.899175 0.475621 0.543489 -0.095640
C29   C     C_R   0.126172 0.406958 0.377898 -0.054570
C30   C     C_R   0.873821 0.592842 0.622116 -0.054561
C31   C     C_R   0.126232 0.651070 0.518867 -0.037911
C32   C     C_R   0.873757 0.348760 0.481078 -0.037947
C33   C     C_R   0.099785 0.289701 0.299850 0.068368
C34   C     C_R   0.647078 0.492243 0.509889 -0.048222
C35   C     C_R   0.900210 0.710100 0.700156 0.068388
C36   C     C_R   0.099839 0.776796 0.574340 -0.012848
C37   C     C_R   0.900147 0.223038 0.425584 -0.012725
C38   C     C_2   0.122586 0.174795 0.195681 0.087634
C39   C     C_2   0.877411 0.825021 0.804310 0.087503
C40   C     C_2   0.120917 0.928246 0.602001 0.513888
C41   C     C_2   0.879065 0.071596 0.397893 0.513646
C42   C     C_R   0.974914 0.369781 0.444433 0.064242
C43   C     C_R   0.025076 0.630033 0.555532 0.064261
C44   C     C_R   0.975126 0.613684 0.586144 0.038445
C45   C     C_R   0.024866 0.386124 0.413834 0.038453
C46   C     C_R   0.949888 0.486183 0.525114 0.069063
H1    H     H_    0.343718 0.472427 0.752680 0.164495
H2    H     H_    0.031526 0.863422 0.632875 0.129590
H3    H     H_    0.968554 0.806805 0.749166 0.135775
H4    H     H_    0.031442 0.192998 0.250820 0.135769
H5    H     H_    0.101936 0.085385 0.136178 0.076652
H6    H     H_    0.898061 0.914436 0.863798 0.076649
H7    H     H_    0.106864 0.000062 0.698020 0.025115
H8    H     H_    0.893123 0.999783 0.301880 0.025072
H9    H     H_    0.656287 0.527993 0.247385 0.164482
H10   H     H_    0.348989 0.546055 0.224827 0.167668
H11   H     H_    0.651003 0.453385 0.775093 0.167644
H12   H     H_    0.255081 0.484146 0.734492 0.148169
H13   H     H_    0.744920 0.516173 0.265567 0.148063
H14   H     H_    0.260870 0.559358 0.209887 0.147034
H15   H     H_    0.739119 0.440014 0.790025 0.146995
H16   H     H_    0.968459 0.136402 0.367052 0.129594
N1    N     N_R   0.200803 0.526653 0.459773 -0.370008
N2    N     N_R   0.799190 0.473167 0.540218 -0.370045
N3    N     N_1   0.500000 0.500000 0.073640 -0.031679
N4    N     N_1   0.500000 0.500000 0.926360 -0.031679
O1    O     O_R   0.500000 0.285350 0.636850 -0.613854
O2    O     O_2   0.797035 0.699647 0.685883 -0.487743
O3    O     O_2   0.202667 0.750416 0.610654 -0.484031
O4    O     O_2   0.797322 0.249481 0.389201 -0.484028
O5    O     O_2   0.259277 0.115348 0.613371 -0.233248
O6    O     O_2   0.740267 0.885242 0.388640 -0.233003
O7    O     O_2   0.151452 0.978399 0.510806 -0.475951
O8    O     O_2   0.848521 0.021450 0.489055 -0.476043
O9    O     O_R   0.500000 0.714650 0.363150 -0.613847
O10   O     O_R   0.500000 0.714650 0.636850 -0.612362
O11   O     O_R   0.500000 0.285350 0.363150 -0.612367
O12   O     O_R   0.428760 0.500000 0.636860 -0.620462
O13   O     O_R   0.571240 0.500000 0.363140 -0.620459
O14   O     O_R   0.571240 0.500000 0.636860 -0.624336
O15   O     O_R   0.428760 0.500000 0.363140 -0.624359
O16   O     O_2   0.202958 0.300084 0.314268 -0.487740
Zn1   Zn    Zn3+2 0.500000 0.500000 0.682780 1.004970
Zn2   Zn    Zn3+2 0.500000 0.500000 0.317220 1.004967

loop_
_geom_bond_atom_site_label_1
_geom_bond_atom_site_label_2
_ccdc_geom_bond_type
C4    C36   A    
C3    C42   A    
O1    Zn1   S    
C6    C45   A    
C27   C29   A    
C1    O11   A    
C25   N1    S    
C14   C31   A    
C20   H10   S    
C7    C8    T    
C24   H9    S    
C28   C46   A    
C30   C35   A    
C17   C26   A    
C11   N1    A    
C31   C36   A    
C42   C46   A    
O13   Zn2   S    
O9    Zn2   S    
C29   C33   A    
C40   O7    D    
C16   H14   S    
C19   C26   A    
C26   N2    S    
C17   H15   S    
N4    Zn1   S    
O12   Zn1   S    
C18   H12   S    
C15   N2    A    
C2    C27   A    
C16   C20   A    
C39   H6    S    
C41   O8    D    
C2    C45   A    
C1    C7    S    
C5    H3    S    
C18   C25   A    
O14   Zn1   S    
O10   Zn1   S    
C44   C46   A    
C11   O16   S    
C27   C31   A    
C13   C30   A    
C28   C32   A    
C10   O14   A    
C9    C23   S    
N3    Zn2   S    
C21   C34   A    
O11   Zn2   S    
C19   H13   S    
C17   C21   A    
C42   C45   A    
C35   C39   S    
C43   C44   A    
C21   H11   S    
C20   C23   A    
C36   C40   S    
C2    C43   A    
C8    C12   S    
C10   C34   S    
C32   C37   A    
C6    H4    S    
C11   C29   A    
C5    C44   A    
C40   H7    S    
C12   O10   A    
C14   O3    S    
O15   Zn2   S    
C4    H2    S    
C3    H16   S    
C16   C25   A    
C15   O4    S    
C18   C22   A    
C15   C32   A    
C10   O13   A    
C38   H5    S    
C4    C43   A    
C33   C38   S    
C6    C33   A    
C28   C30   A    
C19   C24   A    
C13   N2    A    
C14   N1    A    
C5    C35   A    
C1    O1    A    
C22   H1    S    
C9    O12   A    
C37   C41   S    
C24   C34   A    
C41   H8    S    
C3    C37   A    
N3    N4    T    
C12   O9    A    
C22   C23   A    
C9    O15   A    
C13   O2    S    
