data_mof_unit_2529.cif
_audit_creation_date              2012-12-11T19:51:59-0500
_audit_creation_method            fapswitch 2.2
_symmetry_space_group_name_H-M    P1
_symmetry_Int_Tables_number       1
_space_group_crystal_system       triclinic
_cell_length_a                    16.844308
_cell_length_b                    27.906684
_cell_length_c                    8.474335
_cell_angle_alpha                 90.056923
_cell_angle_beta                  104.030167
_cell_angle_gamma                 90.123561
_cell_volume                      3864.67109733

loop_
_atom_site_label
_atom_site_type_symbol
_atom_type_description
_atom_site_fract_x
_atom_site_fract_y
_atom_site_fract_z
_atom_type_partial_charge
Ba1   Ba    Ba6+2 0.000400 0.534870 0.845190 1.614577
Ba2   Ba    Ba6+2 0.000400 0.465130 0.345190 1.612533
Ba3   Ba    Ba6+2 0.500400 0.034870 0.845190 1.613413
Ba4   Ba    Ba6+2 0.500400 0.965130 0.345190 1.610776
C1    C     C_3   0.936178 0.761433 0.635981 -0.190965
C2    C     C_2   0.751297 0.640747 0.408334 -0.149925
C3    C     C_3   0.340295 0.738571 0.050368 -0.484314
C4    C     C_3   0.139536 0.775237 0.207162 -0.492299
C5    C     C_3   0.145288 0.231414 0.692887 -0.372607
C6    C     C_3   0.645251 0.272135 0.207268 -0.488366
C7    C     C_3   0.643226 0.729785 0.706791 -0.364127
C8    C     C_2   0.251257 0.859934 0.906101 -0.143970
C9    C     C_2   0.250864 0.140620 0.407636 -0.146664
C10   C     C_2   0.819463 0.390110 0.911907 0.071686
C11   C     C_2   0.815742 0.609060 0.407052 0.067392
C12   C     C_2   0.315895 0.890995 0.905896 0.075520
C13   C     C_2   0.315296 0.108962 0.406367 0.065567
C14   C     C_2   0.840917 0.348209 0.670448 0.009590
C15   C     C_2   0.842513 0.652266 0.173279 0.007145
C16   C     C_2   0.339239 0.849029 0.665308 0.014825
C17   C     C_3   0.919833 0.244654 0.107707 -0.194018
C18   C     C_2   0.342478 0.152350 0.172955 0.007035
C19   C     C_3   0.773737 0.316480 0.679065 -0.020976
C20   C     C_3   0.793081 0.690714 0.211982 -0.040664
C21   C     C_3   0.266019 0.820912 0.656905 -0.027052
C22   C     C_3   0.292930 0.190721 0.211820 -0.036861
C23   C     C_3   0.762586 0.310250 0.843944 -0.050859
C24   C     C_3   0.725431 0.674660 0.279038 0.000444
C25   C     C_3   0.241184 0.817290 0.810606 -0.040144
C26   C     C_3   0.225198 0.174600 0.278586 -0.011998
C27   C     C_2   0.770330 0.270085 0.583078 -0.087605
C28   C     C_3   0.439165 0.261332 0.635533 -0.191536
C29   C     C_2   0.770775 0.730263 0.087572 -0.081899
C30   C     C_2   0.264561 0.773133 0.568260 -0.092952
C31   C     C_2   0.270213 0.230105 0.087138 -0.080249
C32   C     C_2   0.233663 0.732219 0.612049 -0.118336
C33   C     C_2   0.240435 0.271711 0.125881 -0.102914
C34   C     C_2   0.745933 0.227619 0.629749 -0.101957
C35   C     C_2   0.740734 0.771856 0.125806 -0.102136
C36   C     C_R   0.268921 0.679745 0.386396 -0.024450
C37   C     C_R   0.268390 0.320685 0.886763 0.021869
C38   C     C_R   0.771471 0.178982 0.387433 -0.023881
C39   C     C_3   0.431207 0.741813 0.130629 -0.225133
C40   C     C_R   0.768716 0.820747 0.886213 0.020360
C41   C     C_R   0.221769 0.688508 0.509217 -0.023057
C42   C     C_R   0.223009 0.312914 0.013154 -0.041107
C43   C     C_R   0.727924 0.186123 0.517186 -0.030886
C44   C     C_R   0.723544 0.813103 0.012968 -0.039982
C45   C     C_3   0.028156 0.716268 0.064570 0.422219
C46   C     C_3   0.025140 0.282933 0.556886 0.355861
C47   C     C_3   0.530372 0.215439 0.063862 0.419736
C48   C     C_3   0.525568 0.781865 0.562633 0.344178
C49   C     C_R   0.249224 0.638022 0.276482 -0.148295
C50   C     C_R   0.137709 0.616864 0.402676 -0.282840
C51   C     C_R   0.248078 0.361926 0.775495 -0.151875
C52   C     C_R   0.749222 0.138448 0.273198 -0.140340
C53   C     C_R   0.748310 0.861993 0.774905 -0.152219
C54   C     C_R   0.186963 0.608578 0.282000 0.067465
C55   C     C_R   0.186567 0.391589 0.782485 0.063847
C56   C     C_R   0.687710 0.108637 0.281405 0.065331
C57   C     C_R   0.686627 0.891558 0.781690 0.066410
C58   C     C_R   0.157351 0.653537 0.518960 0.014741
C59   C     C_R   0.157957 0.347253 0.021956 0.010412
C60   C     C_R   0.661258 0.152231 0.523642 0.016706
C61   C     C_R   0.137926 0.383603 0.904719 -0.286701
C62   C     C_R   0.658648 0.847580 0.021646 0.012504
C63   C     C_3   0.059165 0.769562 0.075960 0.256454
C64   C     C_3   0.056288 0.230100 0.595075 0.237066
C65   C     C_3   0.563707 0.268318 0.077999 0.254269
C66   C     C_3   0.555703 0.728679 0.601779 0.238651
C67   C     C_3   0.749033 0.527665 0.012100 0.265966
C68   C     C_3   0.748962 0.472446 0.520584 0.271100
C69   C     C_3   0.250216 0.028372 0.011806 0.266859
C70   C     C_3   0.248802 0.971583 0.503065 0.263894
C71   C     C_3   0.671814 0.551478 0.907884 -0.141687
C72   C     C_R   0.639878 0.116477 0.404615 -0.286639
C73   C     C_3   0.667025 0.448746 0.437935 -0.144134
C74   C     C_3   0.173352 0.052034 0.905497 -0.140777
C75   C     C_3   0.170617 0.949998 0.393521 -0.144532
C76   C     C_3   0.237438 0.470693 0.128198 0.325118
C77   C     C_3   0.236973 0.529741 0.630139 0.326508
C78   C     C_3   0.737397 0.970651 0.128367 0.324379
C79   C     C_3   0.738315 0.029206 0.628064 0.326773
C80   C     C_3   0.314919 0.439980 0.160831 -0.235521
C81   C     C_3   0.314440 0.560650 0.660963 -0.234124
C82   C     C_3   0.815023 0.940080 0.159954 -0.233742
C83   C     C_R   0.638104 0.883629 0.903808 -0.289639
C84   C     C_3   0.816401 0.059584 0.659046 -0.232428
C85   C     C_3   0.975745 0.714312 0.597675 0.376922
C86   C     C_3   0.971044 0.288437 0.079906 0.368413
C87   C     C_3   0.478375 0.214117 0.597184 0.373186
C88   C     C_3   0.473676 0.787670 0.091888 0.356002
C89   C     C_2   0.861273 0.384723 0.778220 -0.288784
C90   C     C_2   0.858783 0.614368 0.274969 -0.283496
C91   C     C_2   0.362381 0.883440 0.780560 -0.282580
C92   C     C_2   0.358625 0.114408 0.274596 -0.281515
C93   C     C_3   0.344690 0.426880 0.340455 -0.380132
C94   C     C_2   0.764908 0.354197 0.930958 -0.139423
C95   C     C_3   0.347789 0.571804 0.841462 -0.378465
C96   C     C_3   0.846069 0.927522 0.339757 -0.381410
C97   C     C_3   0.847647 0.072606 0.838591 -0.386478
C98   C     C_3   0.982407 0.714213 0.422464 -0.366660
C99   C     C_3   0.979508 0.289005 0.906230 -0.343250
C100  C     C_3   0.483904 0.213383 0.421255 -0.362421
C101  C     C_3   0.477988 0.787717 0.915238 -0.337267
C102  C     C_3   0.848568 0.768711 0.537941 -0.507799
C103  C     C_3   0.951315 0.196395 0.061374 -0.421100
C104  C     C_3   0.351164 0.268451 0.539125 -0.506883
H1    H     H_    0.936938 0.683969 0.619975 0.084090
H2    H     H_    0.655130 0.453788 0.304055 0.123395
H3    H     H_    0.925007 0.273783 0.820702 0.107880
H4    H     H_    0.989671 0.326199 0.870820 0.031471
H5    H     H_    0.033883 0.267647 0.901305 0.138849
H6    H     H_    0.490202 0.175940 0.383017 0.047872
H7    H     H_    0.431032 0.229728 0.336702 0.101911
H8    H     H_    0.538723 0.233770 0.414056 0.100133
H9    H     H_    0.421316 0.774900 0.830975 0.109175
H10   H     H_    0.490753 0.824458 0.879337 0.033134
H11   H     H_    0.529251 0.764449 0.905429 0.138128
H12   H     H_    0.817825 0.795385 0.598808 0.149688
H13   H     H_    0.174214 0.048484 0.775253 0.134333
H14   H     H_    0.849073 0.783412 0.417123 0.141936
H15   H     H_    0.813283 0.734825 0.527525 0.149081
H16   H     H_    0.923565 0.166797 0.117383 0.113229
H17   H     H_    0.932673 0.191269 0.927780 0.144349
H18   H     H_    0.018944 0.194045 0.102170 0.167060
H19   H     H_    0.320974 0.295379 0.600246 0.149139
H20   H     H_    0.350755 0.282740 0.417307 0.142444
H21   H     H_    0.315939 0.234562 0.530516 0.149134
H22   H     H_    0.314119 0.706630 0.096127 0.145650
H23   H     H_    0.308243 0.770589 0.081243 0.154782
H24   H     H_    0.169860 0.956920 0.264009 0.130073
H25   H     H_    0.330221 0.733959 0.917959 0.144348
H26   H     H_    0.184446 0.748045 0.189431 0.110517
H27   H     H_    0.166477 0.811283 0.199870 0.149799
H28   H     H_    0.129058 0.771697 0.329747 0.124994
H29   H     H_    0.183360 0.253162 0.629517 0.096401
H30   H     H_    0.147829 0.247053 0.813157 0.100895
H31   H     H_    0.171072 0.194638 0.711013 0.151963
H32   H     H_    0.691092 0.247396 0.177664 0.114753
H33   H     H_    0.669921 0.309183 0.211980 0.146754
H34   H     H_    0.637150 0.263521 0.328998 0.117856
H35   H     H_    0.214236 0.474796 0.995046 -0.001836
H36   H     H_    0.683414 0.751183 0.647229 0.095695
H37   H     H_    0.643368 0.745600 0.825723 0.099257
H38   H     H_    0.668444 0.692922 0.727414 0.152271
H39   H     H_    0.128061 0.767053 0.906246 0.197509
H40   H     H_    0.085209 0.820733 0.918815 0.170894
H41   H     H_    0.994198 0.193012 0.391034 0.187864
H42   H     H_    0.081693 0.221081 0.369681 0.210352
H43   H     H_    0.630481 0.266213 0.903882 0.200628
H44   H     H_    0.591012 0.320172 0.924192 0.170188
H45   H     H_    0.501353 0.685374 0.402678 0.173450
H46   H     H_    0.212333 0.526074 0.497112 -0.004173
H47   H     H_    0.580542 0.720773 0.373529 0.207931
H48   H     H_    0.987648 0.794029 0.227323 0.168408
H49   H     H_    0.016979 0.837089 0.117113 0.181358
H50   H     H_    0.028925 0.170186 0.715186 0.201299
H51   H     H_    0.946540 0.202222 0.623984 0.196940
H52   H     H_    0.496416 0.293565 0.236341 0.169608
H53   H     H_    0.524218 0.336214 0.123087 0.177755
H54   H     H_    0.524697 0.668725 0.717490 0.199636
H55   H     H_    0.443842 0.700967 0.619812 0.200227
H56   H     H_    0.713538 0.974586 0.995319 -0.000832
H57   H     H_    0.714495 0.024907 0.495053 -0.001657
H58   H     H_    0.190345 0.452628 0.179362 0.055318
H59   H     H_    0.190829 0.547480 0.684495 0.058046
H60   H     H_    0.690783 0.952591 0.180867 0.055008
H61   H     H_    0.936107 0.320346 0.102864 0.074859
H62   H     H_    0.691892 0.047604 0.679967 0.053408
H63   H     H_    0.364086 0.459711 0.121071 0.121618
H64   H     H_    0.362110 0.541806 0.614012 0.120163
H65   H     H_    0.863604 0.959726 0.118016 0.121772
H66   H     H_    0.864693 0.039607 0.617602 0.121332
H67   H     H_    0.302776 0.406478 0.089065 0.064955
H68   H     H_    0.301006 0.594908 0.594392 0.060361
H69   H     H_    0.802634 0.906374 0.089448 0.064367
H70   H     H_    0.804547 0.093085 0.587692 0.060056
H71   H     H_    0.933753 0.761464 0.764604 0.196714
H72   H     H_    0.439775 0.183957 0.621669 0.085346
H73   H     H_    0.855847 0.248685 0.035918 0.076038
H74   H     H_    0.437577 0.261492 0.764725 0.194613
H75   H     H_    0.434683 0.741914 0.261240 0.163821
H76   H     H_    0.728879 0.358004 0.020240 0.087549
H77   H     H_    0.713861 0.635592 0.494681 0.105800
H78   H     H_    0.212422 0.865945 0.989212 0.077856
H79   H     H_    0.213315 0.135406 0.493733 0.103162
H80   H     H_    0.287450 0.630609 0.193599 0.074622
H81   H     H_    0.285635 0.369078 0.691164 0.076838
H82   H     H_    0.785535 0.132060 0.186003 0.079350
H83   H     H_    0.437629 0.818767 0.117775 0.096833
H84   H     H_    0.785952 0.869263 0.690822 0.077454
H85   H     H_    0.908893 0.410073 0.769302 0.081310
H86   H     H_    0.901020 0.586689 0.257665 0.076501
H87   H     H_    0.415077 0.906024 0.782235 0.078346
H88   H     H_    0.401062 0.086807 0.257614 0.076297
H89   H     H_    0.089178 0.591881 0.407599 0.073497
H90   H     H_    0.088923 0.408221 0.908615 0.076281
H91   H     H_    0.590270 0.092101 0.407838 0.073236
H92   H     H_    0.589120 0.908252 0.907830 0.074889
H93   H     H_    0.779616 0.272624 0.461471 0.123288
H94   H     H_    0.616550 0.532447 0.925704 0.124879
H95   H     H_    0.781425 0.726024 0.967492 0.121301
H96   H     H_    0.281621 0.773212 0.453172 0.132496
H97   H     H_    0.280355 0.225714 0.966688 0.119182
H98   H     H_    0.210275 0.731918 0.719876 0.116915
H99   H     H_    0.225754 0.274708 0.242980 0.112615
H100  H     H_    0.731714 0.224448 0.747198 0.110331
H101  H     H_    0.725332 0.774732 0.242219 0.116253
H102  H     H_    0.973924 0.792630 0.616579 0.129754
H103  H     H_    0.915745 0.244253 0.235446 0.148817
H104  H     H_    0.476692 0.292467 0.614700 0.132380
H105  H     H_    0.616734 0.466605 0.479627 0.123322
H106  H     H_    0.462947 0.709441 0.100117 0.124377
H107  H     H_    0.057768 0.695235 0.984404 0.085610
H108  H     H_    0.053695 0.298852 0.465669 0.094082
H109  H     H_    0.557922 0.194539 0.980254 0.086832
H110  H     H_    0.554452 0.797521 0.471149 0.087665
H111  H     H_    0.046910 0.698473 0.183668 -0.086369
H112  H     H_    0.046356 0.305612 0.666096 -0.041774
H113  H     H_    0.549633 0.196842 0.181667 -0.082873
H114  H     H_    0.546691 0.804514 0.672114 -0.037444
H115  H     H_    0.755347 0.536112 0.142574 -0.005097
H116  H     H_    0.117839 0.033118 0.922595 0.123816
H117  H     H_    0.763223 0.466136 0.653778 -0.010292
H118  H     H_    0.256092 0.037424 0.141655 -0.014418
H119  H     H_    0.255687 0.959709 0.630623 -0.011036
H120  H     H_    0.803246 0.541195 0.973115 0.069331
H121  H     H_    0.798113 0.457574 0.468489 0.070090
H122  H     H_    0.304793 0.041404 0.973143 0.073500
H123  H     H_    0.302483 0.959693 0.459662 0.076825
H124  H     H_    0.664354 0.604193 0.070811 0.177074
H125  H     H_    0.716848 0.619911 0.931456 0.193373
H126  H     H_    0.676552 0.393469 0.598906 0.174740
H127  H     H_    0.116047 0.967827 0.419095 0.125788
H128  H     H_    0.711021 0.380933 0.430272 0.192401
H129  H     H_    0.164854 0.105206 0.066197 0.176072
H130  H     H_    0.218153 0.120532 0.927729 0.194889
H131  H     H_    0.162414 0.892743 0.538816 0.175705
H132  H     H_    0.214799 0.881935 0.394615 0.199993
H133  H     H_    0.402165 0.405905 0.359091 0.116690
H134  H     H_    0.356968 0.459676 0.417029 0.150269
H135  H     H_    0.298245 0.404573 0.379398 0.149816
H136  H     H_    0.404627 0.593454 0.858152 0.115418
H137  H     H_    0.302454 0.592748 0.888347 0.151869
H138  H     H_    0.672000 0.548283 0.777181 0.128979
H139  H     H_    0.362311 0.538225 0.912778 0.148169
H140  H     H_    0.903377 0.906431 0.357420 0.115149
H141  H     H_    0.859050 0.960543 0.414972 0.148909
H142  H     H_    0.800050 0.905529 0.381194 0.150345
H143  H     H_    0.905205 0.093594 0.855750 0.113762
H144  H     H_    0.801901 0.094816 0.879713 0.150350
H145  H     H_    0.860287 0.039778 0.914463 0.150887
H146  H     H_    0.989073 0.676893 0.383496 0.048456
H147  H     H_    0.929651 0.730462 0.337454 0.100427
H148  H     H_    0.037122 0.734980 0.416743 0.099730
N1    N     N_3   0.665375 0.601820 0.948365 -0.523499
N2    N     N_3   0.007226 0.205211 0.691336 -0.505638
N3    N     N_3   0.503083 0.300850 0.119674 -0.448357
N4    N     N_3   0.503557 0.703799 0.692109 -0.497857
N5    N     N_3   0.665068 0.397801 0.472965 -0.524846
N6    N     N_3   0.166563 0.102487 0.944197 -0.525072
N7    N     N_3   0.163516 0.898684 0.417623 -0.528004
N8    N     N_3   0.074733 0.783809 0.920036 -0.475144
N9    N     N_3   0.054260 0.202097 0.448142 -0.507349
N10   N     N_3   0.578365 0.283434 0.921927 -0.475133
N11   N     N_3   0.558142 0.700553 0.456572 -0.512179
N12   N     N_3   0.996465 0.801570 0.112301 -0.450175
O1    O     O_2   0.163830 0.569270 0.980510 -0.462043
O2    O     O_3   0.939281 0.284248 0.499927 -0.636507
O3    O     O_3   0.444311 0.215385 0.007142 -0.616390
O4    O     O_3   0.439705 0.783727 0.506556 -0.636207
O5    O     O_3   0.904940 0.476110 0.001150 -0.499961
O6    O     O_3   0.904940 0.523890 0.501150 -0.497495
O7    O     O_3   0.404940 0.976110 0.001150 -0.498811
O8    O     O_3   0.404940 0.023890 0.501150 -0.500000
O9    O     O_3   0.095420 0.524330 0.188510 -0.495099
O10   O     O_3   0.095420 0.475670 0.688510 -0.495697
O11   O     O_3   0.595420 0.024330 0.188510 -0.495546
O12   O     O_2   0.163830 0.430730 0.480510 -0.461780
O13   O     O_3   0.595420 0.975670 0.688510 -0.494601
O14   O     O_3   0.028940 0.612400 0.656050 -0.483350
O15   O     O_3   0.028940 0.387600 0.156050 -0.482027
O16   O     O_3   0.528940 0.112400 0.656050 -0.484101
O17   O     O_3   0.528940 0.887600 0.156050 -0.484031
O18   O     O_2   0.162225 0.649036 0.850518 -0.500256
O19   O     O_2   0.157810 0.348529 0.353620 -0.502862
O20   O     O_2   0.662247 0.148770 0.853446 -0.502181
O21   O     O_2   0.660109 0.850016 0.353257 -0.498362
O22   O     O_3   0.257729 0.515690 0.199500 -0.643587
O23   O     O_2   0.663830 0.069270 0.980510 -0.459892
O24   O     O_3   0.257749 0.484551 0.698887 -0.643488
O25   O     O_3   0.757778 0.015733 0.198847 -0.644090
O26   O     O_3   0.758013 0.984326 0.699905 -0.643826
O27   O     O_3   0.055124 0.711559 0.701059 -0.615513
O28   O     O_3   0.049716 0.287573 0.187238 -0.627886
O29   O     O_3   0.558266 0.211624 0.698483 -0.614688
O30   O     O_3   0.554192 0.788172 0.191753 -0.633675
O31   O     O_2   0.837400 0.570350 0.710350 -0.461399
O32   O     O_2   0.837400 0.429650 0.210350 -0.458839
O33   O     O_2   0.337400 0.070350 0.710350 -0.458612
O34   O     O_2   0.663830 0.930730 0.480510 -0.461782
O35   O     O_2   0.337400 0.929650 0.210350 -0.464710
O36   O     O_3   0.972820 0.612580 0.035550 -0.483659
O37   O     O_3   0.972820 0.387420 0.535550 -0.479662
O38   O     O_3   0.472820 0.112580 0.035550 -0.484212
O39   O     O_3   0.472820 0.887420 0.535550 -0.480102
O40   O     O_2   0.841750 0.651190 0.843513 -0.499471
O41   O     O_2   0.840583 0.349378 0.341747 -0.499300
O42   O     O_2   0.343042 0.152057 0.842916 -0.500765
O43   O     O_2   0.343683 0.848333 0.338449 -0.501486
O44   O     O_3   0.737770 0.521432 0.490289 -0.650836
O45   O     O_3   0.737544 0.478224 0.989765 -0.650351
O46   O     O_3   0.237850 0.021259 0.496238 -0.649992
O47   O     O_3   0.238210 0.978899 0.992146 -0.651917
O48   O     O_3   0.942401 0.715125 0.003917 -0.616974
P1    P     P_3+3 0.171820 0.553000 0.158080 0.973461
P2    P     P_3+3 0.899058 0.342317 0.511293 0.925188
P3    P     P_3+3 0.400852 0.158068 0.014020 0.923833
P4    P     P_3+3 0.399818 0.842210 0.510906 0.923223
P5    P     P_3+3 0.100837 0.342546 0.181660 0.922957
P6    P     P_3+3 0.102619 0.656569 0.682499 0.923399
P7    P     P_3+3 0.602479 0.843540 0.182348 0.925550
P8    P     P_3+3 0.604304 0.155974 0.683557 0.924115
P9    P     P_3+3 0.171820 0.447000 0.658080 0.974808
P10   P     P_3+3 0.671820 0.053000 0.158080 0.973051
P11   P     P_3+3 0.671820 0.947000 0.658080 0.975256
P12   P     P_3+3 0.829210 0.554130 0.532500 0.978283
P13   P     P_3+3 0.829210 0.445870 0.032500 0.974745
P14   P     P_3+3 0.329210 0.054130 0.532500 0.976693
P15   P     P_3+3 0.329210 0.945870 0.032500 0.975263
P16   P     P_3+3 0.900210 0.657694 0.013633 0.925565

loop_
_geom_bond_atom_site_label_1
_geom_bond_atom_site_label_2
_ccdc_geom_bond_type
C59   C61   A    
C48   H114  S    
C51   C55   D    
H41   N9    S    
C80   H63   S    
Ba2   O9    S    
Ba3   O8    S    
C1    H102  S    
C73   N5    S    
C69   O47   S    
C3    H25   S    
C35   H101  S    
H124  N1    S    
C98   H147  S    
C1    H71   S    
C100  H8    S    
H126  N5    S    
C46   O2    S    
Ba1   P1    S    
C21   C30   S    
O20   P8    D    
H53   N3    S    
C79   C84   S    
H54   N4    S    
H128  N5    S    
C4    H27   S    
C6    H32   S    
C83   H92   S    
C76   H58   S    
C71   H94   S    
C17   C86   S    
C21   C25   A    
C9    C26   A    
C53   H84   S    
C43   C60   S    
H44   N10   S    
C29   H95   S    
C99   H4    S    
Ba4   O35   S    
O14   P6    S    
C97   H145  S    
O15   P5    S    
Ba2   O6    S    
C5    H30   S    
C40   C53   S    
O43   P4    D    
C77   H59   S    
C13   C92   S    
C32   H98   S    
H42   N9    S    
C64   N9    S    
O18   P6    D    
C15   C90   D    
C67   O45   S    
C68   H117  S    
C101  H10   S    
C97   H144  S    
O26   P11   S    
Ba4   P15   S    
C90   H86   S    
C18   C92   D    
C85   O27   S    
C70   H123  S    
C70   O46   S    
C49   C54   D    
C53   C57   D    
C45   H107  S    
Ba4   O17   S    
C76   O22   S    
C48   O4    S    
C78   H56   S    
C47   H113  S    
C39   H75   S    
O32   P13   D    
C77   O24   S    
C6    C65   S    
C22   C31   S    
O1    P1    D    
O3    P3    S    
C47   C65   S    
C1    C85   S    
C40   C44   S    
C74   H116  S    
O31   P12   D    
C9    H79   S    
Ba2   O37   S    
C8    C25   A    
C56   P10   S    
C11   C90   S    
C7    C66   S    
C68   C73   S    
C45   H111  S    
C51   H81   S    
Ba2   O12   S    
C13   P14   S    
Ba1   O1    S    
O42   P3    D    
C41   C58   S    
C84   H66   S    
C95   H136  S    
C3    H22   S    
C57   C83   S    
C93   H134  S    
C2    C24   A    
O23   P10   D    
C30   H96   S    
O44   P12   S    
C98   H148  S    
C3    C39   S    
C80   H67   S    
C10   C89   S    
C88   H83   S    
C74   N6    S    
H131  N7    S    
O12   P9    D    
C10   C94   A    
C52   H82   S    
C4    H26   S    
C8    C12   A    
C103  H17   S    
C96   H141  S    
H52   N3    S    
C104  H20   S    
C81   C95   S    
C12   P15   S    
O41   P2    D    
H43   N10   S    
H48   N12   S    
C87   H72   S    
C102  H14   S    
C104  H21   S    
Ba4   O34   S    
H40   N8    S    
Ba1   O6    S    
C71   H138  S    
Ba3   O16   S    
C22   C26   A    
O28   P5    S    
C95   H139  S    
Ba3   Ba4   S    
O47   P15   S    
O24   P9    S    
O21   P7    D    
O19   P5    D    
H49   N12   S    
O37   P2    S    
Ba4   O7    S    
C14   P2    S    
C20   C24   A    
C72   H91   S    
C7    H38   S    
Ba3   O7    S    
C39   C88   S    
C9    C13   A    
C42   C59   S    
C57   P11   S    
C54   P1    S    
O7    P15   S    
C33   C42   S    
C75   H127  S    
C55   C61   S    
C63   N12   S    
C86   H61   S    
C30   C32   D    
C94   H76   S    
C61   H90   S    
C10   P13   S    
C4    C63   S    
C14   C89   D    
O4    P4    S    
C44   C62   S    
C39   H106  S    
C77   C81   S    
C16   P4    S    
C4    H28   S    
C75   N7    S    
C67   H120  S    
O36   P16   S    
C76   C80   S    
C73   H105  S    
C78   H60   S    
C47   H109  S    
C79   H57   S    
O46   P14   S    
C50   H89   S    
C55   P9    S    
C80   C93   S    
C103  H16   S    
C49   H80   S    
C69   H118  S    
C79   O26   S    
C16   C21   A    
O2    P2    S    
C81   H68   S    
C99   H3    S    
C6    H34   S    
O45   P13   S    
Ba3   P14   S    
C74   H13   S    
C37   C51   S    
C38   C52   S    
C5    H29   S    
C71   N1    S    
Ba1   O36   S    
C95   H137  S    
C82   C96   S    
C3    H23   S    
C65   N3    S    
C66   N4    S    
H129  N6    S    
O6    P12   S    
C33   H99   S    
O11   P10   S    
C101  H9    S    
C97   H143  S    
C84   C97   S    
C1    C102  S    
C36   C41   S    
H45   N11   S    
C65   N10   S    
C50   C58   A    
C78   C82   S    
O48   P16   S    
C82   H69   S    
C52   C56   D    
C88   O30   S    
C98   H146  S    
C59   P5    S    
C96   H140  S    
C100  H7    S    
C46   H108  S    
C8    H78   S    
C84   H70   S    
C45   O48   S    
H130  N6    S    
C31   C33   D    
C91   H87   S    
O16   P8    S    
Ba1   O31   S    
C89   H85   S    
O39   P4    S    
Ba2   O32   S    
C78   O25   S    
Ba2   P9    S    
C48   H110  S    
C20   C29   S    
C27   C34   D    
C82   H65   S    
C15   C20   A    
O35   P15   D    
Ba1   O10   S    
H50   N2    S    
Ba2   O5    S    
C5    H31   S    
C46   H112  S    
Ba3   O38   S    
C56   C72   S    
O22   P1    S    
C86   C99   S    
Ba1   P12   S    
C93   H133  S    
C88   C101  S    
C92   H88   S    
Ba3   P10   S    
C18   C22   A    
Ba4   O11   S    
C101  H11   S    
H39   N8    S    
C46   C64   S    
C6    H33   S    
C19   C27   S    
C35   C44   S    
C64   N2    S    
C23   C94   A    
C47   O3    S    
C85   C98   S    
Ba3   O23   S    
C87   C100  S    
C63   N8    S    
C66   N11   S    
C17   H73   S    
C2    H77   S    
C29   C35   D    
Ba2   P13   S    
C34   H100  S    
C28   H74   S    
C99   H5    S    
C96   H142  S    
Ba1   O14   S    
C28   H104  S    
C28   C87   S    
C87   O29   S    
C79   H62   S    
C85   H1    S    
Ba1   Ba2   S    
C2    C11   A    
O17   P7    S    
C31   H97   S    
C102  H15   S    
C37   C42   S    
O13   P11   S    
C19   C23   A    
C7    H36   S    
O9    P1    S    
O25   P10   S    
O5    P13   S    
O38   P3    S    
C45   C63   S    
C69   H122  S    
O29   P8    S    
C81   H64   S    
C67   H115  S    
C68   H121  S    
C14   C19   A    
Ba4   O8    S    
C62   C83   A    
C7    H37   S    
H125  N1    S    
C86   O28   S    
H55   N4    S    
Ba4   P11   S    
C77   H46   S    
C17   H103  S    
O33   P14   D    
C70   H119  S    
C93   H135  S    
C69   C74   S    
C76   H35   S    
C34   C43   S    
C60   C72   A    
O8    P14   S    
C32   C41   S    
C11   P12   S    
O34   P11   D    
C17   C103  S    
C100  H6    S    
C60   P8    S    
C15   P16   S    
C16   C91   D    
H51   N2    S    
O30   P7    S    
O27   P6    S    
H132  N7    S    
C68   O44   S    
C50   C54   S    
C12   C91   S    
O10   P9    S    
C102  H12   S    
C18   P3    S    
Ba1   O5    S    
C103  H18   S    
O40   P16   D    
Ba2   O15   S    
C70   C75   S    
C62   P7    S    
C5    C64   S    
C67   C71   S    
C75   H24   S    
C38   C43   S    
C104  H19   S    
C73   H2    S    
C27   H93   S    
C48   C66   S    
C58   P6    S    
Ba4   O39   S    
Ba3   O13   S    
C36   C49   S    
C28   C104  S    
Ba3   O33   S    
H47   N11   S    
