data_mof_unit_484.cif
_audit_creation_date              2012-12-10T17:51:27-0500
_audit_creation_method            fapswitch 2.2
_symmetry_space_group_name_H-M    P1
_symmetry_Int_Tables_number       1
_space_group_crystal_system       triclinic
_cell_length_a                    9.878089
_cell_length_b                    10.728969
_cell_length_c                    16.792185
_cell_angle_alpha                 91.785148
_cell_angle_beta                  85.560719
_cell_angle_gamma                 89.612262
_cell_volume                      1773.38899518

loop_
_atom_site_label
_atom_site_type_symbol
_atom_type_description
_atom_site_fract_x
_atom_site_fract_y
_atom_site_fract_z
_atom_type_partial_charge
C1    C     C_R   0.499189 0.739978 0.494559 0.871482
C2    C     C_R   0.528768 0.523701 0.261578 -0.038985
C3    C     C_R   0.243300 0.889574 0.476691 -0.161259
C4    C     C_R   0.481490 0.506491 0.653132 0.842051
C5    C     C_R   0.121156 0.951027 0.500124 -0.141658
C6    C     C_R   0.122329 0.063972 0.542743 -0.159283
C7    C     C_R   0.245752 0.121024 0.554654 -0.157288
C8    C     C_R   0.370128 0.064631 0.524034 0.098848
C9    C     C_R   0.369252 0.940544 0.496432 0.096957
C10   C     C_R   0.494757 0.873758 0.490621 -0.121613
C11   C     C_R   0.617881 0.936184 0.494533 -0.221854
C12   C     C_R   0.345286 0.547536 0.782362 -0.210172
C13   C     C_R   0.618310 0.063113 0.504836 -0.217792
C14   C     C_R   0.495414 0.128291 0.517331 -0.133695
C15   C     C_R   0.845580 0.667545 0.602596 -0.184576
C16   C     C_R   0.498763 0.260960 0.507913 0.891617
C17   C     C_R   0.908864 0.749361 0.653474 -0.225642
C18   C     C_R   0.048774 0.747677 0.654442 -0.178236
C19   C     C_R   0.126105 0.664858 0.604075 -0.158273
C20   C     C_R   0.065344 0.581797 0.551018 0.149691
C21   C     C_R   0.920633 0.582405 0.550638 0.174267
C22   C     C_R   0.935329 0.421063 0.451599 -0.133436
C23   C     C_R   0.417195 0.560439 0.141610 -0.149151
C24   C     C_R   0.078695 0.421241 0.451521 -0.126645
C25   C     C_R   0.518430 0.501992 0.346866 0.868792
C26   C     C_R   0.470989 0.545779 0.737247 -0.028365
C27   C     C_R   0.584788 0.598368 0.769757 -0.218280
C28   C     C_R   0.574199 0.650402 0.846221 -0.159216
C29   C     C_R   0.451534 0.643510 0.893548 0.208478
C30   C     C_R   0.335916 0.595573 0.860634 -0.173421
C31   C     C_R   0.410978 0.524257 0.220208 -0.213043
C32   C     C_R   0.653689 0.556682 0.222818 -0.199187
C33   C     C_R   0.659804 0.593109 0.144072 -0.182396
C34   C     C_R   0.541396 0.597508 0.103636 0.207510
C35   C     C_2   0.448351 0.664376 0.980077 -0.244236
C36   C     C_2   0.553603 0.625593 0.019004 -0.230599
H1    H     H_    0.682354 0.600705 0.736159 0.159112
H2    H     H_    0.737860 0.672961 0.606560 0.206381
H3    H     H_    0.848679 0.813737 0.692833 0.152445
H4    H     H_    0.313666 0.497989 0.248741 0.154635
H5    H     H_    0.097901 0.811021 0.694329 0.154489
H6    H     H_    0.232819 0.669077 0.608392 0.209886
H7    H     H_    0.138478 0.356932 0.412011 0.153030
H8    H     H_    0.745962 0.557218 0.253722 0.156755
H9    H     H_    0.649331 0.598907 0.986619 0.148451
H10   H     H_    0.240359 0.589948 0.896588 0.123335
H11   H     H_    0.325288 0.556168 0.110606 0.123486
H12   H     H_    0.756893 0.618279 0.114703 0.124459
H13   H     H_    0.255262 0.510414 0.757639 0.155614
H14   H     H_    0.352053 0.689694 0.012249 0.145111
H15   H     H_    0.663697 0.691321 0.869318 0.126433
H16   H     H_    0.714682 0.887261 0.488888 0.171481
H17   H     H_    0.236784 0.804458 0.441236 0.168675
H18   H     H_    0.025574 0.909516 0.486741 0.141788
H19   H     H_    0.027711 0.109286 0.564369 0.138270
H20   H     H_    0.242632 0.208560 0.588502 0.160539
H21   H     H_    0.715275 0.110091 0.501850 0.168601
H22   H     H_    0.886925 0.356651 0.412142 0.146228
N1    N     N_R   0.857140 0.501200 0.500750 -0.119667
N2    N     N_R   0.142740 0.501280 0.500770 -0.125596
O1    O     O_R   0.385310 0.683220 0.500000 -0.650566
O2    O     O_R   0.614640 0.683250 0.500010 -0.639222
O3    O     O_R   0.371780 0.500010 0.615800 -0.643003
O4    O     O_R   0.601110 0.500030 0.615800 -0.632950
O5    O     O_R   0.385360 0.316750 0.499990 -0.621846
O6    O     O_R   0.614690 0.316780 0.500000 -0.615508
O7    O     O_R   0.398890 0.499970 0.384200 -0.618336
O8    O     O_R   0.628220 0.499990 0.384200 -0.616606
Zn1   Zn    Zn3+2 0.346870 0.499980 0.499990 0.921413
Zn2   Zn    Zn3+2 0.653130 0.500020 0.500010 0.931291

loop_
_geom_bond_atom_site_label_1
_geom_bond_atom_site_label_2
_ccdc_geom_bond_type
C22   H22   S    
C4    C26   S    
C15   H2    S    
C21   N1    A    
C6    C7    A    
C3    C9    A    
O4    Zn2   S    
C20   N2    A    
C3    H17   S    
C9    C10   A    
C4    O4    A    
C19   C20   A    
C25   O7    A    
C19   H6    S    
C36   H9    S    
C6    H19   S    
C24   N2    A    
C23   C34   A    
C32   C33   A    
C35   H14   S    
C17   C18   A    
C32   H8    S    
C7    C8    A    
O6    Zn2   S    
C13   C14   A    
C1    O2    A    
C33   H12   S    
C11   C13   A    
C4    O3    A    
C26   C27   A    
C29   C30   A    
C25   O8    A    
N2    Zn1   S    
C27   H1    S    
O5    Zn1   S    
C7    H20   S    
C22   C24   A    
C2    C32   A    
C28   C29   A    
C16   O5    A    
C33   C34   A    
C12   H13   S    
C2    C25   S    
C34   C36   S    
C5    C6    A    
C27   C28   A    
C28   H15   S    
C14   C16   S    
C16   O6    A    
C10   C11   A    
C23   H11   S    
N1    Zn2   S    
C23   C31   A    
C3    C5    A    
C5    H18   S    
C15   C21   A    
C13   H21   S    
C20   C21   A    
O2    Zn2   S    
O8    Zn2   S    
C18   C19   A    
C17   H3    S    
C18   H5    S    
O1    Zn1   S    
C22   N1    A    
C15   C17   A    
C24   H7    S    
C29   C35   S    
C8    C9    A    
C8    C14   A    
C11   H16   S    
C12   C30   A    
C31   H4    S    
C30   H10   S    
C1    C10   S    
O3    Zn1   S    
C12   C26   A    
C2    C31   A    
O7    Zn1   S    
C35   C36   D    
C1    O1    A    
