data_mof_unit_4053.cif
_audit_creation_date              2012-10-26T19:45:32-0400
_audit_creation_method            fapswitch 2.2
_symmetry_space_group_name_H-M    P1
_symmetry_Int_Tables_number       1
_space_group_crystal_system       triclinic
_cell_length_a                    10.829177
_cell_length_b                    9.579043
_cell_length_c                    10.748574
_cell_angle_alpha                 90.013328
_cell_angle_beta                  91.293978
_cell_angle_gamma                 89.979695
_cell_volume                      1114.69903007

loop_
_atom_site_label
_atom_site_type_symbol
_atom_type_description
_atom_site_fract_x
_atom_site_fract_y
_atom_site_fract_z
_atom_type_partial_charge
C1    C     C_R   0.262250 0.499994 0.498888 0.591398
C2    C     C_R   0.407220 0.926562 0.440762 0.406871
C3    C     C_R   0.591502 0.925797 0.560500 -0.049056
C4    C     C_R   0.591492 0.074171 0.560513 -0.052707
C5    C     C_R   0.497366 0.499798 0.259977 0.534944
C6    C     C_R   0.737744 0.499983 0.500212 0.548214
C7    C     C_R   0.494606 0.499761 0.739651 0.582688
C8    C     C_3   0.391649 0.599849 0.071829 -0.247321
C9    C     C_3   0.463538 0.349896 0.072549 -0.204045
C10   C     C_3   0.398806 0.613976 0.928585 -0.071696
C11   C     C_3   0.453340 0.350071 0.928909 -0.079184
C12   C     C_3   0.619975 0.533862 0.929389 -0.282137
C13   C     C_3   0.620205 0.544239 0.072595 -0.246468
C14   C     C_3   0.493313 0.498801 0.122023 0.015906
C15   C     C_3   0.488193 0.498620 0.877611 0.049212
C16   C     C_2   0.270153 0.623054 0.870528 0.253474
C17   C     C_2   0.329637 0.295951 0.880195 0.270245
C18   C     C_R   0.063937 0.373141 0.500256 -0.110978
C19   C     C_R   0.063808 0.626808 0.498553 -0.109110
C20   C     C_R   0.936192 0.373128 0.500788 -0.131484
C21   C     C_R   0.936070 0.626813 0.499119 -0.137276
C22   C     C_R   0.871701 0.499968 0.500086 0.015415
C23   C     C_R   0.128294 0.499978 0.498926 0.048347
C24   C     C_R   0.407224 0.073481 0.440765 0.401903
Cu1   Cu    Cu3+1 0.500020 0.640660 0.500000 0.957856
Cu2   Cu    Cu3+1 0.500020 0.359340 0.500000 0.939656
H1    H     H_    0.402838 0.705299 0.114087 0.116084
H2    H     H_    0.694868 0.476904 0.112690 0.130402
H3    H     H_    0.653086 0.634458 0.890371 0.125005
H4    H     H_    0.686571 0.451850 0.900950 0.125076
H5    H     H_    0.111951 0.273946 0.501098 0.175297
H6    H     H_    0.111718 0.726007 0.498038 0.177738
H7    H     H_    0.888249 0.273916 0.501783 0.132986
H8    H     H_    0.888037 0.726031 0.498766 0.131811
H9    H     H_    0.204203 0.695023 0.909884 0.105829
H10   H     H_    0.323371 0.249047 0.788388 0.145490
H11   H     H_    0.344719 0.220535 0.336030 0.351674
H12   H     H_    0.538666 0.276791 0.102209 0.116534
H13   H     H_    0.344610 0.779402 0.336124 0.348305
H14   H     H_    0.664886 0.870444 0.609386 0.124845
H15   H     H_    0.664858 0.129499 0.609417 0.126712
H16   H     H_    0.299662 0.559942 0.099678 0.139207
H17   H     H_    0.378013 0.310434 0.115788 0.173300
H18   H     H_    0.441326 0.717412 0.909302 0.099106
H19   H     H_    0.523168 0.273717 0.896186 0.082103
H20   H     H_    0.640431 0.653624 0.101512 0.138274
N1    N     N_R   0.500030 0.852070 0.500030 -0.266927
N2    N     N_R   0.500030 0.147930 0.500030 -0.271531
O1    O     O_R   0.319660 0.618740 0.499990 -0.482189
O2    O     O_2   0.235938 0.305200 0.940877 -0.495623
O3    O     O_3   0.311470 0.137617 0.377119 -0.670772
O4    O     O_3   0.311443 0.862481 0.377127 -0.675994
O5    O     O_R   0.319660 0.381260 0.499990 -0.498748
O6    O     O_R   0.499990 0.618790 0.317690 -0.532370
O7    O     O_R   0.499990 0.381210 0.317690 -0.535573
O8    O     O_R   0.680370 0.618830 0.500010 -0.513930
O9    O     O_R   0.680370 0.381170 0.500010 -0.510537
O10   O     O_R   0.500030 0.618780 0.682310 -0.491880
O11   O     O_R   0.500030 0.381220 0.682310 -0.525621
O12   O     O_2   0.238865 0.554744 0.779447 -0.488752

loop_
_geom_bond_atom_site_label_1
_geom_bond_atom_site_label_2
_ccdc_geom_bond_type
C17   O2    D    
C19   C23   A    
C9    C14   S    
C12   C15   S    
C13   H2    S    
C21   H8    S    
C17   H10   S    
C12   H3    S    
Cu2   O11   S    
Cu1   N1    S    
C7    O10   A    
Cu1   O8    S    
Cu2   N2    S    
C11   C15   S    
Cu2   O7    S    
C24   O3    S    
C7    C15   S    
H13   O4    S    
C10   C16   S    
C21   C22   A    
Cu1   O6    S    
C6    O8    A    
C9    C11   S    
C6    O9    A    
C5    C14   S    
C2    O4    S    
H11   O3    S    
C19   H6    S    
C7    O11   A    
C9    H12   S    
C19   C21   A    
C8    H16   S    
C3    H14   S    
C1    C23   S    
C18   C20   A    
C10   C15   S    
C16   H9    S    
C2    C24   A    
C13   H20   S    
C2    N1    A    
Cu2   O9    S    
Cu1   O1    S    
C9    H17   S    
C11   H19   S    
C4    H15   S    
C20   H7    S    
C10   H18   S    
C18   C23   A    
C24   N2    A    
Cu2   O5    S    
C5    O6    A    
C12   C13   S    
C8    C10   S    
Cu1   O10   S    
C4    N2    A    
C3    N1    A    
C8    H1    S    
C1    O5    A    
C11   C17   S    
C8    C14   S    
C18   H5    S    
C12   H4    S    
Cu1   Cu2   S    
C13   C14   S    
C16   O12   D    
C1    O1    A    
C5    O7    A    
C3    C4    A    
C20   C22   A    
C6    C22   S    
