data_mof_unit_3074.cif
_audit_creation_date              2012-12-10T20:50:28-0500
_audit_creation_method            fapswitch 2.2
_symmetry_space_group_name_H-M    P1
_symmetry_Int_Tables_number       1
_space_group_crystal_system       triclinic
_cell_length_a                    23.391401
_cell_length_b                    9.265368
_cell_length_c                    8.119692
_cell_angle_alpha                 90.087161
_cell_angle_beta                  87.349157
_cell_angle_gamma                 89.611538
_cell_volume                      1757.85387618

loop_
_atom_site_label
_atom_site_type_symbol
_atom_type_description
_atom_site_fract_x
_atom_site_fract_y
_atom_site_fract_z
_atom_type_partial_charge
C1    C     C_R   0.500019 0.217471 0.499919 0.892676
C2    C     C_R   0.792892 0.481076 0.453423 0.153971
C3    C     C_R   0.388904 0.501469 0.504043 0.922510
C4    C     C_R   0.611097 0.499885 0.495929 0.922781
C5    C     C_R   0.297208 0.561792 0.658168 0.446102
C6    C     C_R   0.704643 0.432714 0.610365 0.451593
C7    C     C_R   0.294893 0.444657 0.388122 0.452610
C8    C     C_R   0.703143 0.551017 0.341226 0.447555
C9    C     C_R   0.326307 0.503702 0.515859 -0.298194
C10   C     C_R   0.673680 0.496058 0.483755 -0.297901
C11   C     C_R   0.880244 0.614792 0.456255 0.552898
C12   C     C_R   0.499985 0.782528 0.500081 0.891092
C13   C     C_R   0.118586 0.369061 0.557980 0.555949
C14   C     C_R   0.883833 0.358171 0.444698 0.552604
C15   C     C_R   0.117114 0.625657 0.548377 0.549414
C16   C     C_R   0.943187 0.359577 0.463203 -0.221075
C17   C     C_R   0.058289 0.625890 0.519997 -0.214466
C18   C     C_R   0.939100 0.620437 0.482444 -0.210426
C19   C     C_R   0.059330 0.365137 0.539226 -0.217769
C20   C     C_R   0.970430 0.491487 0.487307 -0.137409
C21   C     C_R   0.029458 0.494283 0.515832 -0.137357
C22   C     C_R   0.975932 0.232671 0.465200 0.400769
C23   C     C_1   0.500009 0.064505 0.499897 -0.194931
C24   C     C_R   0.027546 0.753218 0.491545 0.395354
C25   C     C_R   0.967589 0.750993 0.504973 0.395212
C26   C     C_R   0.029549 0.235217 0.533919 0.400034
C27   C     C_3   0.958969 0.114345 0.227992 0.187779
C28   C     C_3   0.927410 0.986804 0.159637 -0.717381
C29   C     C_3   0.081238 0.870761 0.292474 0.187308
C30   C     C_3   0.124107 0.993063 0.268826 -0.685746
C31   C     C_3   0.915881 0.875329 0.702597 0.184522
C32   C     C_3   0.874134 0.000921 0.729645 -0.693088
C33   C     C_3   0.046283 0.112977 0.767468 0.179867
C34   C     C_1   0.499997 0.935489 0.500108 -0.196009
C35   C     C_3   0.076496 0.982056 0.834423 -0.714214
C36   C     C_3   0.330581 0.770433 0.761491 -0.249266
C37   C     C_3   0.672625 0.229065 0.737134 -0.248355
C38   C     C_3   0.325274 0.238682 0.260006 -0.245432
C39   C     C_3   0.671629 0.763057 0.239410 -0.247527
C40   C     C_R   0.237750 0.555417 0.673583 -0.194639
C41   C     C_R   0.764204 0.428990 0.595621 -0.232099
C42   C     C_R   0.235361 0.446114 0.402714 -0.230811
C43   C     C_R   0.762485 0.539398 0.325571 -0.193082
C44   C     C_R   0.207027 0.498893 0.545853 0.153762
H1    H     H_    0.215396 0.596517 0.783904 0.172234
H2    H     H_    0.047865 0.878831 0.200758 0.087791
H3    H     H_    0.105011 0.767868 0.268338 0.115355
H4    H     H_    0.154491 0.992071 0.369882 0.308155
H5    H     H_    0.149106 0.979431 0.150226 0.167684
H6    H     H_    0.101625 0.098853 0.268704 0.232625
H7    H     H_    0.951779 0.885483 0.786140 0.088321
H8    H     H_    0.892308 0.774539 0.735229 0.119698
H9    H     H_    0.841233 0.998263 0.635429 0.303157
H10   H     H_    0.851952 0.992861 0.853045 0.168569
H11   H     H_    0.897270 0.104985 0.721066 0.239102
H12   H     H_    0.788333 0.386125 0.695484 0.165547
H13   H     H_    0.000279 0.109874 0.808444 0.086188
H14   H     H_    0.065947 0.210600 0.821111 0.112595
H15   H     H_    0.055923 0.881116 0.794943 0.245029
H16   H     H_    0.122289 0.981351 0.791706 0.296098
H17   H     H_    0.073670 0.987997 0.969606 0.150933
H18   H     H_    0.287486 0.822429 0.766687 0.162166
H19   H     H_    0.354030 0.796259 0.642799 0.136646
H20   H     H_    0.355102 0.817258 0.862124 0.190729
H21   H     H_    0.715561 0.176277 0.731008 0.156112
H22   H     H_    0.648218 0.198632 0.627869 0.138292
H23   H     H_    0.210949 0.404611 0.303009 0.164370
H24   H     H_    0.648792 0.187335 0.848163 0.191851
H25   H     H_    0.281925 0.189592 0.265751 0.157915
H26   H     H_    0.349411 0.205769 0.369091 0.138465
H27   H     H_    0.348771 0.195284 0.148697 0.191120
H28   H     H_    0.715184 0.811021 0.234367 0.165042
H29   H     H_    0.648481 0.790707 0.358347 0.136713
H30   H     H_    0.647506 0.812465 0.139169 0.189992
H31   H     H_    0.785130 0.580043 0.216014 0.171596
H32   H     H_    0.004210 0.111339 0.180146 0.084545
H33   H     H_    0.938454 0.214117 0.181082 0.109576
H34   H     H_    0.881842 0.989169 0.204553 0.295593
H35   H     H_    0.929636 0.994249 0.024380 0.150735
H36   H     H_    0.947240 0.883462 0.196225 0.242168
N1    N     N_R   0.853826 0.484681 0.445857 -0.326952
N2    N     N_R   0.146087 0.498110 0.557576 -0.326462
N3    N     N_1   0.500000 0.500000 0.073640 -0.009293
N4    N     N_1   0.500000 0.500000 0.926360 -0.009074
O1    O     O_R   0.500000 0.285350 0.636850 -0.621186
O2    O     O_2   0.149068 0.245666 0.570646 -0.540411
O3    O     O_2   0.855835 0.232258 0.430509 -0.541187
O4    O     O_2   0.145390 0.750852 0.565151 -0.551168
O5    O     O_3   0.956077 0.106331 0.401796 -0.478210
O6    O     O_3   0.055337 0.879741 0.453096 -0.483588
O7    O     O_3   0.937291 0.876249 0.537031 -0.483058
O8    O     O_3   0.052653 0.110803 0.593968 -0.481003
O9    O     O_3   0.326661 0.620128 0.785854 -0.561520
O10   O     O_3   0.677078 0.380176 0.751935 -0.561696
O11   O     O_3   0.322046 0.390190 0.246225 -0.561949
O12   O     O_R   0.500000 0.714650 0.363150 -0.620250
O13   O     O_3   0.674150 0.612516 0.214103 -0.562251
O14   O     O_R   0.500000 0.714650 0.636850 -0.620630
O15   O     O_R   0.500000 0.285350 0.363150 -0.621307
O16   O     O_R   0.416160 0.500000 0.636910 -0.577190
O17   O     O_R   0.583840 0.500000 0.363090 -0.577627
O18   O     O_R   0.583840 0.500000 0.636910 -0.574796
O19   O     O_R   0.416160 0.500000 0.363090 -0.575174
O20   O     O_2   0.849408 0.737413 0.441843 -0.546027
Zn1   Zn    Zn3+2 0.500000 0.500000 0.682780 1.040223
Zn2   Zn    Zn3+2 0.500000 0.500000 0.317220 1.039895

loop_
_geom_bond_atom_site_label_1
_geom_bond_atom_site_label_2
_ccdc_geom_bond_type
C38   H26   S    
C11   C18   A    
C33   H14   S    
C8    C43   A    
C31   H8    S    
C1    O15   A    
C11   N1    A    
O16   Zn1   S    
O14   Zn1   S    
C29   H3    S    
C30   H4    S    
C19   C21   A    
C14   O3    S    
C44   N2    S    
O1    Zn1   S    
C39   O13   S    
C2    C41   A    
C26   O8    S    
C37   H24   S    
O18   Zn1   S    
C35   H15   S    
C39   H30   S    
C19   C26   A    
C28   H35   S    
C3    O16   A    
N3    N4    T    
C6    O10   S    
C6    C41   A    
C4    O18   A    
C38   O11   S    
C33   H13   S    
C39   H28   S    
C11   O20   S    
C36   H19   S    
C28   H34   S    
C32   H11   S    
C12   O14   A    
C30   H6    S    
C38   H25   S    
C37   H22   S    
C1    O1    A    
C18   C25   A    
C42   C44   A    
C36   H18   S    
C36   O9    S    
C32   H10   S    
C29   O6    S    
C15   N2    A    
C43   H31   S    
C40   H1    S    
C25   O7    S    
C17   C24   A    
C13   C19   A    
C24   C25   A    
C33   O8    S    
C13   N2    A    
C17   C21   A    
C37   H21   S    
C35   H16   S    
C13   O2    S    
C8    O13   S    
C7    C42   A    
C41   H12   S    
C5    C9    A    
C29   C30   S    
C3    C9    S    
C31   C32   S    
C2    C43   A    
C16   C20   A    
C23   C34   T    
C4    O17   A    
N4    Zn1   S    
C35   H17   S    
C30   H5    S    
C1    C23   S    
C31   O7    S    
C42   H23   S    
C14   C16   A    
C12   C34   S    
C27   H32   S    
C32   H9    S    
C3    O19   A    
O17   Zn2   S    
C7    C9    A    
O15   Zn2   S    
O12   Zn2   S    
C38   H27   S    
C16   C22   A    
C31   H7    S    
C27   H33   S    
C24   O6    S    
C6    C10   A    
C5    O9    S    
C15   C17   A    
C7    O11   S    
N3    Zn2   S    
C29   H2    S    
C33   C35   S    
C22   O5    S    
C37   O10   S    
C27   O5    S    
O19   Zn2   S    
C18   C20   A    
C39   H29   S    
C28   H36   S    
C40   C44   A    
C20   C21   A    
C8    C10   A    
C22   C26   A    
C5    C40   A    
C27   C28   S    
C12   O12   A    
C2    N1    S    
C14   N1    A    
C36   H20   S    
C4    C10   S    
C15   O4    S    
