data_mof_unit_4753.cif
_audit_creation_date              2012-12-10T19:07:35-0500
_audit_creation_method            fapswitch 2.2
_symmetry_space_group_name_H-M    P1
_symmetry_Int_Tables_number       1
_space_group_crystal_system       triclinic
_cell_length_a                    10.870633
_cell_length_b                    10.79996
_cell_length_c                    9.560053
_cell_angle_alpha                 89.612315
_cell_angle_beta                  91.08267
_cell_angle_gamma                 90.811142
_cell_volume                      1122.0366459

loop_
_atom_site_label
_atom_site_type_symbol
_atom_type_description
_atom_site_fract_x
_atom_site_fract_y
_atom_site_fract_z
_atom_type_partial_charge
C1    C     C_R   0.499932 0.262493 0.500384 0.796992
C2    C     C_R   0.940963 0.464342 0.623520 0.128934
C3    C     C_3   0.943997 0.529944 0.760815 -0.505008
C4    C     C_3   0.082931 0.530278 0.756031 -0.450888
C5    C     C_R   0.460214 0.064069 0.384261 0.131331
C6    C     C_R   0.505165 0.129328 0.500088 -0.092560
C7    C     C_R   0.560877 0.064678 0.611793 -0.222613
C8    C     C_R   0.561069 0.935480 0.611295 -0.224706
C9    C     C_R   0.505024 0.870848 0.499447 -0.094167
C10   C     C_R   0.459175 0.936614 0.384620 0.129934
C11   C     C_3   0.334676 0.929439 0.316084 -0.473382
C12   C     C_R   0.262607 0.496317 0.498754 0.794350
C13   C     C_3   0.336374 0.069977 0.314380 -0.481406
C14   C     C_R   0.552722 0.596750 0.074217 0.244454
C15   C     C_R   0.437304 0.411991 0.073670 -0.088542
C16   C     C_R   0.437258 0.412012 0.924973 -0.083585
C17   C     C_R   0.552656 0.595960 0.926091 0.224585
C18   C     C_3   0.684380 0.630236 0.919677 -0.523423
C19   C     C_3   0.686590 0.632566 0.078021 -0.160805
C20   C     C_R   0.499878 0.737512 0.499803 0.795515
C21   C     C_R   0.738069 0.497038 0.500908 0.789000
C22   C     C_R   0.067660 0.464357 0.620749 0.127969
C23   C     C_R   0.130062 0.481181 0.496300 -0.100755
C24   C     C_R   0.062230 0.478922 0.369991 -0.227271
C25   C     C_R   0.933799 0.479445 0.372184 -0.219063
C26   C     C_R   0.871690 0.483149 0.500395 -0.098056
Cu1   Cu    Cu3+1 0.499990 0.499980 0.640670 0.934042
Cu2   Cu    Cu3+1 0.500010 0.500020 0.359330 0.932729
H1    H     H_    0.107612 0.483573 0.270157 0.164136
H2    H     H_    0.263821 0.888667 0.385803 0.193479
H3    H     H_    0.341253 0.110002 0.207174 0.189315
H4    H     H_    0.265786 0.111171 0.382024 0.192434
H5    H     H_    0.388237 0.339428 0.128748 0.136379
H6    H     H_    0.388199 0.339402 0.868906 0.138954
H7    H     H_    0.734622 0.551342 0.878729 0.203754
H8    H     H_    0.701643 0.719208 0.864523 0.184758
H9    H     H_    0.744081 0.557440 0.122217 0.160925
H10   H     H_    0.884359 0.482790 0.273430 0.154388
H11   H     H_    0.905027 0.624482 0.753921 0.201891
H12   H     H_    0.910851 0.469041 0.846696 0.192368
H13   H     H_    0.124037 0.624578 0.744105 0.201731
H14   H     H_    0.126493 0.471321 0.838338 0.194292
H15   H     H_    0.601613 0.113564 0.700148 0.161152
H16   H     H_    0.602123 0.886457 0.699246 0.147984
H17   H     H_    0.336824 0.888629 0.209819 0.190707
N1    N     N_R   0.500790 0.500930 0.147930 -0.198070
N2    N     N_R   0.500790 0.500890 0.852020 -0.183420
O1    O     O_R   0.500000 0.319640 0.618810 -0.588426
O2    O     O_R   0.500010 0.319680 0.381230 -0.580858
O3    O     O_R   0.319650 0.499970 0.618810 -0.580117
O4    O     O_R   0.319660 0.500010 0.381230 -0.586180
O5    O     O_R   0.499990 0.680320 0.618770 -0.580896
O6    O     O_R   0.500000 0.680360 0.381190 -0.582454
O7    O     O_R   0.680340 0.499990 0.618770 -0.578187
O8    O     O_R   0.680350 0.500030 0.381190 -0.592559
C27   C     C_3   0.719818 0.759547 0.142862 -0.340998
C28   C     C_3   0.636842 0.867335 0.096728 -0.335390
C29   C     C_3   0.685830 0.989968 0.155426 -0.848368
H18   H     H_    0.697232 0.984190 0.270953 0.257944
H19   H     H_    0.776251 0.013543 0.109223 0.247027
H20   H     H_    0.620432 0.065002 0.128812 0.245457
H21   H     H_    0.631795 0.876714 0.981309 0.206732
H22   H     H_    0.542279 0.849933 0.133975 0.222559
H23   H     H_    0.716860 0.749950 0.258572 0.207458
H24   H     H_    0.816607 0.782232 0.115749 0.196494

loop_
_geom_bond_atom_site_label_1
_geom_bond_atom_site_label_2
_ccdc_geom_bond_type
Cu1   O1    S    
C2    C22   A    
C12   O3    A    
C23   C24   A    
C27   H23   S    
C1    O1    A    
C6    C7    A    
C27   H24   S    
C7    H15   S    
C25   H10   S    
C4    C22   S    
Cu2   O2    S    
C9    C20   S    
C5    C13   S    
C14   C17   A    
Cu1   O3    S    
C21   C26   S    
C29   H20   S    
C17   C18   S    
C29   H18   S    
Cu1   O7    S    
C3    H11   S    
C5    C10   A    
C2    C26   A    
C27   C28   S    
Cu2   O6    S    
C11   C13   S    
C12   C23   S    
Cu2   N1    S    
C28   C29   S    
C5    C6    A    
C4    H14   S    
C9    C10   A    
Cu2   O8    S    
C19   C27   S    
C3    H12   S    
C28   H22   S    
C2    C3    S    
C10   C11   S    
C21   O7    A    
C13   H3    S    
Cu2   O4    S    
C11   H17   S    
C7    C8    A    
C4    H13   S    
C29   H19   S    
C15   C16   A    
C17   N2    A    
C28   H21   S    
C12   O4    A    
C24   C25   A    
Cu1   O5    S    
C20   O5    A    
C18   C19   S    
C18   H7    S    
Cu1   N2    S    
Cu1   Cu2   S    
C21   O8    A    
C16   N2    A    
C24   H1    S    
C20   O6    A    
C19   H9    S    
C15   N1    A    
C16   H6    S    
C25   C26   A    
C22   C23   A    
C13   H4    S    
C18   H8    S    
C14   C19   S    
C15   H5    S    
C3    C4    S    
C1    C6    S    
C11   H2    S    
C8    C9    A    
C14   N1    A    
C8    H16   S    
C1    O2    A    
