data_mof_unit_3650.cif
_audit_creation_date              2012-12-11T14:07:41-0500
_audit_creation_method            fapswitch 2.2
_symmetry_space_group_name_H-M    P1
_symmetry_Int_Tables_number       1
_space_group_crystal_system       triclinic
_cell_length_a                    19.746933
_cell_length_b                    17.164767
_cell_length_c                    15.369525
_cell_angle_alpha                 90.000326
_cell_angle_beta                  53.723196
_cell_angle_gamma                 89.999984
_cell_volume                      4199.75066265

loop_
_atom_site_label
_atom_site_type_symbol
_atom_type_description
_atom_site_fract_x
_atom_site_fract_y
_atom_site_fract_z
_atom_type_partial_charge
C1    C     C_R   0.373722 0.196273 0.997244 -0.115299
C2    C     C_R   0.705477 0.848330 0.990135 0.158644
C3    C     C_R   0.205478 0.651669 0.990134 0.158647
C4    C     C_R   0.205478 0.348330 0.990135 0.158644
C5    C     C_R   0.611753 0.818120 0.695600 0.013990
C6    C     C_R   0.611767 0.181879 0.695596 0.013991
C7    C     C_R   0.111770 0.318128 0.695588 0.013986
C8    C     C_R   0.111764 0.681880 0.695599 0.013992
C9    C     C_3   0.213523 0.136497 0.521828 -0.397057
C10   C     C_3   0.213663 0.863483 0.521844 -0.397130
C11   C     C_3   0.713607 0.636514 0.521827 -0.397095
C12   C     C_R   0.373719 0.803728 0.997248 -0.115293
C13   C     C_3   0.713645 0.363488 0.521845 -0.397130
C14   C     C_3   0.159276 0.183767 0.625664 -0.414089
C15   C     C_3   0.159295 0.816235 0.625673 -0.414010
C16   C     C_3   0.659267 0.683763 0.625663 -0.414032
C17   C     C_3   0.659283 0.316238 0.625673 -0.413999
C18   C     C_3   0.313554 0.253776 0.436837 -0.074282
C19   C     C_3   0.313550 0.746115 0.436750 -0.074349
C20   C     C_3   0.813555 0.753845 0.436804 -0.074339
C21   C     C_3   0.813545 0.246130 0.436749 -0.074335
C22   C     C_3   0.695138 0.735681 0.417799 -0.427919
C23   C     C_R   0.873719 0.696272 0.997247 -0.115293
C24   C     C_3   0.695087 0.264376 0.417842 -0.427885
C25   C     C_3   0.195157 0.235724 0.417771 -0.428013
C26   C     C_3   0.195094 0.764378 0.417843 -0.427874
C27   C     C_3   0.262084 0.192570 0.422869 0.328466
C28   C     C_3   0.262108 0.807415 0.422870 0.328437
C29   C     C_3   0.762108 0.692590 0.422868 0.328452
C30   C     C_3   0.762097 0.307423 0.422870 0.328440
C31   C     C_3   0.662394 0.771255 0.598180 0.379748
C32   C     C_3   0.662399 0.228750 0.598180 0.379723
C33   C     C_3   0.162395 0.271256 0.598170 0.379780
C34   C     C_R   0.873720 0.303727 0.997246 -0.115302
C35   C     C_3   0.162402 0.728749 0.598182 0.379729
C36   C     C_3   0.753488 0.802210 0.538118 -0.443674
C37   C     C_3   0.753493 0.197790 0.538094 -0.443666
C38   C     C_3   0.253490 0.302214 0.538073 -0.443746
C39   C     C_3   0.253492 0.697779 0.538098 -0.443659
C40   C     C_R   0.356846 0.821685 0.219956 -0.145739
C41   C     C_R   0.356831 0.178302 0.219954 -0.145780
C42   C     C_R   0.856838 0.321692 0.219955 -0.145738
C43   C     C_R   0.856850 0.678319 0.219954 -0.145755
C44   C     C_3   0.633340 0.779246 0.524264 -0.403614
C45   C     C_R   0.664834 0.911629 0.059317 -0.150793
C46   C     C_3   0.633324 0.220774 0.524286 -0.403604
C47   C     C_3   0.133319 0.279234 0.524275 -0.403574
C48   C     C_3   0.133326 0.720778 0.524288 -0.403611
C49   C     C_2   0.277371 0.690804 0.971363 -0.204958
C50   C     C_2   0.277370 0.309195 0.971364 -0.204960
C51   C     C_2   0.777370 0.190804 0.971363 -0.204963
C52   C     C_2   0.777369 0.809194 0.971366 -0.204957
C53   C     C_2   0.806436 0.255783 0.911894 -0.211690
C54   C     C_2   0.806436 0.744216 0.911894 -0.211689
C55   C     C_2   0.306436 0.755784 0.911894 -0.211690
C56   C     C_R   0.664835 0.088371 0.059315 -0.150823
C57   C     C_2   0.306438 0.244217 0.911892 -0.211686
C58   C     C_R   0.364028 0.889741 0.898286 -0.153956
C59   C     C_R   0.364029 0.110259 0.898284 -0.153954
C60   C     C_R   0.864029 0.389740 0.898285 -0.153960
C61   C     C_R   0.864028 0.610259 0.898286 -0.153958
C62   C     C_R   0.368193 0.088164 0.316151 -0.113860
C63   C     C_R   0.368212 0.911826 0.316150 -0.113843
C64   C     C_R   0.868213 0.588179 0.316151 -0.113870
C65   C     C_R   0.868199 0.411836 0.316150 -0.113830
C66   C     C_R   0.345054 0.185608 0.936026 0.153172
C67   C     C_R   0.164834 0.411629 0.059316 -0.150796
C68   C     C_R   0.345052 0.814393 0.936029 0.153170
C69   C     C_R   0.845052 0.685607 0.936029 0.153173
C70   C     C_R   0.845053 0.314392 0.936028 0.153170
C71   C     C_R   0.320383 0.850378 0.323059 -0.003096
C72   C     C_R   0.320359 0.149606 0.323057 -0.003141
C73   C     C_R   0.820369 0.350388 0.323058 -0.003110
C74   C     C_R   0.820387 0.649629 0.323057 -0.003106
C75   C     C_R   0.657467 0.180153 0.958858 -0.123702
C76   C     C_R   0.657467 0.819846 0.958858 -0.123689
C77   C     C_R   0.157467 0.680153 0.958857 -0.123690
C78   C     C_R   0.164835 0.588371 0.059315 -0.150808
C79   C     C_R   0.157467 0.319846 0.958858 -0.123687
C80   C     C_R   0.601567 0.802307 0.790770 -0.150655
C81   C     C_R   0.601573 0.197691 0.790770 -0.150643
C82   C     C_R   0.101577 0.302310 0.790761 -0.150669
C83   C     C_R   0.101571 0.697692 0.790772 -0.150647
C84   C     C_R   0.594675 0.104317 0.694957 -0.142522
C85   C     C_R   0.594668 0.895683 0.694961 -0.142516
C86   C     C_R   0.094673 0.604318 0.694959 -0.142523
C87   C     C_R   0.094679 0.395689 0.694953 -0.142493
C88   C     C_1   0.379164 0.218478 0.442751 0.042391
C89   C     C_R   0.705478 0.151669 0.990134 0.158651
C90   C     C_1   0.379348 0.781283 0.442384 0.042376
C91   C     C_1   0.879275 0.718619 0.442553 0.042370
C92   C     C_1   0.879337 0.281307 0.442389 0.042372
H1    H     H_    0.382317 0.250795 0.024544 0.078256
H2    H     H_    0.593454 0.338066 0.674186 0.157770
H3    H     H_    0.093437 0.161961 0.674295 0.157717
H4    H     H_    0.093469 0.838070 0.674184 0.157771
H5    H     H_    0.184415 0.174821 0.673336 0.152761
H6    H     H_    0.184333 0.825176 0.673461 0.152648
H7    H     H_    0.684318 0.674804 0.673434 0.152680
H8    H     H_    0.684321 0.325184 0.673460 0.152645
H9    H     H_    0.772553 0.802085 0.593525 0.164544
H10   H     H_    0.772580 0.197940 0.593479 0.164547
H11   H     H_    0.272559 0.302178 0.593478 0.164537
H12   H     H_    0.382311 0.749207 0.024552 0.078258
H13   H     H_    0.272579 0.697927 0.593482 0.164548
H14   H     H_    0.725366 0.778848 0.350941 0.149008
H15   H     H_    0.725279 0.221239 0.350947 0.148999
H16   H     H_    0.225427 0.278935 0.350965 0.149036
H17   H     H_    0.225280 0.721240 0.350950 0.149000
H18   H     H_    0.660273 0.693502 0.402804 0.171481
H19   H     H_    0.660198 0.306589 0.402929 0.171473
H20   H     H_    0.160317 0.193594 0.402672 0.171467
H21   H     H_    0.160209 0.806596 0.402930 0.171480
H22   H     H_    0.569002 0.754829 0.565474 0.166664
H23   H     H_    0.882313 0.750794 0.024550 0.078258
H24   H     H_    0.568973 0.245169 0.565532 0.166651
H25   H     H_    0.069006 0.254758 0.565477 0.166691
H26   H     H_    0.068977 0.745180 0.565534 0.166650
H27   H     H_    0.631189 0.841123 0.504959 0.147437
H28   H     H_    0.631195 0.158900 0.504950 0.147446
H29   H     H_    0.131097 0.341107 0.505024 0.147421
H30   H     H_    0.131190 0.658906 0.504954 0.147445
H31   H     H_    0.346342 0.293574 0.365829 0.098353
H32   H     H_    0.346160 0.706263 0.365801 0.098373
H33   H     H_    0.846236 0.793684 0.365843 0.098374
H34   H     H_    0.882313 0.249206 0.024549 0.078260
H35   H     H_    0.846161 0.206280 0.365798 0.098374
H36   H     H_    0.340943 0.769407 0.196823 0.088408
H37   H     H_    0.340922 0.230574 0.196820 0.088451
H38   H     H_    0.840935 0.269414 0.196823 0.088410
H39   H     H_    0.840949 0.730595 0.196818 0.088424
H40   H     H_    0.756651 0.864024 0.513793 0.145976
H41   H     H_    0.756645 0.135968 0.513803 0.145966
H42   H     H_    0.256656 0.364001 0.513650 0.145988
H43   H     H_    0.256638 0.635958 0.513810 0.145965
H44   H     H_    0.295702 0.673159 0.022389 0.120994
H45   H     H_    0.173340 0.096188 0.513798 0.160055
H46   H     H_    0.295699 0.326838 0.022393 0.120996
H47   H     H_    0.795702 0.173160 0.022389 0.120994
H48   H     H_    0.795698 0.826838 0.022395 0.120995
H49   H     H_    0.789924 0.272349 0.858589 0.125836
H50   H     H_    0.789926 0.727651 0.858587 0.125840
H51   H     H_    0.289924 0.772350 0.858590 0.125835
H52   H     H_    0.289927 0.227652 0.858585 0.125847
H53   H     H_    0.359149 0.915519 0.837955 0.092874
H54   H     H_    0.359149 0.084480 0.837954 0.092883
H55   H     H_    0.859149 0.415518 0.837955 0.092872
H56   H     H_    0.173589 0.903945 0.513810 0.159999
H57   H     H_    0.859149 0.584480 0.837955 0.092876
H58   H     H_    0.367194 0.061291 0.379953 0.087006
H59   H     H_    0.367227 0.938698 0.379942 0.086959
H60   H     H_    0.867222 0.561306 0.379947 0.086982
H61   H     H_    0.867205 0.438714 0.379945 0.086957
H62   H     H_    0.666924 0.231173 0.911869 0.087976
H63   H     H_    0.666923 0.768826 0.911869 0.087977
H64   H     H_    0.166924 0.731172 0.911868 0.087975
H65   H     H_    0.166924 0.268826 0.911869 0.087981
H66   H     H_    0.603698 0.746440 0.821372 0.086536
H67   H     H_    0.673505 0.596109 0.513770 0.160010
H68   H     H_    0.603698 0.253559 0.821379 0.086528
H69   H     H_    0.103715 0.246439 0.821353 0.086549
H70   H     H_    0.103694 0.753559 0.821383 0.086531
H71   H     H_    0.592943 0.072808 0.635479 0.084251
H72   H     H_    0.592934 0.927195 0.635487 0.084246
H73   H     H_    0.092941 0.572810 0.635480 0.084247
H74   H     H_    0.092948 0.427203 0.635479 0.084237
H75   H     H_    0.681826 0.938268 0.107343 0.088819
H76   H     H_    0.681827 0.061731 0.107340 0.088821
H77   H     H_    0.181826 0.438269 0.107342 0.088819
H78   H     H_    0.673565 0.403944 0.513813 0.159993
H79   H     H_    0.181827 0.561731 0.107340 0.088819
H80   H     H_    0.255965 0.099955 0.529598 0.148351
H81   H     H_    0.256199 0.899859 0.529625 0.148395
H82   H     H_    0.756102 0.600074 0.529614 0.148378
H83   H     H_    0.756176 0.399872 0.529627 0.148394
H84   H     H_    0.593435 0.661945 0.674189 0.157758
N1    N     N_R   0.408680 0.130160 0.995800 -0.042304
N2    N     N_R   0.403730 0.078230 0.935950 -0.039572
N3    N     N_R   0.903730 0.421770 0.935950 -0.039573
N4    N     N_R   0.903730 0.578230 0.935950 -0.039573
N5    N     N_R   0.426630 0.075970 0.212960 -0.037501
N6    N     N_R   0.426630 0.924030 0.212960 -0.037494
N7    N     N_R   0.926630 0.575970 0.212960 -0.037496
N8    N     N_R   0.926630 0.424030 0.212960 -0.037498
N9    N     N_R   0.591320 0.134600 0.004200 -0.048709
N10   N     N_R   0.591320 0.865400 0.004200 -0.048707
N11   N     N_R   0.091320 0.634600 0.004200 -0.048708
N12   N     N_R   0.408680 0.869840 0.995800 -0.042307
N13   N     N_R   0.091320 0.365400 0.004200 -0.048707
N14   N     N_R   0.578320 0.867660 0.846880 -0.034749
N15   N     N_R   0.578320 0.132340 0.846880 -0.034746
N16   N     N_R   0.078320 0.367660 0.846880 -0.034748
N17   N     N_R   0.078320 0.632340 0.846880 -0.034747
N18   N     N_R   0.573370 0.074390 0.787040 -0.033818
N19   N     N_R   0.573370 0.925610 0.787040 -0.033820
N20   N     N_R   0.073370 0.574390 0.787040 -0.033818
N21   N     N_R   0.073370 0.425610 0.787040 -0.033820
N22   N     N_R   0.596270 0.927870 0.064040 -0.041168
N23   N     N_R   0.908680 0.630160 0.995800 -0.042307
N24   N     N_R   0.596270 0.072130 0.064040 -0.041170
N25   N     N_R   0.096270 0.427870 0.064040 -0.041170
N26   N     N_R   0.096270 0.572130 0.064040 -0.041170
N27   N     N_1   0.430456 0.191033 0.447452 -0.106290
N28   N     N_1   0.430789 0.808626 0.446865 -0.106204
N29   N     N_1   0.930652 0.691232 0.447126 -0.106240
N30   N     N_1   0.930772 0.308657 0.446875 -0.106210
N31   N     N_R   0.908680 0.369840 0.995800 -0.042306
N32   N     N_R   0.421680 0.867580 0.153120 -0.036650
N33   N     N_R   0.421680 0.132420 0.153120 -0.036654
N34   N     N_R   0.921680 0.367580 0.153120 -0.036652
N35   N     N_R   0.921680 0.632420 0.153120 -0.036650
N36   N     N_R   0.403730 0.921770 0.935950 -0.039572
Ni1   Ni    Ni4+2 0.500000 0.131190 0.000000 0.205659
Ni2   Ni    Ni4+2 0.500000 0.868810 0.000000 0.205673
Ni3   Ni    Ni4+2 0.000000 0.631190 0.000000 0.205666
Ni4   Ni    Ni4+2 1.000000 0.368810 0.000000 0.205671
Ni5   Ni    Ni4+2 0.488650 0.000000 0.862740 0.206972
Ni6   Ni    Ni4+2 0.988650 0.500000 0.862740 0.206967
Ni7   Ni    Ni4+2 0.511350 0.000000 0.137260 0.217761
Ni8   Ni    Ni4+2 0.011350 0.500000 0.137260 0.217762

loop_
_geom_bond_atom_site_label_1
_geom_bond_atom_site_label_2
_ccdc_geom_bond_type
N35   Ni3   S    
C40   N32   A    
N7    Ni8   S    
C85   H72   S    
C40   C71   A    
C8    C83   A    
C81   H68   S    
C23   C69   A    
N2    Ni5   S    
C6    C32   S    
N22   Ni7   S    
C57   C66   S    
C8    C86   A    
C14   C33   S    
C55   C68   S    
C3    C49   S    
C58   H53   S    
C11   H67   S    
C39   H43   S    
C67   H77   S    
C16   C31   S    
C12   C68   A    
N11   N26   A    
C22   C44   S    
C64   H60   S    
N23   Ni3   S    
C19   C39   S    
C22   C29   S    
C12   H12   S    
C10   C15   S    
C36   H40   S    
C59   C66   A    
C48   H30   S    
C37   H10   S    
C47   H29   S    
C87   H74   S    
N36   Ni5   S    
C35   C48   S    
C24   C30   S    
C61   C69   A    
C40   H36   S    
C23   N23   A    
C65   C73   A    
N5    N33   A    
N26   Ni8   S    
C86   H73   S    
C81   N15   A    
C65   H61   S    
C25   H20   S    
C86   N20   A    
C19   C90   S    
C64   N7    A    
C9    H45   S    
C7    C87   A    
C84   N18   A    
C22   H18   S    
N5    Ni7   S    
C60   H55   S    
C21   H35   S    
C43   N35   A    
C34   C70   A    
N6    N32   A    
C42   N34   A    
C26   C48   S    
C18   H31   S    
C41   N33   A    
C16   H84   S    
C43   C74   A    
C44   H22   S    
N6    Ni7   S    
N9    N24   A    
C63   N6    A    
C7    C33   S    
C12   N12   A    
C75   N9    A    
C24   H19   S    
C80   N14   A    
C53   C70   S    
C15   C35   S    
C91   N29   T    
C5    C31   S    
C52   C54   D    
N17   Ni3   S    
N18   Ni5   S    
C90   N28   T    
C20   C29   S    
C2    C45   A    
C20   C91   S    
N11   Ni3   S    
C19   H32   S    
C6    C84   A    
C31   C44   S    
C46   H28   S    
N1    Ni1   S    
C13   C30   S    
C55   H51   S    
C4    C79   A    
N31   Ni4   S    
C15   H4    S    
C30   C73   S    
N12   Ni2   S    
C85   N19   A    
C76   N10   A    
C48   H26   S    
C29   C74   S    
C44   H27   S    
N13   N25   A    
C45   N22   A    
N16   N21   A    
N7    N35   A    
N33   Ni1   S    
C4    C50   S    
C36   H9    S    
C60   N3    A    
C8    C35   S    
C20   C36   S    
C83   N17   A    
C35   C39   S    
C9    C14   S    
C38   H11   S    
C67   N25   A    
N13   Ni4   S    
C45   H75   S    
C11   C16   S    
C80   H66   S    
N3    N31   A    
C60   C70   A    
C34   H34   S    
N17   N20   A    
C49   C55   D    
C56   H76   S    
C1    C66   A    
C62   C72   A    
C42   H38   S    
C24   H15   S    
C32   C37   S    
C5    C80   A    
C19   C28   S    
N14   Ni2   S    
C26   H17   S    
C63   H59   S    
C84   H71   S    
C2    C52   S    
N14   N19   A    
C41   C72   A    
C64   C74   A    
C58   C68   A    
C56   C89   A    
C54   H50   S    
C83   H70   S    
C63   C71   A    
N3    Ni6   S    
C77   N11   A    
C37   H41   S    
C28   C71   S    
C87   N21   A    
C15   H6    S    
N21   Ni6   S    
C3    C77   A    
C14   H3    S    
N19   Ni5   S    
C2    C76   A    
C9    C27   S    
C14   H5    S    
C10   C28   S    
C39   H13   S    
C25   C47   S    
C13   H78   S    
C11   H82   S    
N32   Ni2   S    
C62   H58   S    
C57   H52   S    
C82   N16   A    
C65   N8    A    
C50   C57   D    
C32   C46   S    
C49   H44   S    
C59   N2    A    
C18   C27   S    
C78   N26   A    
N25   Ni8   S    
C79   H65   S    
C4    C67   A    
N20   Ni6   S    
C50   H46   S    
C16   H7    S    
N8    N34   A    
C82   H69   S    
C58   N36   A    
C34   N31   A    
C25   C27   S    
C21   C30   S    
C76   H63   S    
C26   C28   S    
C33   C38   S    
C46   H24   S    
C24   C46   S    
C43   H39   S    
C18   C38   S    
C26   H21   S    
C5    C85   A    
C20   H33   S    
C77   H64   S    
N4    N23   A    
C22   H14   S    
N15   Ni1   S    
C62   N5    A    
C41   H37   S    
N12   N36   A    
C75   H62   S    
N4    Ni6   S    
C54   C69   S    
C61   H57   S    
C10   H81   S    
N34   Ni4   S    
N10   Ni2   S    
C78   H79   S    
C42   C73   A    
N9    Ni1   S    
C53   H49   S    
C38   H42   S    
C88   N27   T    
N8    Ni8   S    
C17   H8    S    
C18   C88   S    
N15   N18   A    
C92   N30   T    
C75   C89   A    
C23   H23   S    
C13   C17   S    
C52   H48   S    
C59   H54   S    
C47   H25   S    
C7    C82   A    
C21   C37   S    
C11   C29   S    
C61   N4    A    
C1    H1    S    
N1    N2    A    
C79   N13   A    
C6    C81   A    
C17   C32   S    
C13   H83   S    
C31   C36   S    
N10   N22   A    
C9    H80   S    
C17   H2    S    
N24   Ni7   S    
C51   C53   D    
C33   C47   S    
C3    C78   A    
C1    N1    A    
N16   Ni4   S    
C51   C89   S    
C27   C72   S    
C25   H16   S    
C10   H56   S    
C56   N24   A    
C21   C92   S    
C51   H47   S    
