data_mof_unit_2138.cif
_audit_creation_date              2012-12-11T15:27:35-0500
_audit_creation_method            fapswitch 2.2
_symmetry_space_group_name_H-M    P1
_symmetry_Int_Tables_number       1
_space_group_crystal_system       triclinic
_cell_length_a                    23.122148
_cell_length_b                    7.318273
_cell_length_c                    15.243809
_cell_angle_alpha                 90.481085
_cell_angle_beta                  108.226095
_cell_angle_gamma                 88.884431
_cell_volume                      2449.5844792

loop_
_atom_site_label
_atom_site_type_symbol
_atom_type_description
_atom_site_fract_x
_atom_site_fract_y
_atom_site_fract_z
_atom_type_partial_charge
O1    O     O_R   0.711000 0.648610 0.341170 -0.545436
O2    O     O_R   0.289000 0.351390 0.658830 -0.544986
O3    O     O_R   0.789000 0.148610 0.158830 -0.539455
O4    O     O_R   0.211000 0.851390 0.841170 -0.545720
O5    O     O_R   0.829650 0.322030 0.336650 -0.538921
O6    O     O_R   0.170350 0.677970 0.663350 -0.550632
O7    O     O_R   0.670350 0.822030 0.163350 -0.536768
O8    O     O_R   0.329650 0.177970 0.836650 -0.545783
C1    C     C_R   0.854302 0.484878 0.356569 0.713693
C2    C     C_R   0.145769 0.515131 0.643205 0.723719
C3    C     C_R   0.645756 0.986736 0.143332 0.710288
C4    C     C_R   0.353954 0.012945 0.857590 0.716342
O9    O     O_R   0.713950 0.319280 0.352070 -0.539442
O10   O     O_R   0.286050 0.680720 0.647930 -0.528624
O11   O     O_R   0.786050 0.819280 0.147930 -0.539071
O12   O     O_R   0.213950 0.180720 0.852070 -0.528767
O13   O     O_R   0.672470 0.142870 0.174360 -0.533099
O14   O     O_R   0.327530 0.857130 0.825640 -0.528260
O15   O     O_R   0.827530 0.642870 0.325640 -0.526652
O16   O     O_R   0.172470 0.357130 0.674360 -0.524724
C5    C     C_R   0.701743 0.489835 0.375735 0.747174
C6    C     C_R   0.298801 0.510929 0.625053 0.741623
C7    C     C_R   0.798086 0.986724 0.123895 0.745485
C8    C     C_R   0.201403 0.013698 0.875452 0.733311
O17   O     O_3   0.736530 0.478650 0.191680 -0.381830
O18   O     O_3   0.263470 0.521350 0.808320 -0.382713
O19   O     O_3   0.763470 0.978650 0.308320 -0.388022
O20   O     O_3   0.236530 0.021350 0.691680 -0.381812
V1    V     V_3+5 0.752500 0.206170 0.260820 1.415508
V2    V     V_3+5 0.247500 0.793830 0.739180 1.422360
V3    V     V_3+5 0.747500 0.706170 0.239180 1.418180
V4    V     V_3+5 0.252500 0.293830 0.760820 1.430918
C9    C     C_R   0.825139 0.000303 0.049246 -0.165227
C10   C     C_R   0.170684 0.008536 0.946125 -0.132074
C11   C     C_R   0.672064 0.516404 0.446893 -0.162068
C12   C     C_R   0.328850 0.496004 0.554053 -0.132590
C13   C     C_R   0.823674 0.157163 0.910119 -0.152370
C14   C     C_R   0.174149 0.937021 0.101470 -0.138464
C15   C     C_R   0.663148 0.730145 0.563484 -0.178287
C16   C     C_R   0.326590 0.390509 0.403342 -0.135319
C17   C     C_R   0.793789 0.101107 0.970956 -0.247925
C18   C     C_R   0.203124 0.949905 0.034766 -0.252635
C19   C     C_R   0.698423 0.641241 0.517305 -0.248551
C20   C     C_R   0.297142 0.421925 0.468540 -0.248244
C21   C     C_R   0.886386 0.948822 0.064209 0.426640
C22   C     C_R   0.108216 0.054257 0.922888 0.415895
C23   C     C_R   0.610747 0.468036 0.428504 0.412999
C24   C     C_R   0.390979 0.536598 0.575510 0.432388
C25   C     C_R   0.920383 0.037466 0.013728 -0.019114
C26   C     C_R   0.078069 0.050869 0.992069 -0.011006
C27   C     C_R   0.572794 0.567693 0.470475 -0.002688
C28   C     C_R   0.419603 0.530687 0.504921 -0.009638
C29   C     C_R   0.886891 0.131823 0.932453 0.012086
C30   C     C_R   0.112265 0.984301 0.080908 0.035208
C31   C     C_R   0.600668 0.697499 0.538944 0.014833
C32   C     C_R   0.387086 0.443564 0.420575 0.023212
C33   C     C_R   0.985672 0.037737 0.040638 -0.073128
C34   C     C_R   0.014850 0.096918 0.975756 -0.105910
C35   C     C_R   0.508635 0.543109 0.448566 -0.097610
C36   C     C_R   0.479214 0.599754 0.514652 -0.099115
C37   C     C_R   0.980553 0.211930 0.902426 0.487087
C38   C     C_R   0.022924 0.004867 0.133092 0.480253
C39   C     C_R   0.508329 0.737257 0.580341 0.493037
C40   C     C_R   0.471893 0.480110 0.360915 0.497772
C41   C     C_R   0.916773 0.214336 0.877729 -0.318661
C42   C     C_R   0.085200 0.967759 0.150174 -0.316351
C43   C     C_R   0.565750 0.798078 0.581349 -0.313903
C44   C     C_R   0.413657 0.416453 0.351389 -0.297321
H1    H     H_    0.250935 0.912310 0.052032 0.122489
H2    H     H_    0.746407 0.140032 0.958193 0.131092
H3    H     H_    0.249989 0.383416 0.453371 0.125669
H4    H     H_    0.745449 0.680406 0.531502 0.136144
H5    H     H_    0.798165 0.233804 0.849321 0.124888
H6    H     H_    0.200307 0.888839 0.169668 0.125200
H7    H     H_    0.684254 0.830509 0.615861 0.127817
H8    H     H_    0.301473 0.327917 0.338179 0.124702
C45   C     C_1   0.415768 0.002811 0.921859 -0.202218
C46   C     C_1   0.582588 0.994974 0.083757 -0.176800
C47   C     C_1   0.083359 0.509285 0.580889 -0.203903
C48   C     C_1   0.916896 0.490957 0.418323 -0.189634
C49   C     C_1   0.467756 0.998172 0.974676 -0.026260
C50   C     C_1   0.529594 0.997125 0.034580 -0.029774
C51   C     C_1   0.031023 0.503904 0.529431 -0.030427
C52   C     C_1   0.969335 0.496909 0.469390 -0.016596
H9    H     H_    0.890100 0.291156 0.818111 0.141259
H10   H     H_    0.112908 0.923109 0.218108 0.125392
H11   H     H_    0.585480 0.917785 0.620690 0.115533
H12   H     H_    0.387591 0.354067 0.286669 0.124114
O21   O     O_3   0.078078 0.095563 0.831448 -0.533876
C53   C     C_3   0.053904 0.934737 0.783426 0.092998
H13   H     H_    0.011985 0.899701 0.799427 0.119236
H14   H     H_    0.086521 0.816353 0.802100 0.066254
C54   C     C_3   0.038719 0.965713 0.679499 -0.275701
H15   H     H_    0.080572 0.005626 0.663823 0.196410
H16   H     H_    0.022523 0.836150 0.642360 0.146717
C55   C     C_3   0.989524 0.113236 0.644273 -0.667251
H17   H     H_    0.948160 0.079931 0.662870 0.208820
H18   H     H_    0.977023 0.122216 0.567927 0.198408
H19   H     H_    0.006742 0.247860 0.674194 0.262476
O22   O     O_3   0.911841 0.810676 0.126356 -0.534026
C56   C     C_3   0.899489 0.641105 0.079893 0.119527
H20   H     H_    0.851367 0.604059 0.069490 0.099931
H21   H     H_    0.906853 0.643493 0.010950 0.082270
C57   C     C_3   0.940784 0.492616 0.138520 -0.271690
H22   H     H_    0.936221 0.492877 0.208991 0.185794
H23   H     H_    0.925976 0.357873 0.106720 0.161069
C58   C     C_3   0.007379 0.519070 0.145156 -0.697492
H24   H     H_    0.012347 0.535396 0.075530 0.207434
H25   H     H_    0.034961 0.398556 0.178207 0.192178
H26   H     H_    0.025507 0.640530 0.188063 0.252945
O23   O     O_3   0.423168 0.564612 0.667372 -0.556292
C59   C     C_3   0.450986 0.398544 0.707299 0.062813
H27   H     H_    0.491992 0.371022 0.685515 0.117936
H28   H     H_    0.420103 0.279738 0.685619 0.103311
C60   C     C_3   0.468380 0.416587 0.812769 -0.279492
H29   H     H_    0.474160 0.562425 0.833118 0.222843
H30   H     H_    0.430677 0.366565 0.836281 0.183478
C61   C     C_3   0.527063 0.311879 0.862865 -0.861001
H31   H     H_    0.564520 0.344637 0.834936 0.224986
H32   H     H_    0.519070 0.163732 0.855789 0.234609
H33   H     H_    0.541986 0.347750 0.937311 0.244864
O24   O     O_3   0.588905 0.325437 0.368610 -0.537768
C62   C     C_3   0.600420 0.160210 0.418825 0.108253
H34   H     H_    0.644780 0.158377 0.475806 0.062032
H35   H     H_    0.563291 0.135912 0.449185 0.119754
C63   C     C_3   0.603387 0.005111 0.353228 -0.259006
H36   H     H_    0.639404 0.033048 0.321595 0.206429
H37   H     H_    0.615853 0.875959 0.391729 0.168875
C64   C     C_3   0.542905 0.980851 0.278024 -0.703508
H38   H     H_    0.507208 0.942450 0.308827 0.210243
H39   H     H_    0.549026 0.870435 0.231499 0.202794
H40   H     H_    0.528579 0.107905 0.237088 0.265789
O25   O     O_3   0.010172 0.331741 0.860935 -0.538692
C65   C     C_3   0.985855 0.512518 0.854537 0.103572
H41   H     H_    0.024684 0.607243 0.876512 0.108378
H42   H     H_    0.959306 0.540784 0.903074 0.101204
C66   C     C_3   0.948379 0.556702 0.754070 -0.324433
H43   H     H_    0.978912 0.609123 0.716916 0.175861
H44   H     H_    0.927584 0.431379 0.716887 0.202792
C67   C     C_3   0.897400 0.696461 0.748837 -0.849150
H45   H     H_    0.862797 0.635995 0.776118 0.229218
H46   H     H_    0.874944 0.736501 0.675800 0.231755
H47   H     H_    0.915361 0.820641 0.789729 0.232397
O26   O     O_3   0.996793 0.009269 0.204195 -0.548216
C68   C     C_3   0.033529 0.085463 0.288558 0.081698
H48   H     H_    0.005285 0.190248 0.310251 0.142805
H49   H     H_    0.074263 0.158522 0.284017 0.090805
C69   C     C_3   0.051731 0.936808 0.362763 -0.297469
H50   H     H_    0.010017 0.872606 0.369057 0.218080
H51   H     H_    0.079530 0.828820 0.342532 0.179272
C70   C     C_3   0.088125 0.015150 0.456432 -0.818618
H52   H     H_    0.130435 0.078598 0.452241 0.226415
H53   H     H_    0.100812 0.903824 0.508330 0.235699
H54   H     H_    0.060413 0.119308 0.479498 0.235255
O27   O     O_3   0.476988 0.826154 0.633322 -0.549761
C71   C     C_3   0.514063 0.893073 0.720788 0.131188
H55   H     H_    0.482722 0.917060 0.762132 0.159596
H56   H     H_    0.532414 0.028655 0.712331 0.082669
C72   C     C_3   0.566315 0.762216 0.776230 -0.366631
H57   H     H_    0.552916 0.618991 0.760905 0.222977
H58   H     H_    0.608189 0.781475 0.757027 0.179808
C73   C     C_3   0.584556 0.794403 0.880000 -0.821829
H59   H     H_    0.600421 0.936444 0.896765 0.229254
H60   H     H_    0.622318 0.698817 0.915725 0.232697
H61   H     H_    0.545691 0.768730 0.905562 0.242407
O28   O     O_3   0.491825 0.493982 0.283914 -0.532985
C74   C     C_3   0.447750 0.581078 0.208068 0.110631
H62   H     H_    0.466887 0.707283 0.190551 0.131477
H63   H     H_    0.405227 0.628892 0.221438 0.053623
C75   C     C_3   0.431362 0.456322 0.123317 -0.317961
H64   H     H_    0.421058 0.317324 0.142525 0.188371
H65   H     H_    0.389915 0.512262 0.070863 0.150359
C76   C     C_3   0.482744 0.444482 0.080472 -0.692994
H66   H     H_    0.494305 0.582644 0.062092 0.211889
H67   H     H_    0.467437 0.362568 0.016305 0.215353
H68   H     H_    0.523940 0.378683 0.128967 0.257082

loop_
_geom_bond_atom_site_label_1
_geom_bond_atom_site_label_2
_ccdc_geom_bond_type
O17   V3    S    
O1    C5    A    
C54   H15   S    
O19   V1    S    
C9    C21   A    
O3    C7    A    
O23   C59   S    
C10   C18   A    
C67   H47   S    
C48   C52   T    
O15   V3    S    
C65   C66   S    
C57   H23   S    
C49   C50   S    
C53   H13   S    
C37   O25   S    
C62   H34   S    
C74   H63   S    
C22   O21   S    
C76   H66   S    
O7    C3    A    
C66   H44   S    
C35   C40   A    
C19   H4    S    
C36   C39   A    
C40   C44   A    
O9    V1    S    
C71   H55   S    
C69   H51   S    
C14   C18   A    
C24   C28   A    
C14   H6    S    
O4    C8    A    
C62   H35   S    
C75   H64   S    
C60   H29   S    
C55   H19   S    
O1    V3    S    
O13   V1    S    
C59   C60   S    
C20   H3    S    
O2    V4    S    
C70   H54   S    
O3    V1    S    
C61   H31   S    
C57   H22   S    
C40   O28   S    
C28   C36   A    
C1    O15   A    
C15   C31   A    
C51   C52   S    
C2    O16   A    
C16   C32   A    
C55   H18   S    
O2    C6    A    
C70   H52   S    
C72   H58   S    
C10   C22   A    
C15   H7    S    
C11   C19   A    
C73   H60   S    
C64   H40   S    
C13   C29   A    
C34   C37   A    
O11   C7    A    
C11   C23   A    
C35   C36   A    
O12   C8    A    
C55   H17   S    
C58   H25   S    
O10   V2    S    
C59   H28   S    
C59   H27   S    
C68   H49   S    
C68   H48   S    
C74   C75   S    
O5    V1    S    
C76   H67   S    
C66   C67   S    
C39   C43   A    
O7    V3    S    
C38   C42   A    
O8    V4    S    
C56   H20   S    
C33   C38   A    
C69   C70   S    
C69   H50   S    
C74   H62   S    
O18   V4    S    
C62   C63   S    
C15   C19   A    
C63   C64   S    
C7    C9    S    
C32   C44   A    
C18   H1    S    
C8    C10   S    
C16   H8    S    
C1    C48   S    
C26   C34   A    
O5    C1    A    
C3    C46   S    
C23   C27   A    
C73   H61   S    
C46   C50   T    
C53   H14   S    
C72   H57   S    
C14   C30   A    
C45   C49   T    
O8    C4    A    
C60   C61   S    
C4    C45   S    
C21   C25   A    
C72   C73   S    
O9    C5    A    
C26   C30   A    
C67   H45   S    
O11   V3    S    
C65   H41   S    
C5    C11   S    
O6    V2    S    
C54   C55   S    
C56   C57   S    
O25   C65   S    
C44   H12   S    
C58   H26   S    
C12   C20   A    
C27   C35   A    
C58   H24   S    
C68   C69   S    
C29   C41   A    
C53   C54   S    
C64   H38   S    
O16   V4    S    
C76   H68   S    
C60   H30   S    
C3    O13   A    
C63   H37   S    
C43   H11   S    
C71   C72   S    
C38   O26   S    
O26   C68   S    
C23   O24   S    
C21   O22   S    
C42   H10   S    
C25   C33   A    
C31   C43   A    
C2    C47   S    
C41   H9    S    
C73   H59   S    
C30   C42   A    
O12   V4    S    
C6    C12   S    
C66   H43   S    
C22   C26   A    
C13   H5    S    
C56   H21   S    
C9    C17   A    
O10   C6    A    
C71   H56   S    
O24   C62   S    
C39   O27   S    
C47   C51   T    
C33   C34   A    
O28   C74   S    
C75   H65   S    
C63   H36   S    
C25   C29   A    
O20   V2    S    
O22   C56   S    
C65   H42   S    
C12   C24   A    
C27   C31   A    
C70   H53   S    
C13   C17   A    
C61   H32   S    
O6    C2    A    
O14   V2    S    
C37   C41   A    
C16   C20   A    
C24   O23   S    
C54   H16   S    
C4    O14   A    
O27   C71   S    
C67   H46   S    
O21   C53   S    
C61   H33   S    
C57   C58   S    
O4    V2    S    
C28   C32   A    
C17   H2    S    
C64   H39   S    
C75   C76   S    
