data_mof_unit_2665.cif
_audit_creation_date              2012-12-10T19:50:11-0500
_audit_creation_method            fapswitch 2.2
_symmetry_space_group_name_H-M    P1
_symmetry_Int_Tables_number       1
_space_group_crystal_system       triclinic
_cell_length_a                    14.175033
_cell_length_b                    14.775709
_cell_length_c                    15.62799
_cell_angle_alpha                 89.935756
_cell_angle_beta                  67.903836
_cell_angle_gamma                 89.412958
_cell_volume                      3032.64445762

loop_
_atom_site_label
_atom_site_type_symbol
_atom_type_description
_atom_site_fract_x
_atom_site_fract_y
_atom_site_fract_z
_atom_type_partial_charge
C1    C     C_R   0.499999 0.672994 0.498491 0.936395
C2    C     C_R   0.591826 0.177756 0.481292 0.466903
C3    C     C_R   0.505847 0.768743 0.479164 -0.161244
C4    C     C_R   0.512419 0.230681 0.473270 -0.173222
C5    C     C_R   0.595832 0.801933 0.412551 -0.317387
C6    C     C_R   0.447036 0.193556 0.434051 -0.322076
C7    C     C_R   0.603000 0.892456 0.385869 0.004224
C8    C     C_R   0.455161 0.102807 0.408084 0.001108
C9    C     C_R   0.518921 0.950186 0.430981 0.042050
C10   C     C_R   0.527524 0.048147 0.426388 0.050884
C11   C     C_R   0.861813 0.514927 0.580780 -0.266283
C12   C     C_R   0.502254 0.326757 0.495937 0.916427
C13   C     C_R   0.132873 0.448195 0.435273 -0.247207
C14   C     C_R   0.763229 0.515219 0.579688 0.032794
C15   C     C_R   0.231337 0.448870 0.436985 0.074577
C16   C     C_R   0.436480 0.500741 0.675763 0.889808
C17   C     C_R   0.563354 0.498952 0.324395 0.861982
C18   C     C_R   0.828771 0.486371 0.419317 0.001602
C19   C     C_R   0.177974 0.550855 0.562826 -0.014006
C20   C     C_R   0.929015 0.486764 0.417093 -0.274838
C21   C     C_R   0.078758 0.553029 0.562940 -0.280419
C22   C     C_R   0.947379 0.500853 0.498747 0.127244
C23   C     C_R   0.374232 0.508258 0.103917 0.463682
C24   C     C_R   0.054090 0.500937 0.498728 0.122694
C25   C     C_R   0.396939 0.499451 0.776382 -0.089293
C26   C     C_R   0.601939 0.498157 0.224079 -0.087487
C27   C     C_R   0.262686 0.481996 0.926310 -0.171401
C28   C     C_R   0.733942 0.515302 0.073301 -0.166098
C29   C     C_R   0.294228 0.484585 0.830267 -0.186950
C30   C     C_R   0.703725 0.515156 0.169172 -0.190712
C31   C     C_R   0.466553 0.510194 0.818679 -0.188523
C32   C     C_R   0.531724 0.482952 0.183200 -0.187127
C33   C     C_R   0.439570 0.494740 0.912556 0.083535
C34   C     C_R   0.620185 0.478678 0.899257 0.465314
C35   C     C_R   0.556537 0.496994 0.089539 0.082934
C36   C     C_R   0.334848 0.488351 0.967803 0.093828
C37   C     C_R   0.660991 0.504994 0.033189 0.093798
C38   C     C_R   0.513914 0.491051 0.952839 -0.122008
C39   C     C_R   0.481058 0.498162 0.050241 -0.119341
C40   C     C_3   0.338405 0.629025 0.201128 0.103371
C41   C     C_3   0.297446 0.657948 0.302090 -0.805974
C42   C     C_3   0.642518 0.351251 0.812742 0.063826
C43   C     C_3   0.685471 0.313845 0.714983 -0.763414
C44   C     C_3   0.250872 0.794847 0.554958 0.113331
C45   C     C_R   0.303341 0.494849 0.063112 -0.310810
C46   C     C_3   0.150506 0.791846 0.637701 -0.829729
C47   C     C_3   0.756627 0.218551 0.445322 0.129263
C48   C     C_3   0.833140 0.252073 0.484551 -0.821352
C49   C     C_2   0.698200 0.924181 0.311744 0.904948
C50   C     C_2   0.386392 0.066980 0.364043 0.902479
C51   C     C_R   0.691756 0.495150 0.938323 -0.306496
C52   C     C_R   0.428944 0.916245 0.496619 -0.252881
C53   C     C_R   0.595602 0.085881 0.461491 -0.252299
C54   C     C_R   0.419861 0.824778 0.518130 0.469741
H1    H     H_    0.222825 0.497007 0.105916 0.162949
H2    H     H_    0.022403 0.596138 0.612565 0.140128
H3    H     H_    0.458199 0.456887 0.225363 0.210698
H4    H     H_    0.541725 0.533601 0.777633 0.198666
H5    H     H_    0.759566 0.526055 0.199941 0.151284
H6    H     H_    0.238672 0.477011 0.798600 0.155940
H7    H     H_    0.182378 0.475287 0.967991 0.134795
H8    H     H_    0.813803 0.523265 0.030669 0.135078
H9    H     H_    0.366544 0.961769 0.534039 0.150078
H10   H     H_    0.649163 0.042969 0.477637 0.149103
H11   H     H_    0.659391 0.756083 0.379474 0.212779
H12   H     H_    0.772100 0.492070 0.895049 0.162851
H13   H     H_    0.390401 0.236019 0.422164 0.215741
H14   H     H_    0.289613 0.660699 0.167412 0.147594
H15   H     H_    0.417608 0.654534 0.167871 0.154849
H16   H     H_    0.345862 0.629218 0.337290 0.273979
H17   H     H_    0.297778 0.732900 0.307031 0.210517
H18   H     H_    0.218203 0.633926 0.337403 0.257773
H19   H     H_    0.560224 0.334078 0.843780 0.159070
H20   H     H_    0.683371 0.317713 0.852953 0.152277
H21   H     H_    0.768066 0.328568 0.682930 0.246485
H22   H     H_    0.674883 0.239437 0.716154 0.227409
H23   H     H_    0.870214 0.524596 0.646143 0.155194
H24   H     H_    0.645646 0.345325 0.673154 0.284828
H25   H     H_    0.256430 0.734926 0.510313 0.163810
H26   H     H_    0.249076 0.856875 0.514908 0.139543
H27   H     H_    0.139935 0.855144 0.678670 0.259752
H28   H     H_    0.086396 0.785309 0.613736 0.208679
H29   H     H_    0.149831 0.733515 0.682692 0.252601
H30   H     H_    0.754840 0.266945 0.391198 0.146175
H31   H     H_    0.783993 0.151248 0.412947 0.142738
H32   H     H_    0.838035 0.204136 0.537542 0.255733
H33   H     H_    0.909433 0.257652 0.428461 0.209600
H34   H     H_    0.118655 0.405412 0.385378 0.143250
H35   H     H_    0.809423 0.319581 0.516548 0.268497
H36   H     H_    0.846952 0.900424 0.236199 0.345862
H37   H     H_    0.258435 0.084753 0.337811 0.344721
H38   H     H_    0.699453 0.527509 0.643362 0.173047
H39   H     H_    0.290990 0.408038 0.387884 0.138286
H40   H     H_    0.816153 0.475124 0.356117 0.123644
H41   H     H_    0.195793 0.590004 0.612984 0.140611
H42   H     H_    0.991437 0.477164 0.351454 0.140283
N1    N     N_R   0.747530 0.500020 0.500000 -0.097376
N2    N     N_R   0.252470 0.499980 0.500000 -0.103730
O1    O     O_R   0.420530 0.630930 0.499990 -0.605987
O2    O     O_3   0.656528 0.445870 0.809805 -0.650173
O3    O     O_3   0.332296 0.792826 0.586519 -0.611405
O4    O     O_3   0.659376 0.213300 0.516999 -0.608839
O5    O     O_2   0.698561 0.994499 0.270263 -0.623002
O6    O     O_R   0.787553 0.872259 0.287800 -0.817060
O7    O     O_2   0.407018 0.996035 0.320325 -0.624348
O8    O     O_R   0.298620 0.115620 0.370929 -0.823852
O9    O     O_R   0.579470 0.369070 0.500010 -0.576362
O10   O     O_R   0.579480 0.630940 0.499990 -0.614894
O11   O     O_R   0.420520 0.369060 0.500010 -0.627105
O12   O     O_R   0.375120 0.499990 0.632240 -0.612213
O13   O     O_R   0.624880 0.500010 0.367760 -0.632390
O14   O     O_R   0.534080 0.500000 0.632240 -0.633815
O15   O     O_R   0.465920 0.500000 0.367760 -0.630971
O16   O     O_3   0.336305 0.533706 0.195887 -0.637719
Zn1   Zn    Zn3+2 0.393860 0.499990 0.500000 0.943559
Zn2   Zn    Zn3+2 0.606140 0.500010 0.500000 0.950620

loop_
_geom_bond_atom_site_label_1
_geom_bond_atom_site_label_2
_ccdc_geom_bond_type
C25   C31   A    
C26   C32   A    
C23   C45   A    
C27   C29   A    
C54   O3    S    
C2    C4    A    
C1    O1    A    
C49   O6    S    
C17   O15   A    
C43   H24   S    
C34   C51   A    
C17   C26   S    
C47   H31   S    
C31   H4    S    
C35   C37   A    
O1    Zn1   S    
C38   C39   A    
C37   C51   A    
C11   C14   A    
C2    O4    S    
C16   C25   S    
C33   C36   A    
C10   C53   A    
C27   H7    S    
C46   H28   S    
C40   O16   S    
C44   C46   S    
C50   O7    D    
C34   O2    S    
C31   C33   A    
O13   Zn2   S    
C18   N1    A    
C4    C12   S    
C11   H23   S    
C9    C10   S    
C18   C20   A    
C41   H17   S    
C20   H42   S    
C47   O4    S    
C25   C29   A    
H37   O8    S    
C9    C52   A    
C32   H3    S    
C17   O13   A    
C12   O11   A    
C19   N2    A    
C52   C54   A    
C43   H21   S    
C42   H20   S    
C40   H15   S    
C16   O12   A    
C32   C35   A    
C44   H26   S    
C7    C49   S    
C5    H11   S    
C5    C7    A    
C6    C8    A    
C53   H10   S    
C2    C53   A    
C13   C24   A    
C1    C3    S    
C51   H12   S    
C35   C39   A    
C15   H39   S    
C42   O2    S    
C21   H2    S    
C46   H27   S    
C47   C48   S    
C29   H6    S    
C14   H38   S    
C30   H5    S    
C48   H33   S    
C36   C45   A    
C47   H30   S    
N1    Zn2   S    
H36   O6    S    
C41   H18   S    
C4    C6    A    
C6    H13   S    
C20   C22   A    
C26   C30   A    
C48   H35   S    
C13   C15   A    
C18   H40   S    
C48   H32   S    
C42   C43   S    
C15   N2    A    
C8    C50   S    
O14   Zn2   S    
C19   H41   S    
C16   O14   A    
C14   N1    A    
C43   H22   S    
C7    C9    A    
C40   C41   S    
C42   H19   S    
C19   C21   A    
C34   C38   A    
C44   H25   S    
C3    C5    A    
C52   H9    S    
C49   O5    D    
C12   O9    A    
C44   O3    S    
C27   C36   A    
C11   C22   A    
C33   C38   A    
O10   Zn2   S    
C28   C30   A    
C23   O16   S    
N2    Zn1   S    
C28   C37   A    
C23   C39   A    
C13   H34   S    
C3    C54   A    
C22   C24   S    
O9    Zn2   S    
O11   Zn1   S    
C1    O10   A    
C46   H29   S    
C45   H1    S    
C8    C10   A    
C40   H14   S    
C21   C24   A    
C50   O8    S    
O12   Zn1   S    
C41   H16   S    
O15   Zn1   S    
C28   H8    S    
