data_mof_unit_2139.cif
_audit_creation_date              2012-10-26T18:29:59-0400
_audit_creation_method            fapswitch 2.2
_symmetry_space_group_name_H-M    P1
_symmetry_Int_Tables_number       1
_space_group_crystal_system       triclinic
_cell_length_a                    10.736142
_cell_length_b                    12.967219
_cell_length_c                    11.66662
_cell_angle_alpha                 99.869373
_cell_angle_beta                  93.77133
_cell_angle_gamma                 90.532703
_cell_volume                      1596.35119389

loop_
_atom_site_label
_atom_site_type_symbol
_atom_type_description
_atom_site_fract_x
_atom_site_fract_y
_atom_site_fract_z
_atom_type_partial_charge
C1    C     C_R   0.504264 0.299150 0.478304 0.539233
C2    C     C_R   0.481743 0.029888 0.548034 0.042537
C3    C     C_R   0.534344 0.969440 0.451684 0.027638
C4    C     C_R   0.259813 0.500297 0.500491 0.540135
C5    C     C_R   0.541067 0.861557 0.444464 -0.134835
C6    C     C_R   0.448206 0.874153 0.630495 -0.144802
C7    C     C_R   0.439268 0.981960 0.637452 -0.138658
C8    C     C_R   0.377892 0.405298 0.022072 -0.180977
C9    C     C_R   0.390024 0.413953 0.144228 0.036015
C10   C     C_R   0.553526 0.540202 0.156906 0.044721
C11   C     C_R   0.544660 0.534117 0.034113 0.006963
C12   C     C_3   0.878133 0.501676 0.500159 0.038952
C13   C     C_R   0.455467 0.465768 0.965898 0.007043
C14   C     C_R   0.446484 0.459790 0.843115 0.044230
C15   C     C_R   0.610237 0.585811 0.855766 0.041761
C16   C     C_R   0.501040 0.700805 0.521385 0.534926
C17   C     C_R   0.622368 0.594464 0.977926 -0.180369
C18   C     C_R   0.740279 0.500246 0.499877 0.539950
C19   C     C_3   0.080447 0.508864 0.627254 -0.225135
C20   C     C_3   0.937977 0.512763 0.627041 -0.229974
C21   C     C_3   0.067877 0.597298 0.445904 -0.080429
C22   C     C_3   0.066167 0.399776 0.428065 -0.251667
C23   C     C_3   0.923002 0.595539 0.446083 -0.207150
C24   C     C_3   0.122039 0.503367 0.501522 0.059483
C25   C     C_3   0.633706 0.179477 0.279131 -0.254899
C26   C     C_3   0.720639 0.112598 0.199339 -0.470145
C27   C     C_3   0.131560 0.707051 0.491323 -0.269472
C28   C     C_3   0.078476 0.775515 0.596765 -0.439656
C29   C     C_3   0.922509 0.398602 0.428135 -0.247182
C30   C     C_R   0.497804 0.813885 0.533272 -0.000170
C31   C     C_R   0.516406 0.185634 0.465275 -0.002992
C32   C     C_R   0.580177 0.017137 0.363973 -0.113655
C33   C     C_R   0.575080 0.126102 0.370182 0.000826
C34   C     C_R   0.472025 0.137112 0.553389 -0.145904
Cu1   Cu    Cu3+1 0.509350 0.507730 0.615930 0.913840
Cu2   Cu    Cu3+1 0.490650 0.492270 0.384070 0.902424
H1    H     H_    0.124070 0.577052 0.687370 0.131717
H2    H     H_    0.378285 0.407303 0.789772 0.108933
H3    H     H_    0.112571 0.438230 0.662341 0.112611
H4    H     H_    0.670679 0.632519 0.813365 0.120377
H5    H     H_    0.308335 0.351802 0.972089 0.078559
H6    H     H_    0.692037 0.647858 0.027900 0.077671
H7    H     H_    0.329778 0.367079 0.186620 0.120041
H8    H     H_    0.621652 0.592754 0.210265 0.108948
H9    H     H_    0.903887 0.448290 0.669631 0.130279
H10   H     H_    0.910609 0.587918 0.679818 0.115953
H11   H     H_    0.886024 0.668612 0.494357 0.119786
H12   H     H_    0.881354 0.388704 0.336720 0.123153
H13   H     H_    0.093515 0.391046 0.336548 0.117451
H14   H     H_    0.103446 0.331214 0.464105 0.109806
H15   H     H_    0.890572 0.330469 0.465859 0.111171
H16   H     H_    0.794720 0.078715 0.251757 0.148249
H17   H     H_    0.667012 0.049345 0.139532 0.143861
H18   H     H_    0.766262 0.162465 0.145100 0.137899
H19   H     H_    0.558244 0.207693 0.223169 0.169655
H20   H     H_    0.690482 0.248158 0.325085 0.158103
H21   H     H_    0.993860 0.815974 0.569203 0.137183
H22   H     H_    0.055169 0.730542 0.664874 0.145861
H23   H     H_    0.089200 0.579721 0.352351 0.122431
H24   H     H_    0.148572 0.837203 0.636004 0.136471
H25   H     H_    0.232710 0.698273 0.511845 0.162893
H26   H     H_    0.125490 0.752854 0.418863 0.134279
H27   H     H_    0.882227 0.588599 0.354741 0.102547
H28   H     H_    0.580682 0.814595 0.370040 0.106143
H29   H     H_    0.413655 0.837606 0.699338 0.123367
H30   H     H_    0.620628 0.968269 0.291808 0.106807
H31   H     H_    0.398949 0.027617 0.712134 0.099113
H32   H     H_    0.429110 0.183130 0.626482 0.112036
N1    N     N_R   0.523430 0.519360 0.790130 -0.227327
N2    N     N_R   0.476570 0.480640 0.209880 -0.228486
O1    O     O_R   0.506640 0.354460 0.582000 -0.503440
O2    O     O_R   0.490840 0.341410 0.386200 -0.515009
O3    O     O_R   0.325590 0.506510 0.597900 -0.512313
O4    O     O_R   0.309790 0.493450 0.402100 -0.511820
O5    O     O_R   0.509160 0.658590 0.613800 -0.505388
O6    O     O_R   0.493360 0.645540 0.418000 -0.506642
O7    O     O_R   0.690210 0.506550 0.597900 -0.509617
O8    O     O_R   0.674410 0.493490 0.402100 -0.515919

loop_
_geom_bond_atom_site_label_1
_geom_bond_atom_site_label_2
_ccdc_geom_bond_type
C8    C13   A    
C22   C29   S    
C12   C29   S    
C16   O5    A    
C19   C20   S    
C25   H20   S    
C28   H21   S    
Cu2   O4    S    
C12   C23   S    
Cu1   O5    S    
C1    O1    A    
C21   H23   S    
C4    C24   S    
C16   C30   S    
C1    C31   S    
C17   H6    S    
C19   H1    S    
C6    H29   S    
Cu1   O3    S    
C2    C7    A    
C8    C9    A    
C31   C33   A    
Cu2   O6    S    
C4    O4    A    
C20   H9    S    
C22   H14   S    
C2    C34   A    
C23   H27   S    
C21   C27   S    
Cu1   O1    S    
C13   C14   A    
C26   H18   S    
Cu2   N2    S    
C28   H24   S    
C15   N1    A    
C9    H7    S    
C1    O2    A    
C23   H11   S    
C29   H12   S    
C10   H8    S    
C9    N2    A    
C34   H32   S    
C25   C26   S    
Cu1   O7    S    
C5    H28   S    
Cu1   Cu2   S    
C27   H25   S    
C27   H26   S    
C26   H16   S    
C14   H2    S    
C18   O8    A    
C12   C20   S    
C31   C34   A    
C8    H5    S    
C4    O3    A    
C19   H3    S    
C22   H13   S    
C10   N2    A    
C6    C30   A    
C21   C23   S    
C14   N1    A    
C22   C24   S    
C26   H17   S    
C32   H30   S    
C5    C30   A    
C29   H15   S    
C15   C17   A    
C11   C17   A    
C16   O6    A    
C25   H19   S    
C3    C5    A    
C6    C7    A    
C28   H22   S    
C32   C33   A    
C19   C24   S    
Cu2   O8    S    
C11   C13   A    
C18   O7    A    
C2    C3    A    
C3    C32   A    
C15   H4    S    
C10   C11   A    
C7    H31   S    
Cu1   N1    S    
C21   C24   S    
C12   C18   S    
C27   C28   S    
C20   H10   S    
Cu2   O2    S    
C25   C33   S    
