data_mof_unit_4628.cif
_audit_creation_date              2012-12-10T18:06:40-0500
_audit_creation_method            fapswitch 2.2
_symmetry_space_group_name_H-M    P1
_symmetry_Int_Tables_number       1
_space_group_crystal_system       triclinic
_cell_length_a                    12.605645
_cell_length_b                    13.153394
_cell_length_c                    15.461752
_cell_angle_alpha                 83.279825
_cell_angle_beta                  99.217895
_cell_angle_gamma                 96.683094
_cell_volume                      2500.67922563

loop_
_atom_site_label
_atom_site_type_symbol
_atom_type_description
_atom_site_fract_x
_atom_site_fract_y
_atom_site_fract_z
_atom_type_partial_charge
C1    C     C_R   0.442344 0.308729 0.507243 0.882120
C2    C     C_R   0.447109 0.557121 0.094135 0.094473
C3    C     C_R   0.335989 0.556355 0.059104 0.171236
C4    C     C_R   0.525163 0.562683 0.037250 0.070003
C5    C     C_R   0.489604 0.545009 0.948663 0.109224
C6    C     C_R   0.380198 0.553303 0.913598 -0.125860
C7    C     C_R   0.304273 0.560016 0.968233 -0.237420
C8    C     C_R   0.636928 0.585859 0.065407 -0.225416
C9    C     C_R   0.711253 0.586222 0.008005 -0.197433
C10   C     C_R   0.676972 0.555751 0.923843 0.127382
C11   C     C_R   0.565918 0.526274 0.896393 -0.035861
C12   C     C_R   0.435509 0.514579 0.335954 0.846239
C13   C     C_R   0.751962 0.554734 0.866422 -0.194217
C14   C     C_R   0.716482 0.528358 0.781379 -0.258346
C15   C     C_R   0.536105 0.478118 0.818203 0.362109
C16   C     C_R   0.641610 0.942585 0.369056 -0.198627
C17   C     C_R   0.582340 0.800859 0.469598 -0.044407
C18   C     C_R   0.334492 0.159405 0.571674 -0.130751
C19   C     C_R   0.315211 0.053930 0.591245 -0.139932
C20   C     C_R   0.372557 0.988042 0.556867 -0.189742
C21   C     C_R   0.447189 0.027243 0.498544 0.093577
C22   C     C_R   0.453714 0.132730 0.468684 0.085222
C23   C     C_R   0.555933 0.691479 0.489115 0.843576
C24   C     C_R   0.515596 0.965435 0.468807 0.085266
C25   C     C_R   0.576384 0.005291 0.400338 0.176518
C26   C     C_R   0.569349 0.106281 0.362989 -0.244639
C27   C     C_R   0.508438 0.169317 0.396552 -0.203507
C28   C     C_R   0.526321 0.865169 0.506349 -0.251421
C29   C     C_R   0.643080 0.839672 0.402614 -0.192164
C30   C     C_R   0.406257 0.199294 0.512657 -0.129484
C31   C     C_R   0.139377 0.640395 0.623497 -0.305887
C32   C     C_R   0.756947 0.380618 0.395551 0.028907
C33   C     C_R   0.851984 0.354881 0.373492 -0.246903
C34   C     C_R   0.564933 0.487093 0.663807 0.932751
C35   C     C_R   0.950018 0.399890 0.413457 -0.192516
C36   C     C_R   0.952729 0.471328 0.475795 0.017250
C37   C     C_R   0.853602 0.494579 0.495965 0.237317
C38   C     C_R   0.049102 0.520542 0.518566 -0.012736
C39   C     C_R   0.044662 0.591298 0.580640 0.198291
C40   C     C_R   0.945828 0.612519 0.599076 -0.287647
C41   C     C_R   0.851533 0.564858 0.556907 -0.213713
C42   C     C_R   0.150609 0.502706 0.502208 -0.038469
C43   C     C_R   0.237321 0.619217 0.604218 0.062939
C44   C     C_R   0.398990 0.531908 0.241398 -0.052300
C45   C     C_R   0.607911 0.492427 0.756504 -0.163539
C46   C     C_R   0.258364 0.549819 0.115705 -0.193277
C47   C     C_R   0.289775 0.537588 0.206713 -0.191826
C48   C     C_R   0.476476 0.543824 0.185190 -0.259192
H1    H     H_    0.220299 0.563722 0.939737 0.149487
H2    H     H_    0.836645 0.579606 0.885626 0.145109
H3    H     H_    0.686469 0.789581 0.373225 0.158566
H4    H     H_    0.612176 0.137060 0.308694 0.146277
H5    H     H_    0.687543 0.971911 0.316329 0.140404
H6    H     H_    0.487921 0.833238 0.562415 0.139739
H7    H     H_    0.354871 0.906952 0.575381 0.129252
H8    H     H_    0.258983 0.023251 0.636119 0.148443
H9    H     H_    0.503429 0.246727 0.364791 0.154709
H10   H     H_    0.312090 0.656012 0.636443 0.117867
H11   H     H_    0.941290 0.666354 0.646077 0.153171
H12   H     H_    0.162806 0.450873 0.456609 0.118963
H13   H     H_    0.680192 0.346632 0.364547 0.132741
H14   H     H_    0.021477 0.377277 0.394065 0.136741
H15   H     H_    0.777985 0.584561 0.573177 0.209663
H16   H     H_    0.773399 0.537718 0.734875 0.175733
H17   H     H_    0.795931 0.608315 0.030152 0.141364
H18   H     H_    0.173385 0.551008 0.089627 0.135729
H19   H     H_    0.228695 0.529970 0.249616 0.154984
H20   H     H_    0.559566 0.536862 0.213373 0.160858
H21   H     H_    0.353357 0.557256 0.843536 0.180965
H22   H     H_    0.668198 0.609812 0.129844 0.143992
N1    N     N_R   0.239390 0.551900 0.544730 -0.095309
N2    N     N_R   0.759950 0.448600 0.455730 -0.131468
O1    O     O_R   0.374950 0.371210 0.521360 -0.598270
O2    O     O_R   0.542050 0.338030 0.492790 -0.605923
O3    O     O_R   0.368720 0.526070 0.390200 -0.620286
O4    O     O_R   0.535820 0.492890 0.361630 -0.631709
O5    O     O_R   0.457950 0.661970 0.507210 -0.620008
O6    O     O_R   0.625050 0.628790 0.478640 -0.640773
O7    O     O_R   0.464180 0.507110 0.638370 -0.568826
O8    O     O_R   0.631280 0.473930 0.609800 -0.631386
Zn1   Zn    Zn3+2 0.388420 0.522150 0.519080 0.978774
Zn2   Zn    Zn3+2 0.611580 0.477850 0.480920 0.933397
H23   H     H_    0.295957 0.209822 0.604883 0.192548
S1    S     S_3+6 0.429465 0.375807 0.808673 0.008665
O9    O     O_2   0.329328 0.413161 0.753675 -0.326068
O10   O     O_2   0.464527 0.291469 0.765228 -0.307695
O11   O     O_3   0.401290 0.327736 0.909076 -0.548762
H24   H     H_    0.337836 0.276522 0.897768 0.381969
H25   H     H_    0.137581 0.694325 0.671028 0.138632
H26   H     H_    0.849719 0.300495 0.325647 0.150573

loop_
_geom_bond_atom_site_label_1
_geom_bond_atom_site_label_2
_ccdc_geom_bond_type
C19   H8    S    
C6    H21   S    
O11   H24   S    
C17   C29   A    
C35   C36   A    
S1    O11   S    
C4    C8    A    
C32   N2    A    
C26   C27   A    
C17   C23   S    
C31   C43   A    
C1    O2    A    
C36   C37   A    
S1    O10   D    
C32   H13   S    
C46   H18   S    
C3    C7    A    
C38   C39   A    
C18   C19   A    
C47   H19   S    
C16   H5    S    
C42   N1    A    
C43   H10   S    
C34   O8    A    
C11   C15   A    
S1    O9    D    
C19   C20   A    
C8    C9    A    
C31   H25   S    
C18   C30   A    
C9    C10   A    
C44   C47   A    
C40   H11   S    
C21   C22   A    
C37   N2    A    
O2    Zn2   S    
C20   H7    S    
O1    Zn1   S    
C14   C45   A    
C24   C25   A    
C7    H1    S    
O8    Zn2   S    
C27   H9    S    
O4    Zn2   S    
C39   C40   A    
O7    Zn1   S    
C28   H6    S    
O3    Zn1   S    
C2    C48   A    
C25   C26   A    
C48   H20   S    
C2    C4    A    
C26   H4    S    
C34   O7    A    
O6    Zn2   S    
O5    Zn1   S    
C14   H16   S    
C18   H23   S    
C34   C45   S    
C23   O5    A    
C6    C7    A    
C40   C41   A    
C22   C27   A    
C12   O4    A    
C12   O3    A    
C15   C45   A    
C42   H12   S    
C29   H3    S    
C16   C25   A    
C46   C47   A    
C43   N1    A    
C22   C30   A    
C17   C28   A    
C24   C28   A    
C4    C5    A    
C10   C13   A    
C5    C11   A    
C15   S1    S    
C3    C46   A    
C8    H22   S    
C1    O1    A    
C32   C33   A    
C36   C38   A    
C2    C3    A    
C16   C29   A    
C12   C44   S    
C33   H26   S    
C5    C6    A    
C1    C30   S    
C33   C35   A    
C31   C39   A    
C35   H14   S    
C23   O6    A    
C37   C41   A    
C9    H17   S    
C10   C11   A    
C13   H2    S    
C38   C42   A    
C20   C21   A    
C21   C24   A    
C41   H15   S    
C13   C14   A    
N2    Zn2   S    
C44   C48   A    
N1    Zn1   S    
