data_mof_unit_3165.cif
_audit_creation_date              2013-03-05T15:53:17-0500
_audit_creation_method            fapswitch 2.2
_symmetry_space_group_name_H-M    P1
_symmetry_Int_Tables_number       1
_space_group_crystal_system       triclinic
_cell_length_a                    11.537937
_cell_length_b                    10.738388
_cell_length_c                    9.900887
_cell_angle_alpha                 89.345654
_cell_angle_beta                  90.211658
_cell_angle_gamma                 91.933937
_cell_volume                      1225.92305495

loop_
_atom_site_label
_atom_site_type_symbol
_atom_site_description
_atom_site_fract_x
_atom_site_fract_y
_atom_site_fract_z
_atom_type_partial_charge
O1    O     O_R   0.500000 0.316780 0.614690 -0.667119
O2    O     O_R   0.499990 0.316750 0.385360 -0.585568
C1    C     C_R   0.509637 0.260250 0.501670 0.874048
O3    O     O_R   0.334450 0.500030 0.614670 -0.640279
O4    O     O_R   0.334440 0.500000 0.385330 -0.633718
C2    C     C_R   0.281971 0.499365 0.499804 0.871572
Zn1   Zn    Zn3+2 0.500010 0.500020 0.653130 0.973198
Zn2   Zn    Zn3+2 0.499990 0.499980 0.346870 0.941440
O5    O     O_R   0.500010 0.683250 0.614640 -0.586896
O6    O     O_R   0.500000 0.683220 0.385310 -0.622234
O7    O     O_R   0.665560 0.500000 0.614670 -0.559213
O8    O     O_R   0.665550 0.499970 0.385330 -0.633504
C3    C     C_R   0.490143 0.739170 0.499553 0.919177
C4    C     C_R   0.718012 0.500259 0.500185 0.905253
C5    C     C_1   0.161478 0.498612 0.499456 -0.179990
C6    C     C_1   0.059268 0.498273 0.499631 0.003076
C7    C     C_1   0.940607 0.498552 0.500149 0.017679
C8    C     C_1   0.838441 0.499284 0.500448 -0.147001
C9    C     C_R   0.518967 0.108831 0.760880 -0.123683
H1    H     H_    0.570707 0.192748 0.778522 0.169522
C10   C     C_R   0.473689 0.047148 0.874705 -0.126885
H2    H     H_    0.485091 0.087588 0.973726 0.170174
C11   C     C_R   0.411087 0.935347 0.860173 -0.103972
H3    H     H_    0.371315 0.889812 0.947290 0.136920
C12   C     C_R   0.404935 0.879037 0.734152 -0.090653
H4    H     H_    0.356649 0.791258 0.726602 0.142354
C13   C     C_R   0.460836 0.935584 0.620683 0.112605
C14   C     C_R   0.501456 0.059115 0.629728 0.034972
C15   C     C_R   0.521778 0.126581 0.506847 -0.246246
C16   C     C_R   0.535167 0.063124 0.384358 0.484111
H5    H     H_    0.529391 0.888115 0.288470 0.186998
C17   C     C_R   0.515578 0.936218 0.382445 -0.315322
C18   C     C_R   0.481187 0.872103 0.499526 -0.195447
H6    H     H_    0.632897 0.636951 0.125651 0.175135
C19   C     C_R   0.346002 0.337888 0.141341 -0.076533
H7    H     H_    0.341266 0.331467 0.248463 0.198875
C20   C     C_R   0.269680 0.258651 0.071635 -0.198133
H8    H     H_    0.210668 0.196221 0.126580 0.153548
C21   C     C_R   0.269452 0.259010 0.931870 -0.189370
H9    H     H_    0.210681 0.196435 0.877829 0.156720
C22   C     C_R   0.345837 0.338277 0.861005 -0.123787
H10   H     H_    0.342296 0.330970 0.753990 0.206859
C23   C     C_R   0.423849 0.420471 0.928234 0.069253
C24   C     C_R   0.423992 0.420325 0.072889 0.154923
N1    N     N_R   0.498930 0.498800 0.142780 -0.143131
C25   C     C_R   0.573084 0.575662 0.071514 -0.197747
C26   C     C_R   0.573919 0.575470 0.928343 0.348329
N2    N     N_R   0.498900 0.498720 0.857170 -0.184326
O9    O     O_3   0.560285 0.125251 0.263928 -0.633839
C27   C     C_3   0.677645 0.109764 0.228036 0.058470
H11   H     H_    0.681052 0.099338 0.116617 0.170354
H12   H     H_    0.716497 0.024621 0.272557 0.133124
C28   C     C_3   0.750581 0.225600 0.266913 -0.304470
H13   H     H_    0.713632 0.309063 0.217840 0.254530
H14   H     H_    0.748006 0.237297 0.378201 0.201159
C29   C     C_3   0.876531 0.215664 0.223047 -0.954522
H15   H     H_    0.916021 0.133986 0.272682 0.264246
H16   H     H_    0.926658 0.301187 0.252724 0.272211
H17   H     H_    0.881667 0.206021 0.111660 0.271052
N3    N     N_R   0.656377 0.654405 0.858918 0.228287
O10   O     O_R   0.760444 0.615063 0.840433 -0.390877
O11   O     O_R   0.639591 0.773419 0.851712 -0.405712

loop_
_geom_bond_atom_site_label_1
_geom_bond_atom_site_label_2
_geom_bond_distance
_ccdc_geom_bond_type
O4    Zn2   1.949079 S    
C27   H12   1.117218 S    
C23   C24   1.432192 A    
C3    C18   1.434699 S    
C20   H8    1.082847 S    
C19   C24   1.410571 A    
C12   C13   1.417810 A    
C23   N2    1.375807 A    
C4    C8    1.389888 S    
H5    C17   1.084235 S    
C29   H17   1.110850 S    
Zn2   O8    1.946427 S    
C17   C18   1.393543 A    
C10   C11   1.388674 A    
C7    C8    1.179088 T    
C26   N3    1.425902 S    
C21   C22   1.390638 A    
O1    Zn1   2.008430 S    
C28   H13   1.111488 S    
Zn1   N2    2.020151 S    
N3    O11   1.300176 A    
Zn1   O7    1.949077 S    
C9    C14   1.420780 A    
C22   C23   1.409830 A    
C15   C16   1.409379 A    
O3    Zn1   1.946429 S    
H6    C25   1.082307 S    
O3    C2    1.286422 A    
C14   C15   1.424971 A    
C19   C20   1.390718 A    
C16   O9    1.386410 S    
C29   H16   1.110544 S    
C27   H11   1.111057 S    
O2    C1    1.301641 A    
C28   H14   1.111037 S    
O4    C2    1.286755 A    
O7    C4    1.286840 A    
O2    Zn2   1.999882 S    
C2    C5    1.389977 S    
C27   C28   1.530189 S    
Zn2   N1    2.020846 S    
C11   H3    1.082493 S    
C5    C6    1.179185 T    
C16   C17   1.374173 A    
C26   N2    1.373186 A    
N1    C25   1.361846 A    
C21   H9    1.082768 S    
C11   C12   1.393256 A    
C29   H15   1.110796 S    
C20   C21   1.383754 A    
O9    C27   1.416905 S    
C22   H10   1.063867 S    
C28   C29   1.525773 S    
C13   C14   1.395633 A    
C1    C15   1.447206 S    
Zn1   O5    1.999882 S    
C25   C26   1.417618 A    
N3    O10   1.300517 A    
O5    C3    1.288393 A    
C9    C10   1.394869 A    
C12   H4    1.081820 S    
C10   H2    1.082584 S    
O6    C3    1.293980 A    
Zn2   O6    2.008430 S    
C13   C18   1.410788 A    
C24   N1    1.377054 A    
C9    H1    1.079558 S    
O8    C4    1.286245 A    
C6    C7    1.369242 S    
O1    C1    1.286087 A    
C19   H7    1.063544 S    
