data_mof_unit_1746.cif
_audit_creation_date              2012-12-11T16:27:35-0500
_audit_creation_method            fapswitch 2.2
_symmetry_space_group_name_H-M    P1
_symmetry_Int_Tables_number       1
_space_group_crystal_system       triclinic
_cell_length_a                    21.797259
_cell_length_b                    6.920324
_cell_length_c                    14.553403
_cell_angle_alpha                 89.999873
_cell_angle_beta                  104.468817
_cell_angle_gamma                 89.999953
_cell_volume                      2125.66841053

loop_
_atom_site_label
_atom_site_type_symbol
_atom_type_description
_atom_site_fract_x
_atom_site_fract_y
_atom_site_fract_z
_atom_type_partial_charge
O1    O     O_R   0.835850 0.638310 0.002120 -0.536898
O2    O     O_R   0.164150 0.361690 0.997880 -0.535673
O3    O     O_R   0.664150 0.138310 0.997880 -0.536898
O4    O     O_R   0.335850 0.861690 0.002120 -0.535673
O5    O     O_R   0.717530 0.306070 0.861970 -0.544360
O6    O     O_R   0.282470 0.693930 0.138030 -0.540824
O7    O     O_R   0.782470 0.806070 0.138030 -0.544360
O8    O     O_R   0.217530 0.193930 0.861970 -0.540824
C1    C     C_R   0.702332 0.476420 0.824267 0.695329
C2    C     C_R   0.298206 0.523353 0.175442 0.695633
C3    C     C_R   0.797668 0.976419 0.175733 0.695329
C4    C     C_R   0.201794 0.023353 0.824558 0.695633
O9    O     O_R   0.838690 0.308440 0.993250 -0.534576
O10   O     O_R   0.161310 0.691560 0.006750 -0.536726
O11   O     O_R   0.661310 0.808440 0.006750 -0.534576
O12   O     O_R   0.338690 0.191560 0.993250 -0.536726
O13   O     O_R   0.786170 0.140510 0.130090 -0.538513
O14   O     O_R   0.213830 0.859490 0.869910 -0.541668
O15   O     O_R   0.713830 0.640510 0.869910 -0.538513
O16   O     O_R   0.286170 0.359490 0.130090 -0.541668
C5    C     C_R   0.864293 0.478084 0.992067 0.713087
C6    C     C_R   0.135564 0.522193 0.007369 0.713142
C7    C     C_R   0.635707 0.978084 0.007933 0.713088
C8    C     C_R   0.364436 0.022193 0.992631 0.713142
O17   O     O_3   0.732630 0.472520 0.044740 -0.367858
O18   O     O_3   0.267370 0.527480 0.955260 -0.367532
O19   O     O_3   0.767370 0.972520 0.955260 -0.367858
O20   O     O_3   0.232630 0.027480 0.044740 -0.367532
V1    V     V_3+5 0.753220 0.196740 0.991700 1.438186
V2    V     V_3+5 0.246780 0.803260 0.008300 1.436756
V3    V     V_3+5 0.746780 0.696740 0.008300 1.438186
V4    V     V_3+5 0.253220 0.303260 0.991700 1.436756
H1    H     H_    0.591693 0.010776 0.336988 0.108619
H2    H     H_    0.409044 0.003659 0.663175 0.110184
H3    H     H_    0.908307 0.510776 0.663012 0.108619
H4    H     H_    0.090955 0.503655 0.336825 0.110184
C9    C     C_R   0.543979 0.959470 0.833583 -0.115235
C10   C     C_R   0.455598 0.989789 0.167300 -0.127574
C11   C     C_R   0.956020 0.459469 0.166417 -0.115235
C12   C     C_R   0.044402 0.489789 0.832700 -0.127575
C13   C     C_R   0.502874 0.961133 0.744391 -0.148519
C14   C     C_R   0.496866 0.986421 0.256425 -0.154158
C15   C     C_R   0.997126 0.461131 0.255609 -0.148521
C16   C     C_R   0.003134 0.486422 0.743575 -0.154158
C17   C     C_R   0.439381 0.996285 0.734519 -0.080183
C18   C     C_R   0.561049 0.004931 0.265820 -0.066006
C19   C     C_R   0.060619 0.496282 0.265481 -0.080182
C20   C     C_R   0.938951 0.504932 0.734180 -0.066006
C21   C     C_R   0.414896 0.022832 0.814134 0.179831
C22   C     C_R   0.585836 0.017465 0.185821 0.179948
C23   C     C_R   0.085103 0.522830 0.185866 0.179832
C24   C     C_R   0.914164 0.517465 0.814179 0.179948
C25   C     C_R   0.455643 0.008060 0.908512 0.082418
C26   C     C_R   0.544664 0.002904 0.091800 0.086699
C27   C     C_R   0.044357 0.508059 0.091488 0.082418
C28   C     C_R   0.955336 0.502904 0.908200 0.086699
C29   C     C_R   0.522201 0.985003 0.916882 0.058826
C30   C     C_R   0.477760 0.000975 0.083667 0.061336
C31   C     C_R   0.977799 0.485002 0.083118 0.058827
C32   C     C_R   0.022240 0.500976 0.916333 0.061336
C33   C     C_R   0.433402 0.012264 0.993638 -0.163223
C34   C     C_R   0.566758 0.989107 0.006838 -0.162247
C35   C     C_R   0.066598 0.512264 0.006362 -0.163223
C36   C     C_R   0.933242 0.489107 0.993162 -0.162247
H5    H     H_    0.593400 0.937343 0.835644 0.105724
H6    H     H_    0.405785 0.983345 0.165644 0.108582
H7    H     H_    0.906599 0.437343 0.164356 0.105724
H8    H     H_    0.094215 0.483345 0.834356 0.108583
H9    H     H_    0.520773 0.941172 0.681997 0.117602
H10   H     H_    0.478685 0.977132 0.319074 0.116242
H11   H     H_    0.979227 0.441170 0.318003 0.117602
H12   H     H_    0.021316 0.477132 0.680926 0.116241
C37   C     C_R   0.173055 0.012943 0.721400 -0.036328
C38   C     C_R   0.825356 0.982286 0.279415 -0.038015
C39   C     C_R   0.326945 0.512942 0.278599 -0.036327
C40   C     C_R   0.674644 0.482288 0.720585 -0.038016
C41   C     C_R   0.179414 0.919338 0.564615 -0.165859
C42   C     C_R   0.818994 0.904136 0.438279 -0.166523
C43   C     C_R   0.320587 0.419339 0.435386 -0.165860
C44   C     C_R   0.681007 0.404136 0.561721 -0.166523
C45   C     C_R   0.204092 0.915238 0.662288 -0.184584
C46   C     C_R   0.794651 0.890227 0.340713 -0.183729
C47   C     C_R   0.295908 0.415238 0.337712 -0.184584
C48   C     C_R   0.705350 0.390227 0.659287 -0.183728
C49   C     C_R   0.111883 0.085096 0.682249 -0.240924
C50   C     C_R   0.885562 0.062134 0.317358 -0.238492
C51   C     C_R   0.388117 0.585094 0.317750 -0.240924
C52   C     C_R   0.614439 0.562137 0.682641 -0.238492
C53   C     C_R   0.079757 0.042844 0.586615 0.046180
C54   C     C_R   0.917717 0.030443 0.414056 0.045594
C55   C     C_R   0.420244 0.542843 0.413384 0.046180
C56   C     C_R   0.582284 0.530444 0.585944 0.045594
C57   C     C_R   0.118276 0.994421 0.525139 0.120360
C58   C     C_R   0.879524 0.984861 0.476443 0.120545
C59   C     C_R   0.381725 0.494422 0.474861 0.120360
C60   C     C_R   0.620477 0.484861 0.523557 0.120546
C61   C     C_R   0.011905 0.040044 0.551059 -0.072806
C62   C     C_R   0.985511 0.034620 0.449735 -0.074842
C63   C     C_R   0.488096 0.540044 0.448940 -0.072806
C64   C     C_R   0.514490 0.534621 0.550264 -0.074842
C65   C     C_R   0.027650 0.012299 0.388247 -0.020666
C66   C     C_R   0.969946 0.020629 0.613020 -0.019609
C67   C     C_R   0.472351 0.512300 0.611753 -0.020667
C68   C     C_R   0.530054 0.520629 0.386979 -0.019607
C69   C     C_R   0.094016 0.007619 0.426496 0.085443
C70   C     C_R   0.903628 0.006754 0.574889 0.085376
C71   C     C_R   0.405985 0.507620 0.573504 0.085444
C72   C     C_R   0.596373 0.506753 0.425111 0.085375
H13   H     H_    0.907924 0.137950 0.269666 0.127483
H14   H     H_    0.089078 0.164511 0.728267 0.127986
H15   H     H_    0.592076 0.637953 0.730332 0.127483
H16   H     H_    0.410922 0.664508 0.271731 0.127987
H17   H     H_    0.750903 0.812223 0.313893 0.122791
H18   H     H_    0.248223 0.840401 0.690613 0.121933
H19   H     H_    0.749098 0.312222 0.686107 0.122791
H20   H     H_    0.251778 0.340403 0.309388 0.121932
H21   H     H_    0.206828 0.850908 0.521139 0.126493
H22   H     H_    0.791888 0.838225 0.482870 0.126822
H23   H     H_    0.293173 0.350909 0.478862 0.126493
H24   H     H_    0.708113 0.338224 0.517131 0.126821
C73   C     C_3   0.345784 0.070464 0.792779 -0.815954
H25   H     H_    0.324182 0.084588 0.715530 0.188394
H26   H     H_    0.320971 0.951270 0.818654 0.195096
H27   H     H_    0.338701 0.211679 0.824443 0.231642
C74   C     C_3   0.655701 0.052609 0.206142 -0.826347
H28   H     H_    0.677444 0.076181 0.282807 0.192524
H29   H     H_    0.678230 0.923280 0.184727 0.198397
H30   H     H_    0.665389 0.185242 0.169481 0.229286
C75   C     C_3   0.154216 0.570461 0.207221 -0.815955
H31   H     H_    0.175818 0.584584 0.284470 0.188394
H32   H     H_    0.179029 0.451268 0.181345 0.195096
H33   H     H_    0.161299 0.711677 0.175557 0.231642
C76   C     C_3   0.844299 0.552610 0.793857 -0.826348
H34   H     H_    0.822556 0.576182 0.717193 0.192525
H35   H     H_    0.821770 0.423281 0.815273 0.198397
H36   H     H_    0.834610 0.685242 0.830519 0.229286
C77   C     C_3   0.138843 0.017165 0.361645 -0.724828
H37   H     H_    0.188769 0.044995 0.399730 0.178193
H38   H     H_    0.136230 0.881414 0.320914 0.225909
H39   H     H_    0.126055 0.140664 0.312085 0.246360
C78   C     C_3   0.858761 0.016300 0.639798 -0.725245
H40   H     H_    0.808431 0.035404 0.601528 0.177304
H41   H     H_    0.863485 0.884469 0.684077 0.226515
H42   H     H_    0.869624 0.145486 0.686044 0.244912
C79   C     C_3   0.361158 0.517168 0.638354 -0.724828
H43   H     H_    0.311232 0.545000 0.600270 0.178193
H44   H     H_    0.363770 0.381418 0.679086 0.225910
H45   H     H_    0.373946 0.640667 0.687914 0.246360
C80   C     C_3   0.641239 0.516298 0.360202 -0.725246
H46   H     H_    0.691570 0.535399 0.398471 0.177304
H47   H     H_    0.636515 0.384468 0.315922 0.226515
H48   H     H_    0.630377 0.645485 0.313956 0.244912
C81   C     C_2   0.003838 0.946285 0.288080 0.364973
H49   H     H_    0.967611 0.835703 0.271462 0.058006
O21   O     O_2   0.022567 0.016941 0.223204 -0.525486
C82   C     C_2   0.994526 0.967913 0.715014 0.366839
H50   H     H_    0.032147 0.862355 0.735014 0.058520
O22   O     O_2   0.974819 0.044154 0.777648 -0.526010
C83   C     C_2   0.496163 0.446286 0.711920 0.364974
H51   H     H_    0.532390 0.335704 0.728538 0.058006
O23   O     O_2   0.477434 0.516940 0.776795 -0.525486
C84   C     C_2   0.505475 0.467914 0.284985 0.366839
H52   H     H_    0.467855 0.362355 0.264986 0.058521
O24   O     O_2   0.525182 0.544157 0.222352 -0.526010

loop_
_geom_bond_atom_site_label_1
_geom_bond_atom_site_label_2
_ccdc_geom_bond_type
O17   V3    S    
C44   H24   S    
O1    C5    A    
C8    C33   S    
C12   C32   A    
C27   C31   A    
O19   V1    S    
O13   V1    S    
O3    C7    A    
C56   C60   A    
C44   C48   A    
O15   V3    S    
C40   C48   A    
C61   C62   A    
C23   C75   S    
C29   C34   A    
O7    C3    A    
C77   H38   S    
C31   C36   A    
C22   C26   A    
C32   C35   A    
O9    V1    S    
C82   H50   S    
C42   H22   S    
O10   V2    S    
C10   C14   A    
C41   H21   S    
C80   H47   S    
C68   C84   S    
C71   C79   S    
C21   C25   A    
O1    V3    S    
H4    C19   S    
O2    V4    S    
C14   C18   A    
O3    V1    S    
C53   C61   A    
C5    C36   S    
C57   C69   A    
C6    C35   S    
C10   C30   A    
C52   H15   S    
C25   C33   A    
C82   O22   D    
C1    O15   A    
C7    C34   S    
C58   C70   A    
C52   C56   A    
C2    O16   A    
C73   H27   S    
C27   C35   A    
C45   H18   S    
O2    C6    A    
C74   H30   S    
C83   O23   D    
C66   C70   A    
O14   V2    S    
C1    C40   S    
C65   C81   S    
C44   C60   A    
C40   C52   A    
C12   C16   A    
O5    V1    S    
C61   C66   A    
C75   H33   S    
C30   C33   A    
O11   C7    A    
C63   C68   A    
C60   C72   A    
C21   C73   S    
O12   C8    A    
C9    C13   A    
C4    C37   S    
C65   C69   A    
C24   C76   S    
C38   C46   A    
H3    C20   S    
C37   C45   A    
C79   H44   S    
O16   V4    S    
C54   C58   A    
C84   O24   D    
C67   C83   S    
O17   V1    S    
C77   H39   S    
O7    V3    S    
C51   C55   A    
O19   V3    S    
O8    V4    S    
C10   H6    S    
O20   V4    S    
C50   H13   S    
C49   H14   S    
C50   C54   A    
C78   H42   S    
H2    C17   S    
C25   C29   A    
O18   V4    S    
C19   C23   A    
C51   H16   S    
C26   C34   A    
C55   C59   A    
C64   C67   A    
C28   C32   A    
C43   H23   S    
C14   H10   S    
C43   C59   A    
C76   H36   S    
C2    C39   S    
C42   C46   A    
C83   H51   S    
C17   C21   A    
O8    C4    A    
C11   C31   A    
C28   C36   A    
O9    C5    A    
C22   C74   S    
C38   C50   A    
C37   C49   A    
C73   H25   S    
C59   C71   A    
C9    H5    S    
O6    V2    S    
O18   V2    S    
C48   H19   S    
C49   C53   A    
C76   H34   S    
C80   H48   S    
C81   O21   D    
C66   C82   S    
C79   H43   S    
C68   C72   A    
C79   H45   S    
C56   C64   A    
C70   C78   S    
C13   H9    S    
C84   H52   S    
C26   C30   A    
C39   C51   A    
C3    O13   A    
C15   H11   S    
C11   H7    S    
C47   H20   S    
C46   H17   S    
O5    C1    A    
C3    C38   S    
O6    C2    A    
C11   C15   A    
O11   V3    S    
O12   V4    S    
C62   C65   A    
C77   H37   S    
C18   C22   A    
H1    C18   S    
C63   C64   A    
O10   C6    A    
C78   H41   S    
C75   H31   S    
O20   V2    S    
C78   H40   S    
C43   C47   A    
C39   C47   A    
C74   H28   S    
C42   C58   A    
O4    C8    A    
C41   C57   A    
C16   H12   S    
C23   C27   A    
C53   C57   A    
O4    V2    S    
C73   H26   S    
C69   C77   S    
C72   C80   S    
C16   C20   A    
C20   C24   A    
C41   C45   A    
C12   H8    S    
C4    O14   A    
C74   H29   S    
C76   H35   S    
C13   C17   A    
C67   C71   A    
C55   C63   A    
C81   H49   S    
C80   H46   S    
C15   C19   A    
C54   C62   A    
C9    C29   A    
C24   C28   A    
C75   H32   S    
