data_mof_unit_1843.cif
_audit_creation_date              2013-03-05T15:55:34-0500
_audit_creation_method            fapswitch 2.2
_symmetry_space_group_name_H-M    P1
_symmetry_Int_Tables_number       1
_space_group_crystal_system       triclinic
_cell_length_a                    13.973407
_cell_length_b                    13.970064
_cell_length_c                    31.836333
_cell_angle_alpha                 90.152189
_cell_angle_beta                  89.943979
_cell_angle_gamma                 119.981839
_cell_volume                      5383.0976156

loop_
_atom_site_label
_atom_site_type_symbol
_atom_site_description
_atom_site_fract_x
_atom_site_fract_y
_atom_site_fract_z
_atom_type_partial_charge
O1    O     O_R   0.480350 0.140770 0.796330 -0.519002
O2    O     O_R   0.660420 0.519650 0.703670 -0.522856
O3    O     O_R   0.859230 0.339580 0.796330 -0.519267
O4    O     O_R   0.480350 0.140770 0.703670 -0.549169
O5    O     O_R   0.660420 0.519650 0.796330 -0.517713
O6    O     O_R   0.859230 0.339580 0.703670 -0.552658
O7    O     O_R   0.140770 0.480350 0.296330 -0.550427
O8    O     O_R   0.519650 0.660420 0.203670 -0.518524
O9    O     O_R   0.339580 0.859230 0.296330 -0.516884
O10   O     O_R   0.140770 0.480350 0.203670 -0.551341
O11   O     O_R   0.519650 0.660420 0.296330 -0.552381
O12   O     O_R   0.339580 0.859230 0.203670 -0.549194
O13   O     O_R   0.514930 0.348530 0.793250 -0.544210
O14   O     O_R   0.833600 0.485070 0.706750 -0.530940
O15   O     O_R   0.651470 0.166400 0.793250 -0.542137
O16   O     O_R   0.514930 0.348530 0.706750 -0.543937
O17   O     O_R   0.833600 0.485070 0.793250 -0.542372
O18   O     O_R   0.651470 0.166400 0.706750 -0.537731
O19   O     O_R   0.348530 0.514930 0.293250 -0.536405
O20   O     O_R   0.485070 0.833600 0.206750 -0.535580
O21   O     O_R   0.166400 0.651470 0.293250 -0.531783
O22   O     O_R   0.348530 0.514930 0.206750 -0.544959
O23   O     O_R   0.485070 0.833600 0.293250 -0.546737
O24   O     O_R   0.166400 0.651470 0.206750 -0.535512
C1    C     C_R   0.567025 0.444407 0.810375 0.840495
C2    C     C_R   0.876887 0.432371 0.689183 0.813821
C3    C     C_R   0.555704 0.122896 0.810446 0.842069
C4    C     C_R   0.567850 0.444012 0.689283 0.830896
C5    C     C_R   0.877104 0.432888 0.810591 0.839772
C6    C     C_R   0.555687 0.123564 0.689082 0.814183
C7    C     C_R   0.444434 0.567548 0.310561 0.813425
C8    C     C_R   0.432907 0.877299 0.189594 0.817528
C9    C     C_R   0.124067 0.556075 0.311059 0.818295
C10   C     C_R   0.444240 0.567025 0.189567 0.842189
C11   C     C_R   0.433079 0.877709 0.310509 0.835886
C12   C     C_R   0.123533 0.555776 0.189167 0.817818
C13   C     C_1   0.002833 0.540147 0.018351 0.236576
C14   C     C_1   0.541141 0.003712 0.480396 0.236693
C15   C     C_1   0.468867 0.476106 0.018293 0.258537
C16   C     C_1   0.008196 0.550053 0.482413 0.238824
C17   C     C_1   0.528680 0.002079 0.019229 0.258090
C18   C     C_1   0.447573 0.443148 0.480147 0.234001
C19   C     C_1   0.541045 0.002768 0.518198 0.228039
C20   C     C_1   0.002844 0.540177 0.980571 0.242274
C21   C     C_1   0.455657 0.435090 0.517310 0.238891
C22   C     C_1   0.531090 0.007415 0.981658 0.264133
C23   C     C_1   0.009658 0.551073 0.520260 0.246646
C24   C     C_1   0.471796 0.472985 0.980765 0.256406
H1    H     H_    0.908243 0.614145 0.851832 0.206744
H2    H     H_    0.700672 0.083074 0.649089 0.189490
H3    H     H_    0.402678 0.286957 0.855806 0.205874
H4    H     H_    0.931985 0.626059 0.652834 0.200504
H5    H     H_    0.711804 0.111247 0.855231 0.205201
H6    H     H_    0.367065 0.318584 0.654879 0.184451
H7    H     H_    0.621526 0.922290 0.349827 0.183681
H8    H     H_    0.104340 0.710134 0.146541 0.199206
H9    H     H_    0.311197 0.368962 0.344645 0.187302
H10   H     H_    0.587621 0.871962 0.142229 0.204293
H11   H     H_    0.081898 0.701253 0.350082 0.203557
H12   H     H_    0.286312 0.402731 0.144044 0.191993
Cr1   Cr    Cr6+3 0.504240 0.249200 0.750000 0.945210
Cr2   Cr    Cr6+3 0.744960 0.495760 0.750000 0.961287
Cr3   Cr    Cr6+3 0.750800 0.255040 0.750000 0.945563
Cr4   Cr    Cr6+3 0.249200 0.504240 0.250000 0.929857
Cr5   Cr    Cr6+3 0.495760 0.744960 0.250000 0.944642
Cr6   Cr    Cr6+3 0.255040 0.750800 0.250000 0.953884
O25   O     O_3   0.666667 0.333333 0.750000 -0.336535
O26   O     O_3   0.333333 0.666667 0.250000 -0.332166
C25   C     C_R   0.935886 0.475178 0.851184 -0.188414
C26   C     C_R   0.538397 0.066035 0.647923 -0.216448
C27   C     C_R   0.525742 0.460332 0.851060 -0.186862
C28   C     C_R   0.937947 0.475039 0.648772 -0.215395
C29   C     C_R   0.540019 0.067052 0.851402 -0.188848
C30   C     C_R   0.531341 0.458028 0.647270 -0.179487
C31   C     C_R   0.475801 0.938339 0.350888 -0.180658
C32   C     C_R   0.067026 0.540019 0.148001 -0.223629
C33   C     C_R   0.460636 0.527026 0.351415 -0.219294
C34   C     C_R   0.474005 0.933974 0.148819 -0.221934
C35   C     C_R   0.068112 0.540368 0.352509 -0.222276
C36   C     C_R   0.459432 0.526538 0.148558 -0.187788
C37   C     C_R   0.936756 0.567184 0.869595 -0.302124
C38   C     C_R   0.627512 0.059605 0.630398 -0.291193
C39   C     C_R   0.443717 0.366126 0.871756 -0.301418
C40   C     C_R   0.952521 0.575668 0.633109 -0.303401
C41   C     C_R   0.633726 0.076821 0.871734 -0.297796
C42   C     C_R   0.426164 0.377997 0.632975 -0.310543
C43   C     C_R   0.571276 0.945123 0.368482 -0.321122
C44   C     C_R   0.072105 0.633428 0.129146 -0.282522
C45   C     C_R   0.376716 0.423615 0.365780 -0.294359
C46   C     C_R   0.551158 0.915670 0.127214 -0.276775
C47   C     C_R   0.060446 0.629586 0.369370 -0.284656
C48   C     C_R   0.364927 0.444732 0.127844 -0.291341
C49   C     C_R   0.969338 0.597293 0.911303 0.349454
C50   C     C_R   0.625956 0.027279 0.588575 0.348013
C51   C     C_R   0.420716 0.369191 0.914172 0.353020
C52   C     C_R   0.988974 0.610667 0.591883 0.342958
C53   C     C_R   0.631822 0.052757 0.914327 0.356596
C54   C     C_R   0.398594 0.367924 0.590307 0.360212
C55   C     C_R   0.601178 0.977334 0.410319 0.352025
C56   C     C_R   0.040782 0.631875 0.087403 0.349796
C57   C     C_R   0.370907 0.392344 0.407847 0.364416
C58   C     C_R   0.575017 0.943095 0.085012 0.354443
C59   C     C_R   0.029641 0.630337 0.411252 0.347100
C60   C     C_R   0.366863 0.423243 0.085188 0.360421
C61   C     C_R   0.999304 0.532105 0.935429 -0.174747
C62   C     C_R   0.533948 0.003802 0.563370 -0.208285
C63   C     C_R   0.479389 0.469981 0.936042 -0.185965
C64   C     C_R   0.007850 0.540546 0.565405 -0.200589
C65   C     C_R   0.532640 0.015918 0.936830 -0.183325
C66   C     C_R   0.478935 0.439457 0.561394 -0.195150
C67   C     C_R   0.532437 0.001249 0.435244 -0.182500
C68   C     C_R   0.005207 0.535202 0.063505 -0.198141
C69   C     C_R   0.450896 0.467156 0.436197 -0.222822
C70   C     C_R   0.522195 0.992505 0.064034 -0.212942
C71   C     C_R   0.008641 0.540456 0.437245 -0.209646
C72   C     C_R   0.466892 0.483230 0.063066 -0.183508
C73   C     C_R   0.010523 0.447074 0.916377 0.295664
C74   C     C_R   0.438563 0.996655 0.581492 0.315713
C75   C     C_R   0.552302 0.568005 0.914705 0.299494
C76   C     C_R   0.009140 0.447890 0.582161 0.319130
C77   C     C_R   0.434611 0.993174 0.915938 0.300387
C78   C     C_R   0.583218 0.523234 0.575435 0.286280
C79   C     C_R   0.444311 0.008120 0.416864 0.287685
C80   C     C_R   0.987801 0.436953 0.082787 0.331911
C81   C     C_R   0.539513 0.567808 0.421739 0.320164
C82   C     C_R   0.455296 0.024578 0.086323 0.343344
C83   C     C_R   0.003127 0.444822 0.419893 0.317703
C84   C     C_R   0.565419 0.556003 0.084304 0.304026
C85   C     C_R   0.979955 0.418995 0.873897 0.183524
C86   C     C_R   0.440003 0.027014 0.623823 0.178967
C87   C     C_R   0.575793 0.563646 0.871891 0.196300
C88   C     C_R   0.974558 0.414872 0.623836 0.176433
C89   C     C_R   0.437802 0.018261 0.872896 0.190418
C90   C     C_R   0.607687 0.536201 0.618618 0.167326
C91   C     C_R   0.416932 0.978656 0.374236 0.184791
C92   C     C_R   0.017999 0.438794 0.125212 0.181781
C93   C     C_R   0.547876 0.595479 0.379132 0.171267
C94   C     C_R   0.430877 0.995214 0.128955 0.198122
C95   C     C_R   0.032292 0.444105 0.377524 0.179854
C96   C     C_R   0.562109 0.577889 0.127391 0.189501
N1    N     N_R   0.048526 0.729858 0.069401 0.171392
O27   O     O_R   0.121020 0.827067 0.083459 -0.303013
O28   O     O_R   0.973804 0.721921 0.043038 -0.242084
N2    N     N_R   0.699397 0.982692 0.427249 0.180054
O29   O     O_R   0.740920 0.927155 0.409836 -0.298643
O30   O     O_R   0.755472 0.053311 0.456744 -0.249038
N3    N     N_R   0.265871 0.342979 0.064989 0.183356
O31   O     O_R   0.192003 0.258613 0.086118 -0.277410
O32   O     O_R   0.241913 0.358740 0.027089 -0.273410
N4    N     N_R   0.022005 0.723262 0.426946 0.179093
O33   O     O_R   0.068324 0.816464 0.406648 -0.313442
O34   O     O_R   0.956507 0.711082 0.458087 -0.245743
N5    N     N_R   0.650529 0.917013 0.063990 0.178796
O35   O     O_R   0.734234 0.923481 0.084394 -0.287827
O36   O     O_R   0.630491 0.876126 0.026159 -0.273704
N6    N     N_R   0.280959 0.287219 0.421206 0.177965
O37   O     O_R   0.235588 0.204925 0.394870 -0.328112
O38   O     O_R   0.236040 0.276200 0.457979 -0.235998
N7    N     N_R   0.718555 0.020417 0.572123 0.170988
O39   O     O_R   0.813347 0.069489 0.591411 -0.300991
O40   O     O_R   0.704705 0.952561 0.541586 -0.260817
N8    N     N_R   0.968913 0.692163 0.928890 0.175571
O41   O     O_R   0.907053 0.727655 0.912579 -0.306205
O42   O     O_R   0.041445 0.752621 0.957144 -0.244447
N9    N     N_R   0.291108 0.281943 0.576988 0.178682
O43   O     O_R   0.207182 0.246199 0.602393 -0.318469
O44   O     O_R   0.278878 0.230051 0.541666 -0.235891
N10   N     N_R   0.731929 0.069141 0.933988 0.182396
O45   O     O_R   0.804711 0.058621 0.911982 -0.301357
O46   O     O_R   0.755464 0.102748 0.972718 -0.262888
N11   N     N_R   0.005433 0.716140 0.577655 0.174726
O47   O     O_R   0.982943 0.776743 0.602319 -0.335853
O48   O     O_R   0.057183 0.759656 0.542726 -0.239362
N12   N     N_R   0.340288 0.268587 0.934423 0.178778
O49   O     O_R   0.256657 0.193869 0.913115 -0.298023
O50   O     O_R   0.355060 0.245972 0.972669 -0.268028
N13   N     N_2   0.997068 0.337793 0.143980 -0.432470
H13   H     H_    0.065586 0.334807 0.153973 0.299161
C97   C     C_3   0.903317 0.288139 0.172084 -0.432177
H14   H     H_    0.918658 0.341086 0.200214 0.157868
H15   H     H_    0.888932 0.206139 0.182413 0.207375
H16   H     H_    0.827883 0.276022 0.155661 0.201575
N14   N     N_2   0.331852 0.990737 0.354677 -0.467078
H17   H     H_    0.265963 0.975475 0.373566 0.345685
C98   C     C_3   0.371830 0.091388 0.330696 -0.432474
H18   H     H_    0.301426 0.091441 0.314574 0.210879
H19   H     H_    0.431751 0.097264 0.306427 0.165490
H20   H     H_    0.412156 0.164481 0.351858 0.210658
N15   N     N_2   0.661083 0.650317 0.149511 -0.470157
H21   H     H_    0.720294 0.715378 0.132329 0.330435
C99   C     C_3   0.706181 0.594378 0.173576 -0.477348
H22   H     H_    0.779055 0.656066 0.191672 0.201143
H23   H     H_    0.732576 0.548763 0.152230 0.207877
H24   H     H_    0.643878 0.535741 0.196158 0.177266
N16   N     N_2   0.025114 0.345677 0.361318 -0.435992
H25   H     H_    0.097795 0.352014 0.350823 0.294514
C100  C     C_3   0.928492 0.277780 0.335999 -0.398674
H26   H     H_    0.929961 0.321702 0.306766 0.155163
H27   H     H_    0.852267 0.256405 0.354041 0.203560
H28   H     H_    0.926818 0.199871 0.327431 0.209341
N17   N     N_2   0.365161 0.030230 0.151124 -0.432322
H29   H     H_    0.289620 0.967901 0.161339 0.304769
C101  C     C_3   0.424312 0.118533 0.181088 -0.466183
H30   H     H_    0.455232 0.089845 0.207567 0.159381
H31   H     H_    0.368045 0.146161 0.193794 0.203933
H32   H     H_    0.494956 0.190100 0.165509 0.202292
N18   N     N_2   0.641157 0.696364 0.366075 -0.430901
H33   H     H_    0.625007 0.755775 0.354832 0.288090
C102  C     C_3   0.724734 0.684764 0.343520 -0.334842
H34   H     H_    0.691893 0.641812 0.313073 0.146697
H35   H     H_    0.753093 0.637101 0.362582 0.211814
H36   H     H_    0.796866 0.767818 0.337363 0.214228
N19   N     N_2   0.341445 0.017391 0.640950 -0.436204
H37   H     H_    0.345816 0.089627 0.650973 0.295736
C103  C     C_3   0.277996 0.921834 0.667244 -0.392840
H38   H     H_    0.324875 0.927012 0.696130 0.155316
H39   H     H_    0.257826 0.845052 0.649743 0.201689
H40   H     H_    0.199357 0.917765 0.676394 0.211513
N20   N     N_2   0.993920 0.335366 0.853937 -0.471637
H41   H     H_    0.978075 0.268763 0.872466 0.333998
C104  C     C_3   0.095681 0.377197 0.830479 -0.455648
H42   H     H_    0.097036 0.307876 0.813885 0.205143
H43   H     H_    0.167775 0.416961 0.852072 0.210236
H44   H     H_    0.102064 0.438098 0.806641 0.173263
N21   N     N_2   0.712817 0.621505 0.632747 -0.486351
H45   H     H_    0.777718 0.639257 0.612901 0.319995
C105  C     C_3   0.713256 0.718841 0.648703 -0.325170
H46   H     H_    0.796419 0.777689 0.661351 0.209563
H47   H     H_    0.652069 0.696426 0.674470 0.158075
H48   H     H_    0.693138 0.760194 0.623274 0.235843
N22   N     N_2   0.339079 0.994147 0.851147 -0.469906
H49   H     H_    0.281680 0.002874 0.868502 0.331269
C106  C     C_3   0.290490 0.892214 0.827362 -0.473778
H50   H     H_    0.218135 0.882980 0.809490 0.201628
H51   H     H_    0.262468 0.820574 0.848888 0.208706
H52   H     H_    0.351176 0.892917 0.804596 0.175892
N23   N     N_2   0.977683 0.321161 0.639494 -0.426004
H53   H     H_    0.903339 0.255524 0.648969 0.297505
C107  C     C_3   0.071320 0.346067 0.665998 -0.367697
H54   H     H_    0.068271 0.387321 0.695429 0.146710
H55   H     H_    0.149617 0.400698 0.649104 0.207332
H56   H     H_    0.070148 0.268280 0.674168 0.216835
N24   N     N_2   0.648743 0.662210 0.849769 -0.466367
H57   H     H_    0.712460 0.722285 0.867308 0.333695
C108  C     C_3   0.593389 0.705906 0.824551 -0.478287
H58   H     H_    0.655590 0.778565 0.806594 0.203843
H59   H     H_    0.546238 0.732294 0.845038 0.207581
H60   H     H_    0.536248 0.642742 0.801789 0.176309
N25   N     N_R   0.941718 0.335638 0.058990 0.173985
O51   O     O_R   0.858106 0.308127 0.034069 -0.321188
O52   O     O_R   0.982096 0.269873 0.062374 -0.223188
N26   N     N_R   0.382347 0.044241 0.441696 0.143224
O53   O     O_R   0.433011 0.139345 0.460804 -0.333091
O54   O     O_R   0.279171 0.975894 0.450372 -0.242724
N27   N     N_R   0.668537 0.607161 0.062040 0.132188
O55   O     O_R   0.702983 0.546108 0.044095 -0.330463
O56   O     O_R   0.719144 0.712608 0.054328 -0.240733
N28   N     N_R   0.970334 0.348748 0.445679 0.176701
O57   O     O_R   0.884939 0.313319 0.470308 -0.323812
O58   O     O_R   0.024504 0.295425 0.444300 -0.226848
N29   N     N_R   0.410923 0.085553 0.065555 0.165604
O59   O     O_R   0.472841 0.167109 0.040648 -0.331864
O60   O     O_R   0.309656 0.062167 0.072294 -0.233910
N30   N     N_R   0.616423 0.647452 0.450985 0.188718
O61   O     O_R   0.722194 0.688707 0.445801 -0.227321
O62   O     O_R   0.581334 0.691553 0.478627 -0.311094
N31   N     N_R   0.340447 0.960669 0.556536 0.179701
O63   O     O_R   0.305653 0.874816 0.532091 -0.322640
O64   O     O_R   0.284884 0.012531 0.558396 -0.223568
N32   N     N_R   0.053079 0.389577 0.940308 0.136026
O65   O     O_R   0.149248 0.444796 0.958308 -0.321429
O66   O     O_R   0.989629 0.285740 0.949424 -0.243635
N33   N     N_R   0.666854 0.591254 0.545564 0.140214
O67   O     O_R   0.715285 0.698451 0.547840 -0.253117
O68   O     O_R   0.701961 0.545866 0.518487 -0.332441
N34   N     N_R   0.332007 0.944255 0.938521 0.131880
O69   O     O_R   0.295896 0.849148 0.956819 -0.330292
O70   O     O_R   0.284033 0.001704 0.946292 -0.244554
N35   N     N_R   0.043656 0.385602 0.556413 0.176879
O71   O     O_R   0.132127 0.436460 0.533381 -0.335487
O72   O     O_R   0.987741 0.278141 0.556090 -0.210809
N36   N     N_R   0.601980 0.671761 0.936592 0.130705
O73   O     O_R   0.539802 0.707526 0.952486 -0.325155
O74   O     O_R   0.706402 0.721556 0.946155 -0.244016

loop_
_geom_bond_atom_site_label_1
_geom_bond_atom_site_label_2
_geom_bond_distance
_ccdc_geom_bond_type
O16   C4    1.285546 A    
C16   C23   1.205032 T    
Cr6   O26   1.965575 S    
N11   O47   1.301551 A    
N27   O56   1.300301 A    
C108  H59   1.111761 S    
C50   N7    1.442265 S    
C38   C50   1.401549 A    
O21   Cr6   1.909091 S    
H6    C42   1.083559 S    
C57   C69   1.409128 A    
N17   H29   1.029741 S    
C64   C76   1.409756 A    
C35   C95   1.423166 A    
N3    O31   1.301524 A    
C91   N14   1.425536 S    
C17   C70   1.431610 S    
C88   N23   1.422990 S    
C4    C30   1.479920 S    
C102  H36   1.110210 S    
C89   N22   1.425512 S    
C73   N32   1.435547 S    
C32   C92   1.422220 A    
O4    C6    1.277910 A    
C20   C61   1.440237 S    
C34   C46   1.404970 A    
C101  H31   1.110232 S    
C11   C31   1.488855 S    
N36   O73   1.300841 A    
N9    O43   1.301461 A    
H9    C45   1.083381 S    
Cr2   O25   1.965872 S    
C15   C24   1.196833 T    
C74   C86   1.408881 A    
Cr4   O26   1.965910 S    
N6    O37   1.301565 A    
N3    O32   1.300885 A    
C51   N12   1.441771 S    
C33   C93   1.418339 A    
C37   C49   1.397937 A    
C68   C80   1.410826 A    
C104  H44   1.111395 S    
C56   N1    1.438707 S    
C103  H39   1.111490 S    
C93   N18   1.422708 S    
N29   O59   1.301432 A    
C70   C82   1.412017 A    
C94   N17   1.423546 S    
C31   C91   1.416359 A    
O18   Cr3   1.905962 S    
H8    C44   1.082964 S    
C24   C63   1.429741 S    
O21   C9    1.289522 A    
O22   Cr4   1.906541 S    
N22   C106  1.446067 S    
N24   H57   1.029795 S    
O14   Cr2   1.905992 S    
C30   C90   1.414845 A    
C26   C86   1.423709 A    
C84   N27   1.435579 S    
C71   C83   1.410435 A    
N18   C102  1.446597 S    
C86   N19   1.423348 S    
N15   C99   1.446069 S    
C40   C52   1.405111 A    
H1    C37   1.082865 S    
C100  H27   1.111480 S    
C105  H46   1.110290 S    
N12   O49   1.301543 A    
C46   C58   1.391865 A    
C13   C68   1.440580 S    
C12   C32   1.488729 S    
C59   N4    1.442633 S    
N21   C105  1.447433 S    
C60   C72   1.408008 A    
C78   C90   1.406204 A    
N5    O35   1.301432 A    
C107  H54   1.110611 S    
N30   O61   1.300969 A    
N24   C108  1.446113 S    
C52   N11   1.446997 S    
C75   C87   1.409949 A    
C17   C22   1.198025 T    
N7    O40   1.301273 A    
C7    C33   1.481883 S    
C55   C67   1.407745 A    
C1    C27   1.478241 S    
N5    O36   1.300944 A    
C73   C85   1.412865 A    
C106  H50   1.110388 S    
C32   C44   1.407029 A    
C27   C39   1.405482 A    
C108  H60   1.111235 S    
O24   Cr6   1.905520 S    
C97   H16   1.111465 S    
C49   C61   1.407144 A    
N10   O46   1.300908 A    
C52   C64   1.411800 A    
O19   C7    1.286354 A    
O8    Cr5   2.016347 S    
N9    O44   1.300591 A    
C69   C81   1.408713 A    
C108  H58   1.110379 S    
O12   C8    1.278929 A    
C96   N15   1.425471 S    
O7    C9    1.279615 A    
C60   N3    1.441792 S    
C61   C73   1.409126 A    
C100  H26   1.110639 S    
C83   C95   1.410172 A    
N17   C101  1.446095 S    
C26   C38   1.407182 A    
C34   C94   1.419135 A    
C63   C75   1.408499 A    
C6    C26   1.490704 S    
C95   N16   1.423200 S    
C28   C88   1.422633 A    
C75   N36   1.434707 S    
C5    C25   1.485555 S    
N19   C103  1.445831 S    
O22   C10   1.282746 A    
C101  H32   1.111447 S    
Cr3   O25   1.965597 S    
N25   O52   1.301069 A    
C80   C92   1.411770 A    
C67   C79   1.409916 A    
N18   H33   1.028034 S    
C65   C77   1.409035 A    
C90   N21   1.424535 S    
O20   Cr5   1.909441 S    
C41   C53   1.394961 A    
C59   C71   1.408658 A    
N2    O30   1.301116 A    
C78   N33   1.437306 S    
N20   H41   1.029302 S    
N29   O60   1.301107 A    
C21   C66   1.435211 S    
C9    C35   1.492966 S    
C98   H20   1.111808 S    
O8    C10   1.279843 A    
N16   H25   1.029836 S    
C57   N6    1.440431 S    
N13   C97   1.445902 S    
C36   C96   1.413938 A    
C8    C34   1.480302 S    
C92   N13   1.423058 S    
O14   C2    1.289527 A    
C99   H22   1.110379 S    
C82   N29   1.441815 S    
C79   C91   1.413575 A    
C55   N2    1.441640 S    
C18   C21   1.199572 T    
O6    Cr3   2.020513 S    
C36   C48   1.405054 A    
C100  H28   1.110216 S    
N28   O58   1.301194 A    
C103  H38   1.110632 S    
C99   H23   1.111771 S    
N14   H17   1.028674 S    
C50   C62   1.408390 A    
C80   N25   1.440935 S    
C58   C70   1.407089 A    
O17   Cr2   1.908312 S    
N20   C104  1.445993 S    
C104  H42   1.110358 S    
C53   C65   1.409274 A    
Cr1   O25   1.966369 S    
C18   C69   1.434993 S    
O15   C3    1.283477 A    
N7    O39   1.301276 A    
N19   H37   1.029874 S    
O19   Cr4   1.907925 S    
N35   O71   1.301480 A    
Cr5   O26   1.966352 S    
C39   C51   1.393290 A    
C102  H34   1.110332 S    
N25   O51   1.301373 A    
C83   N28   1.440741 S    
C107  H55   1.111422 S    
H11   C47   1.082705 S    
C2    C28   1.493995 S    
C30   C42   1.404786 A    
H10   C46   1.083470 S    
C58   N5    1.440687 S    
C29   C41   1.405239 A    
C28   C40   1.408476 A    
C51   C63   1.407718 A    
N16   C100  1.445824 S    
C25   C37   1.405746 A    
O5    C1    1.279964 A    
C31   C43   1.406212 A    
N10   O45   1.301602 A    
C105  H47   1.111054 S    
C29   C89   1.414371 A    
C23   C64   1.444031 S    
O23   C11   1.286180 A    
N23   C107  1.445897 S    
O18   C6    1.290365 A    
N4    O34   1.301131 A    
C103  H40   1.110232 S    
C27   C87   1.413878 A    
O16   Cr1   1.909548 S    
N27   O55   1.301042 A    
C44   C56   1.396281 A    
H3    C39   1.083327 S    
H2    C38   1.082523 S    
N26   O54   1.300506 A    
N8    O41   1.301272 A    
O20   C8    1.284364 A    
C76   N35   1.441076 S    
O2    C4    1.277516 A    
C82   C94   1.410322 A    
O15   Cr3   1.908749 S    
N21   H45   1.028645 S    
C76   C88   1.409196 A    
C35   C47   1.408130 A    
O10   Cr4   2.019639 S    
C47   C59   1.402354 A    
N2    O29   1.301127 A    
O13   C1    1.282028 A    
O1    Cr1   2.021644 S    
C107  H56   1.110192 S    
O10   C12   1.279827 A    
N31   O63   1.301354 A    
C56   C68   1.405054 A    
C33   C45   1.407347 A    
O3    Cr3   2.018092 S    
O11   Cr5   2.021405 S    
N11   O48   1.300635 A    
C53   N10   1.442866 S    
N36   O74   1.300359 A    
O24   C12   1.286731 A    
C104  H43   1.111769 S    
C81   C93   1.400143 A    
O23   Cr5   1.904478 S    
C13   C20   1.202787 T    
N1    O28   1.300929 A    
N28   O57   1.301398 A    
C84   C96   1.410329 A    
C77   N34   1.435566 S    
C14   C19   1.203586 T    
C85   N20   1.424940 S    
N8    O42   1.300728 A    
C87   N24   1.425481 S    
N1    O27   1.301312 A    
C66   C78   1.409601 A    
C74   N31   1.440420 S    
N31   O64   1.301190 A    
O3    C5    1.280380 A    
C98   H18   1.110398 S    
O6    C2    1.279567 A    
O12   Cr6   2.021293 S    
C49   N8    1.440111 S    
C15   C72   1.429826 S    
C25   C85   1.416000 A    
N23   H53   1.029457 S    
O4    Cr1   2.016244 S    
C81   N30   1.435682 S    
N6    O38   1.300468 A    
N33   O68   1.301136 A    
O5    Cr2   2.017535 S    
C54   C66   1.409917 A    
N32   O66   1.300335 A    
O9    Cr6   2.017100 S    
N35   O72   1.300740 A    
H7    C43   1.081461 S    
N15   H21   1.029587 S    
C42   C54   1.399723 A    
C106  H52   1.111315 S    
N12   O50   1.301057 A    
O7    Cr4   2.018767 S    
C99   H24   1.111280 S    
C54   N9    1.440105 S    
C98   H19   1.111362 S    
C48   C60   1.393188 A    
C10   C36   1.478193 S    
O11   C7    1.277714 A    
C97   H14   1.110638 S    
C16   C71   1.444158 S    
C43   C55   1.400400 A    
C45   C57   1.399461 A    
O17   C5    1.285083 A    
C79   N26   1.436166 S    
C105  H48   1.110595 S    
O13   Cr1   1.904434 S    
N34   O69   1.301046 A    
N14   C98   1.446341 S    
N30   O62   1.300996 A    
N13   H13   1.029674 S    
C72   C84   1.409053 A    
C22   C65   1.431642 S    
C106  H51   1.111782 S    
N22   H49   1.029538 S    
O1    C3    1.279586 A    
C102  H35   1.111311 S    
N32   O65   1.300915 A    
N26   O53   1.301124 A    
H5    C41   1.083254 S    
O9    C11   1.280929 A    
C101  H30   1.110636 S    
C77   C89   1.410445 A    
C14   C67   1.441601 S    
C3    C29   1.480113 S    
H12   C48   1.083183 S    
N34   O70   1.300397 A    
H4    C40   1.082350 S    
C19   C62   1.441951 S    
C62   C74   1.408947 A    
O2    Cr2   2.020520 S    
N4    O33   1.301239 A    
C97   H15   1.110205 S    
N33   O67   1.300965 A    
