data_mof_unit_2198.cif
_audit_creation_date              2013-03-05T15:40:16-0500
_audit_creation_method            fapswitch 2.2
_symmetry_space_group_name_H-M    P1
_symmetry_Int_Tables_number       1
_space_group_crystal_system       triclinic
_cell_length_a                    28.244682
_cell_length_b                    18.455747
_cell_length_c                    17.052275
_cell_angle_alpha                 89.836366
_cell_angle_beta                  61.031737
_cell_angle_gamma                 89.747741
_cell_volume                      7776.7619481

loop_
_atom_site_label
_atom_site_type_symbol
_atom_site_description
_atom_site_fract_x
_atom_site_fract_y
_atom_site_fract_z
_atom_type_partial_charge
O1    O     O_R   0.746490 0.236330 0.638080 -0.645251
O2    O     O_R   0.253510 0.763670 0.361920 -0.649184
O3    O     O_R   0.253510 0.236330 0.361920 -0.648531
O4    O     O_R   0.746490 0.763670 0.638080 -0.648818
O5    O     O_R   0.246490 0.736330 0.638080 -0.649133
O6    O     O_R   0.753510 0.263670 0.361920 -0.666005
O7    O     O_R   0.753510 0.736330 0.361920 -0.649324
O8    O     O_R   0.246490 0.263670 0.638080 -0.646820
O9    O     O_R   0.674170 0.186160 0.516270 -0.634775
O10   O     O_R   0.325830 0.813840 0.483730 -0.644944
O11   O     O_R   0.325830 0.186160 0.483730 -0.635154
O12   O     O_R   0.674170 0.813840 0.516270 -0.641100
O13   O     O_R   0.174170 0.686160 0.516270 -0.643136
O14   O     O_R   0.825830 0.313840 0.483730 -0.644725
O15   O     O_R   0.825830 0.686160 0.483730 -0.643383
O16   O     O_R   0.174170 0.313840 0.516270 -0.641856
O17   O     O_R   0.739960 0.127620 0.525000 -0.628468
O18   O     O_R   0.260040 0.872380 0.475000 -0.626506
O19   O     O_R   0.260040 0.127620 0.475000 -0.624606
O20   O     O_R   0.739960 0.872380 0.525000 -0.621645
O21   O     O_R   0.239960 0.627620 0.525000 -0.624256
O22   O     O_R   0.760040 0.372380 0.475000 -0.622402
O23   O     O_R   0.760040 0.627620 0.475000 -0.622902
O24   O     O_R   0.239960 0.372380 0.525000 -0.623964
O25   O     O_R   0.680700 0.294870 0.629350 -0.553247
O26   O     O_R   0.319300 0.705130 0.370650 -0.559486
O27   O     O_R   0.319300 0.294870 0.370650 -0.560346
O28   O     O_R   0.680700 0.705130 0.629350 -0.557238
O29   O     O_R   0.180700 0.794870 0.629350 -0.559144
O30   O     O_R   0.819300 0.205130 0.370650 -0.563228
O31   O     O_R   0.819300 0.794870 0.370650 -0.558832
O32   O     O_R   0.180700 0.205130 0.629350 -0.558433
C1    C     C_R   0.701145 0.267304 0.676159 0.927270
C2    C     C_R   0.298832 0.732761 0.323818 0.917058
C3    C     C_R   0.298788 0.267341 0.323908 0.910802
C4    C     C_R   0.701172 0.732734 0.676075 0.914764
C5    C     C_R   0.201166 0.767240 0.676183 0.917221
C6    C     C_R   0.798819 0.232729 0.323862 0.897949
C7    C     C_R   0.798816 0.767288 0.323931 0.912815
C8    C     C_R   0.201208 0.232668 0.676095 0.915136
C9    C     C_R   0.696557 0.128017 0.517332 0.902825
C10   C     C_R   0.308429 0.870677 0.465598 0.897913
C11   C     C_R   0.309048 0.129568 0.463663 0.888134
C12   C     C_R   0.691678 0.870983 0.532490 0.892784
C13   C     C_R   0.191424 0.629195 0.534110 0.895741
C14   C     C_R   0.808562 0.370816 0.465969 0.897007
C15   C     C_R   0.808663 0.629292 0.465582 0.893002
C16   C     C_R   0.191325 0.370697 0.534493 0.892964
Zn1   Zn    Zn3+2 0.792340 0.208750 0.507670 1.011753
Zn2   Zn    Zn3+2 0.207660 0.791250 0.492330 1.012750
Zn3   Zn    Zn3+2 0.207660 0.208750 0.492330 1.012814
Zn4   Zn    Zn3+2 0.792340 0.791250 0.507670 1.013629
Zn5   Zn    Zn3+2 0.292340 0.708750 0.507670 1.012080
Zn6   Zn    Zn3+2 0.707660 0.291250 0.492330 1.016520
Zn7   Zn    Zn3+2 0.707660 0.708750 0.492330 1.016900
Zn8   Zn    Zn3+2 0.292340 0.291250 0.507670 1.019171
H1    H     H_    0.031904 0.251728 0.532184 0.154077
H2    H     H_    0.967812 0.748275 0.468862 0.154118
H3    H     H_    0.966367 0.251385 0.476917 0.153085
H4    H     H_    0.033342 0.748619 0.524145 0.153030
H5    H     H_    0.527453 0.755113 0.536950 0.156421
H6    H     H_    0.498816 0.239905 0.376236 0.165982
H7    H     H_    0.461301 0.751848 0.482841 0.152450
H8    H     H_    0.581839 0.236748 0.388703 0.143421
C17   C     C_R   0.572413 0.124860 0.432733 0.105129
C18   C     C_R   0.462658 0.867795 0.461344 0.091158
C19   C     C_R   0.478338 0.127568 0.414082 0.097962
C20   C     C_R   0.541349 0.870704 0.516708 0.093494
C21   C     C_R   0.038742 0.631634 0.528209 0.092562
C22   C     C_R   0.960992 0.368371 0.472793 0.092023
C23   C     C_R   0.961775 0.631285 0.468511 0.092683
C24   C     C_R   0.037965 0.368716 0.532478 0.093161
C25   C     C_R   0.557691 0.188065 0.403306 -0.203881
C26   C     C_R   0.479152 0.803207 0.484778 -0.187396
C27   C     C_R   0.510361 0.189868 0.395951 -0.176940
C28   C     C_R   0.516633 0.805111 0.515980 -0.188601
C29   C     C_R   0.018969 0.697235 0.513392 -0.189735
C30   C     C_R   0.980736 0.302769 0.487678 -0.189353
C31   C     C_R   0.981904 0.697036 0.481246 -0.187597
C32   C     C_R   0.017804 0.302967 0.519815 -0.188322
C33   C     C_R   0.495173 0.063085 0.437498 0.031144
C34   C     C_R   0.527531 0.934501 0.487297 0.032382
C35   C     C_R   0.540822 0.062481 0.450656 0.036859
C36   C     C_R   0.485707 0.933697 0.464998 0.034062
C37   C     C_R   0.980133 0.565608 0.485826 0.033188
C38   C     C_R   0.019575 0.434395 0.515220 0.033451
C39   C     C_R   0.019986 0.565764 0.513043 0.033996
C40   C     C_R   0.979721 0.434240 0.488007 0.033823
C41   C     C_R   0.959342 0.499848 0.474415 -0.047167
C42   C     C_R   0.040389 0.500154 0.526572 -0.047517
C43   C     C_R   0.467341 0.998603 0.445293 -0.046822
C44   C     C_R   0.555370 0.998965 0.480063 -0.046602
C45   C     C_R   0.893613 0.433526 0.447535 0.056726
C46   C     C_R   0.106257 0.566476 0.553087 0.057511
C47   C     C_R   0.105935 0.434011 0.554812 0.055739
C48   C     C_R   0.893940 0.565986 0.445797 0.055016
C49   C     C_R   0.395150 0.932773 0.437313 0.054621
C50   C     C_R   0.629079 0.062881 0.485899 0.055330
C51   C     C_R   0.612588 0.935489 0.530082 0.057578
C52   C     C_R   0.397589 0.065332 0.428646 0.052994
C53   C     C_R   0.843243 0.434778 0.446022 -0.102198
C54   C     C_R   0.156723 0.565229 0.554256 -0.101916
C55   C     C_R   0.156550 0.434904 0.555156 -0.101789
C56   C     C_R   0.843419 0.565089 0.445113 -0.101874
C57   C     C_R   0.343052 0.934491 0.442887 -0.102530
C58   C     C_R   0.669309 0.063132 0.514093 -0.096408
C59   C     C_R   0.659838 0.935950 0.540857 -0.103486
C60   C     C_R   0.344014 0.065020 0.439636 -0.106245
C61   C     C_R   0.820714 0.500019 0.440921 -0.288255
C62   C     C_R   0.179305 0.499980 0.559201 -0.290448
C63   C     C_R   0.319481 0.999912 0.441304 -0.286815
C64   C     C_R   0.683736 0.000351 0.540956 -0.288841
H9    H     H_    0.782183 0.500169 0.441409 0.198469
H10   H     H_    0.217910 0.499830 0.558454 0.197926
H11   H     H_    0.279124 0.000211 0.448764 0.200692
H12   H     H_    0.716595 0.000747 0.556809 0.197197
C65   C     C_R   0.915987 0.499765 0.454778 0.063449
C66   C     C_R   0.083829 0.500236 0.545992 0.063517
C67   C     C_R   0.420243 0.998935 0.436105 0.068012
C68   C     C_R   0.598640 0.999343 0.499621 0.064785
C69   C     C_R   0.077425 0.369561 0.559414 -0.205046
C70   C     C_R   0.922419 0.630435 0.441349 -0.204290
C71   C     C_R   0.921759 0.368901 0.445327 -0.206119
C72   C     C_R   0.078073 0.631102 0.555462 -0.206782
C73   C     C_R   0.580304 0.873092 0.544672 -0.209238
C74   C     C_R   0.429620 0.128663 0.410361 -0.205043
C75   C     C_R   0.422587 0.867721 0.436267 -0.203935
C76   C     C_R   0.618158 0.123063 0.444392 -0.231104
H13   H     H_    0.084859 0.319135 0.583759 0.202433
H14   H     H_    0.915087 0.680856 0.416864 0.203029
H15   H     H_    0.914546 0.318065 0.422053 0.202875
H16   H     H_    0.085383 0.681939 0.578613 0.201996
H17   H     H_    0.584228 0.825744 0.578453 0.199458
H18   H     H_    0.418160 0.178638 0.390764 0.202600
H19   H     H_    0.413887 0.816009 0.417117 0.204704
H20   H     H_    0.644932 0.168862 0.418464 0.175093
H21   H     H_    0.649249 0.247554 0.082462 0.147560
H22   H     H_    0.288260 0.626717 0.986921 0.132286
H23   H     H_    0.288623 0.372908 0.984665 0.131582
H24   H     H_    0.649649 0.749004 0.082759 0.148835
H25   H     H_    0.211678 0.873185 0.013148 0.132301
H26   H     H_    0.849806 0.250799 0.918524 0.149077
H27   H     H_    0.850207 0.751281 0.917369 0.148789
H28   H     H_    0.211235 0.127310 0.015504 0.131773
C77   C     C_R   0.720513 0.264902 0.953584 0.120539
C78   C     C_R   0.278409 0.732838 0.047512 0.127133
C79   C     C_R   0.278566 0.267421 0.047206 0.126941
C80   C     C_R   0.720907 0.733806 0.953293 0.119435
C81   C     C_R   0.221530 0.767065 0.952554 0.127102
C82   C     C_R   0.778559 0.233455 0.047373 0.122107
C83   C     C_R   0.778952 0.766480 0.046836 0.119501
C84   C     C_R   0.221293 0.232794 0.952953 0.126441
C85   C     C_R   0.777446 0.264832 0.908802 -0.176206
C86   C     C_R   0.255646 0.801985 0.054330 -0.166859
C87   C     C_R   0.255520 0.198513 0.055236 -0.165507
C88   C     C_R   0.777866 0.735485 0.908184 -0.175101
C89   C     C_R   0.244291 0.697917 0.945739 -0.167101
C90   C     C_R   0.721618 0.233501 0.092199 -0.177881
C91   C     C_R   0.721991 0.764812 0.091948 -0.175254
C92   C     C_R   0.244329 0.301708 0.944937 -0.165326
H29   H     H_    0.800070 0.278191 0.838243 0.138582
H30   H     H_    0.260305 0.843569 0.094726 0.137368
H31   H     H_    0.260068 0.157179 0.096315 0.137030
H32   H     H_    0.800593 0.722989 0.837411 0.138422
H33   H     H_    0.239633 0.656335 0.905339 0.137322
H34   H     H_    0.699016 0.220218 0.162797 0.132695
H35   H     H_    0.699267 0.777302 0.162723 0.138443
H36   H     H_    0.239782 0.343039 0.903853 0.136976
C93   C     C_R   0.806014 0.249328 0.955014 -0.167148
C94   C     C_R   0.227735 0.818922 0.007403 -0.174110
C95   C     C_R   0.227428 0.181406 0.008738 -0.173006
C96   C     C_R   0.806405 0.751586 0.954228 -0.166208
C97   C     C_R   0.272201 0.680979 0.992668 -0.174313
C98   C     C_R   0.693042 0.248987 0.045963 -0.167170
C99   C     C_R   0.693450 0.748709 0.045901 -0.166254
C100  C     C_R   0.272423 0.318816 0.991435 -0.172085
C101  C     C_R   0.643424 0.326415 0.945367 -0.233167
C102  C     C_R   0.355901 0.672044 0.055488 -0.226297
C103  C     C_R   0.355749 0.328687 0.055591 -0.221563
C104  C     C_R   0.644134 0.671951 0.944564 -0.229279
C105  C     C_R   0.144053 0.827881 0.944562 -0.226342
C106  C     C_R   0.855734 0.172222 0.055582 -0.231304
C107  C     C_R   0.855766 0.828229 0.055538 -0.229532
C108  C     C_R   0.144168 0.171447 0.944490 -0.225087
H37   H     H_    0.631505 0.349577 0.010649 0.170606
H38   H     H_    0.368855 0.650233 0.989253 0.171010
H39   H     H_    0.368645 0.350713 0.989403 0.172133
H40   H     H_    0.632447 0.648260 0.009586 0.171409
H41   H     H_    0.131085 0.849665 0.010814 0.170900
H42   H     H_    0.867451 0.148659 0.990569 0.171705
H43   H     H_    0.867436 0.851965 0.990544 0.171424
H44   H     H_    0.131246 0.149464 0.010706 0.170640
C109  C     C_R   0.614100 0.343324 0.900109 -0.167835
C110  C     C_R   0.385456 0.655927 0.100523 -0.178658
C111  C     C_R   0.385244 0.344570 0.100786 -0.178395
C112  C     C_R   0.614685 0.655657 0.899335 -0.177896
C113  C     C_R   0.114525 0.844050 0.899498 -0.178550
C114  C     C_R   0.885386 0.155974 0.100490 -0.179822
C115  C     C_R   0.885268 0.844409 0.100708 -0.178693
C116  C     C_R   0.114732 0.155456 0.899228 -0.178942
C117  C     C_R   0.627784 0.312345 0.817916 0.256760
C118  C     C_R   0.372045 0.687757 0.182212 0.263737
C119  C     C_R   0.371908 0.312458 0.182398 0.265829
C120  C     C_R   0.628065 0.687499 0.817570 0.261605
C121  C     C_R   0.127955 0.812271 0.817780 0.263387
C122  C     C_R   0.871982 0.187680 0.182229 0.262723
C123  C     C_R   0.871913 0.812494 0.182428 0.262205
C124  C     C_R   0.128098 0.187496 0.817570 0.263470
C125  C     C_R   0.677537 0.278180 0.772073 -0.174856
C126  C     C_R   0.322373 0.722088 0.227834 -0.160234
C127  C     C_R   0.322379 0.278134 0.227867 -0.159236
C128  C     C_R   0.677558 0.721904 0.772064 -0.160967
C129  C     C_R   0.177617 0.777912 0.772169 -0.160809
C130  C     C_R   0.822251 0.221835 0.228020 -0.153250
C131  C     C_R   0.822396 0.778153 0.227959 -0.159698
C132  C     C_R   0.177597 0.221899 0.772149 -0.160455
C133  C     C_R   0.707578 0.260680 0.816448 -0.232260
C134  C     C_R   0.292078 0.738830 0.183628 -0.242178
C135  C     C_R   0.292245 0.261558 0.183499 -0.241970
C136  C     C_R   0.707575 0.738931 0.816436 -0.235530
C137  C     C_R   0.207889 0.761120 0.816403 -0.241964
C138  C     C_R   0.791879 0.238645 0.184032 -0.244001
C139  C     C_R   0.792323 0.761245 0.183648 -0.235839
C140  C     C_R   0.207675 0.238585 0.816584 -0.240834
H45   H     H_    0.745115 0.230567 0.781776 0.169007
H46   H     H_    0.253814 0.767332 0.218707 0.171223
H47   H     H_    0.254130 0.233043 0.218534 0.171343
H48   H     H_    0.744837 0.769314 0.781930 0.169244
H49   H     H_    0.246147 0.732602 0.781334 0.171161
H50   H     H_    0.754297 0.268665 0.218738 0.166600
H51   H     H_    0.755040 0.730909 0.218174 0.169451
H52   H     H_    0.245768 0.267151 0.781580 0.171998
C141  C     C_R   0.689672 0.282731 0.905079 0.081100
C142  C     C_R   0.309569 0.715523 0.095590 0.079483
C143  C     C_R   0.309650 0.284986 0.095415 0.078403
C144  C     C_R   0.690064 0.716014 0.904730 0.080032
C145  C     C_R   0.190382 0.784396 0.904459 0.079594
C146  C     C_R   0.809504 0.215944 0.095764 0.081260
C147  C     C_R   0.809812 0.784213 0.095385 0.079845
C148  C     C_R   0.190244 0.215191 0.904694 0.079319
O33   O     O_R   0.062020 0.072840 0.007170 -0.635685
O34   O     O_R   0.937980 0.927160 0.992830 -0.634138
O35   O     O_R   0.937980 0.072840 0.992830 -0.634178
O36   O     O_R   0.062020 0.927160 0.007170 -0.635911
O37   O     O_R   0.562020 0.572840 0.007170 -0.634351
O38   O     O_R   0.437980 0.427160 0.992830 -0.633262
O39   O     O_R   0.437980 0.572840 0.992830 -0.636198
O40   O     O_R   0.562020 0.427160 0.007170 -0.636957
O41   O     O_R   0.947860 0.073950 0.109290 -0.560711
O42   O     O_R   0.052140 0.926050 0.890710 -0.560634
O43   O     O_R   0.052140 0.073950 0.890710 -0.560563
O44   O     O_R   0.947860 0.926050 0.109290 -0.560511
O45   O     O_R   0.447860 0.573950 0.109290 -0.560977
O46   O     O_R   0.552140 0.426050 0.890710 -0.556915
O47   O     O_R   0.552140 0.573950 0.890710 -0.560848
O48   O     O_R   0.447860 0.426050 0.109290 -0.561826
C149  C     C_R   0.073077 0.100878 0.934661 0.916589
C150  C     C_R   0.926824 0.899202 0.065412 0.917056
C151  C     C_R   0.926959 0.101014 0.065176 0.917247
C152  C     C_R   0.072915 0.898878 0.934918 0.916613
C153  C     C_R   0.573165 0.600810 0.934600 0.916515
C154  C     C_R   0.426921 0.399120 0.065340 0.919378
C155  C     C_R   0.427080 0.601118 0.065089 0.915566
C156  C     C_R   0.572855 0.398775 0.935043 0.922127
Zn9   Zn    Zn3+2 0.505960 0.500000 0.080520 1.076438
Zn10  Zn    Zn3+2 0.494040 0.500000 0.919480 1.082710
Zn11  Zn    Zn3+2 0.005960 1.000000 0.080520 1.076074
Zn12  Zn    Zn3+2 0.994040 0.000000 0.919480 1.077680
N1    N     N_R   0.590892 0.314280 0.782254 0.215934
O49   O     O_R   0.592197 0.367287 0.730663 -0.351315
O50   O     O_R   0.552772 0.266088 0.808163 -0.383686
N2    N     N_R   0.409051 0.686754 0.217695 0.211121
O51   O     O_R   0.409307 0.632782 0.266862 -0.358514
O52   O     O_R   0.436572 0.744737 0.211887 -0.407214
N3    N     N_R   0.408893 0.313088 0.217921 0.210368
O53   O     O_R   0.409074 0.366980 0.266915 -0.360571
O54   O     O_R   0.436481 0.254883 0.212327 -0.416511
N4    N     N_R   0.591198 0.686375 0.781830 0.212032
O55   O     O_R   0.591378 0.632398 0.732650 -0.356769
O56   O     O_R   0.562986 0.744077 0.788058 -0.402311
N5    N     N_R   0.090971 0.813370 0.782262 0.211266
O57   O     O_R   0.090806 0.867304 0.732971 -0.358670
O58   O     O_R   0.062998 0.755677 0.788817 -0.406357
N6    N     N_R   0.909008 0.186618 0.217667 0.212636
O59   O     O_R   0.909178 0.132722 0.267000 -0.358837
O60   O     O_R   0.936903 0.244369 0.211186 -0.400936
N7    N     N_R   0.908819 0.813458 0.218097 0.211824
O61   O     O_R   0.908770 0.867446 0.267157 -0.358183
O62   O     O_R   0.936560 0.755432 0.212583 -0.403463
N8    N     N_R   0.091178 0.186674 0.781924 0.211213
O63   O     O_R   0.091118 0.132703 0.732931 -0.358665
O64   O     O_R   0.063510 0.244777 0.787440 -0.407875

loop_
_geom_bond_atom_site_label_1
_geom_bond_atom_site_label_2
_geom_bond_distance
_ccdc_geom_bond_type
O4    C4    1.259040 A    
O5    C5    1.255541 A    
C114  C122  1.385660 A    
C59   C64   1.369842 A    
C23   C70   1.396190 A    
O7    Zn7   2.022664 S    
O31   Zn4   2.078388 S    
O8    Zn8   2.022664 S    
C78   C142  1.497940 S    
O44   C150  1.262412 A    
C103  C111  1.413953 A    
C90   H34   1.082672 S    
C101  C109  1.412267 A    
N6    O59   1.302395 A    
O41   C151  1.260670 A    
O48   C154  1.261940 A    
C38   C40   1.410147 A    
C111  C119  1.385398 A    
C109  C117  1.385141 A    
C86   C94   1.402485 A    
C130  C138  1.419298 A    
O20   C12   1.306992 A    
O39   Zn10  1.987775 S    
C90   C98   1.402788 A    
N2    O51   1.302376 A    
C81   C145  1.497940 S    
N7    O62   1.300557 A    
C36   C43   1.406414 A    
C112  C120  1.385306 A    
C79   C87   1.407031 A    
C104  C112  1.414920 A    
C49   C57   1.428103 A    
O2    C2    1.255504 A    
C116  C124  1.385339 A    
C25   C27   1.402110 A    
C122  N6    1.439133 S    
C6    C130  1.449964 S    
C29   C31   1.397271 A    
C106  H42   1.083412 S    
C38   C42   1.404945 A    
C133  C141  1.402475 A    
C79   C100  1.409783 A    
C128  C136  1.419567 A    
O27   C3    1.296640 A    
C85   H29   1.082471 S    
C132  C140  1.420533 A    
O44   Zn11  2.008077 S    
C78   C86   1.405942 A    
C120  C128  1.383401 A    
O23   Zn7   2.019306 S    
H2    C31   1.083633 S    
C4    C128  1.451153 S    
H7    C26   1.083643 S    
O30   Zn1   2.078602 S    
C34   C36   1.405550 A    
N1    O50   1.300370 A    
H6    C27   1.083457 S    
O17   Zn1   2.027696 S    
C83   C147  1.501767 S    
O46   Zn10  2.000145 S    
C15   C56   1.466220 S    
O37   Zn9   1.992368 S    
C45   C71   1.420867 A    
C75   H19   1.076770 S    
C50   C68   1.407629 A    
O47   Zn10  2.008076 S    
O24   Zn8   2.019306 S    
O9    C9    1.247659 A    
C50   C58   1.432326 A    
C60   C63   1.383074 A    
C7    C131  1.451044 S    
C119  N3    1.439248 S    
C125  C133  1.419490 A    
O12   C12   1.253798 A    
C139  C147  1.402507 A    
C115  C150  1.444034 S    
O13   C13   1.254047 A    
C91   H35   1.082407 S    
C11   C60   1.470662 S    
C92   H36   1.082771 S    
C13   C54   1.467685 S    
C102  H38   1.082856 S    
C40   C41   1.404518 A    
C104  C144  1.399363 A    
O7    C7    1.258944 A    
O9    Zn6   2.112040 S    
O8    C8    1.258821 A    
C108  C148  1.398799 A    
O39   C155  1.232973 A    
O11   Zn8   2.106525 S    
O40   C156  1.232275 A    
C21   C29   1.403764 A    
O36   C152  1.232938 A    
O16   Zn3   2.106525 S    
O37   C153  1.231815 A    
C23   C31   1.403597 A    
C34   C44   1.400862 A    
O22   Zn6   2.027696 S    
H28   C95   1.082360 S    
O30   C6    1.293372 A    
C26   C28   1.396808 A    
C55   C62   1.382225 A    
C52   C74   1.419807 A    
H27   C96   1.082767 S    
O18   C10   1.296952 A    
C30   C32   1.397270 A    
C18   C26   1.403673 A    
C72   H16   1.077734 S    
C2    C126  1.451329 S    
O47   C153  1.262443 A    
C108  C116  1.413891 A    
H8    C25   1.083535 S    
O33   Zn11  1.992368 S    
O34   Zn12  1.992369 S    
C62   H10   1.084269 S    
O45   C155  1.260065 A    
O46   C156  1.261305 A    
H1    C32   1.083631 S    
C119  C127  1.383402 A    
H23   C100  1.082362 S    
C45   C65   1.411513 A    
H3    C30   1.083629 S    
C117  C125  1.383598 A    
C33   C35   1.411725 A    
C47   C55   1.432611 A    
O21   C13   1.302938 A    
H5    C28   1.083621 S    
C14   C53   1.467610 S    
C52   C60   1.431878 A    
O23   C15   1.303654 A    
O24   C16   1.303492 A    
C135  C143  1.402722 A    
C48   C65   1.410494 A    
C89   H33   1.082847 S    
C102  C142  1.396820 A    
O40   Zn9   1.987777 S    
C87   H31   1.082775 S    
C16   C55   1.466290 S    
C88   C96   1.403947 A    
C83   C91   1.408026 A    
C49   C67   1.409631 A    
O3    C3    1.258809 A    
C8    C132  1.452009 S    
C52   C67   1.413609 A    
C117  N1    1.438810 S    
C140  C148  1.402809 A    
C124  N8    1.439198 S    
C41   C65   1.417356 A    
C19   C33   1.406442 A    
C43   C67   1.412808 A    
C19   C27   1.404260 A    
C85   C93   1.402305 A    
C64   H12   1.085162 S    
C12   C59   1.460811 S    
C105  C145  1.396822 A    
C86   H30   1.082850 S    
O38   C154  1.232015 A    
N5    O58   1.300614 A    
C127  C135  1.420487 A    
O36   Zn11  1.987777 S    
C129  C137  1.420255 A    
O41   Zn11  2.000144 S    
N6    O60   1.300528 A    
C44   C68   1.414154 A    
O42   Zn12  2.000145 S    
C24   C32   1.403560 A    
C46   C66   1.411520 A    
C122  C130  1.382987 A    
C134  H46   1.083124 S    
O12   Zn7   2.106525 S    
O13   Zn2   2.112040 S    
C77   C98   1.408969 A    
C138  H50   1.082661 S    
N2    O52   1.300521 A    
N4    O55   1.302429 A    
O6    C6    1.255460 A    
O38   Zn10  1.992369 S    
C20   C73   1.395971 A    
C133  H45   1.082579 S    
O48   Zn9   2.008077 S    
C77   C141  1.498357 S    
C24   C69   1.396238 A    
O10   C10   1.256294 A    
O34   C150  1.231833 A    
C113  C121  1.385778 A    
N3    O53   1.302372 A    
C116  C149  1.443007 S    
O14   C14   1.253819 A    
C102  C110  1.411571 A    
C42   C66   1.417255 A    
C112  C153  1.444091 S    
O6    Zn6   2.022990 S    
C76   H20   1.077713 S    
C123  N7    1.439193 S    
C103  H39   1.082707 S    
C53   C61   1.381489 A    
C110  C118  1.385852 A    
C101  H37   1.083398 S    
C136  H48   1.082480 S    
N8    O63   1.302401 A    
O10   Zn5   2.112040 S    
C118  N2    1.439193 S    
C104  H40   1.083281 S    
C105  H41   1.082861 S    
C139  H51   1.082482 S    
C108  H44   1.082709 S    
C21   C39   1.401988 A    
C47   C69   1.419908 A    
C50   C76   1.426104 A    
C57   C63   1.382723 A    
C121  C129  1.383032 A    
N1    O49   1.302431 A    
C113  C152  1.440607 S    
C5    C129  1.451347 S    
C114  C151  1.441632 S    
O19   C11   1.302276 A    
C109  C156  1.442240 S    
C9    C58   1.441876 S    
C110  C155  1.440619 S    
C17   C76   1.399435 A    
C111  C154  1.443051 S    
O35   Zn12  1.987775 S    
C19   C74   1.407900 A    
O3    Zn3   2.022664 S    
O27   Zn8   2.078388 S    
C21   C72   1.396471 A    
C107  H43   1.083280 S    
O32   Zn3   2.078388 S    
N7    O61   1.302412 A    
C120  N4    1.439122 S    
H22   C97   1.082456 S    
C123  C131  1.383370 A    
O35   C151  1.232667 A    
O15   Zn4   2.106525 S    
O25   Zn6   2.078602 S    
H26   C93   1.082842 S    
O22   C14   1.303098 A    
C54   C62   1.381598 A    
C20   C28   1.403171 A    
C45   C53   1.435436 A    
O14   Zn1   2.112040 S    
O18   Zn2   2.027696 S    
C37   C41   1.404975 A    
C82   C90   1.407130 A    
C71   H15   1.077689 S    
C69   H13   1.078456 S    
C24   C38   1.402211 A    
C51   C59   1.432667 A    
C48   C70   1.420004 A    
C20   C34   1.404397 A    
H21   C98   1.082850 S    
O43   C149  1.261911 A    
H24   C99   1.082768 S    
H25   C94   1.082457 S    
C105  C113  1.411540 A    
C10   C57   1.460830 S    
C33   C43   1.399280 A    
O28   C4    1.296094 A    
C39   C42   1.404488 A    
C137  H49   1.083121 S    
C80   C88   1.407999 A    
C135  H47   1.083045 S    
C81   C89   1.405946 A    
O43   Zn12  2.008076 S    
C89   C97   1.402515 A    
C79   C143  1.501605 S    
C84   C92   1.407047 A    
C22   C30   1.403800 A    
C106  C114  1.412644 A    
O15   C15   1.258604 A    
C49   C75   1.421552 A    
C22   C40   1.401907 A    
O16   C16   1.258829 A    
O1    C1    1.256522 A    
C51   C73   1.416813 A    
C58   C64   1.375510 A    
C35   C44   1.409400 A    
O33   C149  1.231999 A    
O4    Zn4   2.022664 S    
O5    Zn5   2.022990 S    
N3    O54   1.300557 A    
C140  H52   1.083035 S    
C56   C61   1.382114 A    
C17   C35   1.399208 A    
C82   C93   1.408517 A    
C78   C97   1.409558 A    
C17   C25   1.407103 A    
C18   C75   1.390207 A    
C3    C127  1.451915 S    
C107  C147  1.399330 A    
C51   C68   1.415777 A    
C23   C37   1.402131 A    
C1    C125  1.450596 S    
C22   C71   1.396427 A    
O26   C2    1.293936 A    
C137  C145  1.402254 A    
C82   C146  1.497961 S    
O11   C11   1.263394 A    
O2    Zn2   2.022990 S    
C61   H9    1.084281 S    
C77   C85   1.406948 A    
C124  C132  1.383386 A    
C91   C99   1.404021 A    
C92   C100  1.403969 A    
C118  C126  1.383029 A    
C74   H18   1.080519 S    
O42   C152  1.260088 A    
O28   Zn7   2.078388 S    
O29   Zn2   2.078602 S    
C37   C39   1.410143 A    
C47   C66   1.410501 A    
H4    C29   1.083628 S    
C80   C99   1.408976 A    
C81   C94   1.409550 A    
C134  C142  1.402218 A    
C103  C143  1.398796 A    
C84   C95   1.409782 A    
C101  C141  1.397465 A    
O45   Zn9   2.000144 S    
N5    O57   1.302402 A    
C138  C146  1.401747 A    
C107  C115  1.414923 A    
C83   C96   1.408934 A    
C80   C144  1.501790 S    
C87   C95   1.403908 A    
C84   C148  1.501623 S    
C115  C123  1.385341 A    
O29   C5    1.293913 A    
N4    O56   1.300583 A    
O26   Zn5   2.078602 S    
C106  C146  1.397432 A    
C73   H17   1.079730 S    
C121  N5    1.439113 S    
C136  C144  1.402578 A    
C131  C139  1.419572 A    
C126  C134  1.420213 A    
C48   C56   1.432793 A    
O20   Zn4   2.019306 S    
O21   Zn5   2.027696 S    
O31   C7    1.296128 A    
N8    O64   1.300562 A    
O32   C8    1.296654 A    
O17   C9    1.294288 A    
C18   C36   1.397740 A    
O19   Zn3   2.019306 S    
C88   H32   1.082394 S    
O25   C1    1.292678 A    
C63   H11   1.083976 S    
O1    Zn1   2.022990 S    
C70   H14   1.078422 S    
C46   C54   1.435243 A    
C46   C72   1.420763 A    
