data_mof_unit_2430.cif
_audit_creation_date              2012-12-10T20:46:36-0500
_audit_creation_method            fapswitch 2.2
_symmetry_space_group_name_H-M    P1
_symmetry_Int_Tables_number       1
_space_group_crystal_system       triclinic
_cell_length_a                    10.867943
_cell_length_b                    8.934371
_cell_length_c                    8.131416
_cell_angle_alpha                 89.973887
_cell_angle_beta                  105.547433
_cell_angle_gamma                 90.031401
_cell_volume                      760.655614045

loop_
_atom_site_label
_atom_site_type_symbol
_atom_type_description
_atom_site_fract_x
_atom_site_fract_y
_atom_site_fract_z
_atom_type_partial_charge
C1    C     C_R   0.500023 0.218071 0.500028 0.928934
C2    C     C_1   0.499988 0.934793 0.499967 -0.197548
C3    C     C_3   0.895861 0.315749 0.412940 -0.856708
C4    C     C_3   0.104139 0.684251 0.587060 -0.856708
C5    C     C_R   0.499976 0.781929 0.499971 0.928935
C6    C     C_R   0.258283 0.501899 0.426973 0.881268
C7    C     C_R   0.741717 0.498100 0.573027 0.881267
C8    C     C_2   0.120593 0.490631 0.378215 -0.109650
C9    C     C_2   0.879407 0.509368 0.621785 -0.109650
C10   C     C_2   0.057300 0.540452 0.488749 0.226507
C11   C     C_2   0.942700 0.459548 0.511251 0.226507
C12   C     C_1   0.500012 0.065207 0.500033 -0.197548
H1    H     H_    0.976877 0.237270 0.424683 0.231747
H2    H     H_    0.099793 0.308020 0.226405 0.185297
H3    H     H_    0.825837 0.254206 0.465271 0.215113
H4    H     H_    0.849247 0.340981 0.276811 0.268346
H5    H     H_    0.023122 0.762730 0.575316 0.231747
H6    H     H_    0.150752 0.659019 0.723188 0.268346
H7    H     H_    0.174162 0.745793 0.534728 0.215113
H8    H     H_    0.900207 0.691980 0.773595 0.185297
H9    H     H_    0.920562 0.527312 0.877396 0.205904
H10   H     H_    0.079438 0.472687 0.122603 0.205904
N1    N     N_1   0.500020 0.500000 0.073650 -0.032708
N2    N     N_1   0.499980 0.500000 0.926350 -0.032708
N3    N     N_3   0.941454 0.585883 0.777033 -0.475148
N4    N     N_3   0.058546 0.414116 0.222967 -0.475148
O1    O     O_R   0.499990 0.285340 0.636850 -0.611268
O2    O     O_R   0.500010 0.714660 0.363150 -0.611268
O3    O     O_R   0.500010 0.285340 0.363150 -0.614031
O4    O     O_R   0.499990 0.714660 0.636850 -0.614031
O5    O     O_R   0.317810 0.500000 0.585760 -0.604027
O6    O     O_R   0.682190 0.500000 0.414240 -0.604027
O7    O     O_R   0.317820 0.500000 0.312020 -0.622110
O8    O     O_R   0.682180 0.500000 0.687980 -0.622110
Zn1   Zn    Zn3+2 0.499990 0.500000 0.682780 0.980083
Zn2   Zn    Zn3+2 0.500010 0.500000 0.317220 0.980083

loop_
_geom_bond_atom_site_label_1
_geom_bond_atom_site_label_2
_ccdc_geom_bond_type
N1    N2    T    
N1    Zn2   S    
C5    O2    A    
C8    N4    S    
C3    H1    S    
C6    O7    A    
C4    H6    S    
C1    O3    A    
C6    O5    A    
C9    N3    S    
H2    N4    S    
C9    C11   D    
O3    Zn2   S    
C1    C12   S    
O4    Zn1   S    
C4    H5    S    
O6    Zn2   S    
O8    Zn1   S    
H10   N4    S    
C7    O8    A    
O5    Zn1   S    
N2    Zn1   S    
C3    C11   S    
C10   C11   S    
C2    C12   T    
C4    C10   S    
C2    C5    S    
C7    C9    S    
O7    Zn2   S    
C3    H3    S    
O2    Zn2   S    
C8    C10   D    
C5    O4    A    
H8    N3    S    
C1    O1    A    
H9    N3    S    
C6    C8    S    
C7    O6    A    
O1    Zn1   S    
C4    H7    S    
C3    H4    S    
