data_mof_unit_1877.cif
_audit_creation_date              2012-12-11T17:01:12-0500
_audit_creation_method            fapswitch 2.2
_symmetry_space_group_name_H-M    P1
_symmetry_Int_Tables_number       1
_space_group_crystal_system       triclinic
_cell_length_a                    19.439207
_cell_length_b                    7.094267
_cell_length_c                    17.557288
_cell_angle_alpha                 89.957069
_cell_angle_beta                  108.569103
_cell_angle_gamma                 90.001672
_cell_volume                      2295.22015464

loop_
_atom_site_label
_atom_site_type_symbol
_atom_type_description
_atom_site_fract_x
_atom_site_fract_y
_atom_site_fract_z
_atom_type_partial_charge
O1    O     O_R   0.413720 0.494330 0.415730 -0.535321
O2    O     O_R   0.586280 0.994330 0.584270 -0.537285
O3    O     O_R   0.560210 0.819300 0.430070 -0.522839
O4    O     O_R   0.439790 0.319300 0.569930 -0.522927
C1    C     C_R   0.578980 0.655039 0.411624 0.784537
C2    C     C_R   0.420922 0.154982 0.588258 0.786550
O5    O     O_R   0.412670 0.823730 0.406310 -0.544967
O6    O     O_R   0.587330 0.323730 0.593690 -0.545092
O7    O     O_R   0.437690 0.998790 0.560340 -0.557385
O8    O     O_R   0.562310 0.498790 0.439660 -0.557815
C3    C     C_R   0.385231 0.655275 0.383595 0.735329
C4    C     C_R   0.614733 0.155156 0.616440 0.733494
O9    O     O_3   0.508380 0.662350 0.550560 -0.381852
O10   O     O_3   0.491620 0.162350 0.449440 -0.380682
V1    V     V_3+5 0.498450 0.935370 0.490620 1.476042
V2    V     V_3+5 0.501550 0.435370 0.509380 1.476347
C5    C     C_R   0.733559 0.997153 0.689915 0.167086
C6    C     C_R   0.266979 0.495750 0.309864 0.152640
C7    C     C_R   0.684885 0.147183 0.682597 -0.140288
C8    C     C_R   0.314990 0.647317 0.317550 -0.128145
C9    C     C_R   0.707206 0.295601 0.738396 -0.175303
C10   C     C_R   0.292425 0.795466 0.261699 -0.189532
H1    H     H_    0.672537 0.416881 0.734500 0.154285
H2    H     H_    0.326735 0.917508 0.265665 0.156744
C11   C     C_R   0.772542 0.283921 0.802981 -0.207435
C12   C     C_R   0.227302 0.782670 0.196987 -0.212155
H3    H     H_    0.785940 0.396962 0.846579 0.125934
H4    H     H_    0.213609 0.895978 0.153452 0.132771
C13   C     C_R   0.817762 0.123642 0.813817 -0.131853
C14   C     C_R   0.182443 0.621708 0.186087 -0.121412
C15   C     C_R   0.798180 0.985446 0.753707 0.183347
C16   C     C_R   0.202395 0.482082 0.246020 0.175646
C17   C     C_3   0.792611 0.775700 0.759182 -0.325240
C18   C     C_3   0.210765 0.272233 0.240156 -0.308679
C19   C     C_3   0.721383 0.788620 0.688470 -0.273439
C20   C     C_3   0.281143 0.288731 0.311772 -0.301714
C21   C     C_R   0.325324 0.999508 0.632075 -0.202178
C22   C     C_R   0.674336 0.499508 0.367417 -0.199156
C23   C     C_R   0.375924 0.145711 0.642903 -0.074888
C24   C     C_R   0.623797 0.645880 0.356762 -0.074585
C25   C     C_R   0.381788 0.281199 0.704047 -0.059260
C26   C     C_R   0.617780 0.781527 0.295534 -0.059147
C27   C     C_R   0.333615 0.272589 0.750304 -0.002355
C28   C     C_R   0.665745 0.772917 0.249022 -0.003119
C29   C     C_R   0.281653 0.125611 0.737116 0.077469
C30   C     C_R   0.717668 0.625867 0.262093 0.078210
C31   C     C_R   0.278761 0.984824 0.679148 0.040381
C32   C     C_R   0.720738 0.484929 0.320157 0.042027
C33   C     C_R   0.337495 0.405762 0.810946 -0.200951
C34   C     C_R   0.661760 0.906260 0.188303 -0.200798
C35   C     C_R   0.291056 0.399130 0.857639 -0.006329
C36   C     C_R   0.708097 0.899763 0.141453 -0.007454
C37   C     C_R   0.237048 0.256975 0.842296 0.055680
C38   C     C_R   0.762064 0.757496 0.156672 0.053864
C39   C     C_R   0.232128 0.120825 0.781436 0.047029
C40   C     C_R   0.767064 0.621278 0.217640 0.047691
C41   C     C_R   0.176913 0.981436 0.764182 0.004767
C42   C     C_R   0.822427 0.482353 0.235047 0.003299
C43   C     C_R   0.181527 0.824467 0.715404 -0.042076
C44   C     C_R   0.818089 0.325248 0.283878 -0.044189
C45   C     C_R   0.229865 0.831465 0.669573 -0.077168
C46   C     C_R   0.769716 0.331659 0.329688 -0.079714
C47   C     C_R   0.187441 0.247331 0.885714 -0.172975
C48   C     C_R   0.811589 0.747599 0.113087 -0.173433
C49   C     C_R   0.128795 0.122611 0.863794 -0.074567
C50   C     C_R   0.870407 0.623297 0.135372 -0.072184
C51   C     C_R   0.118651 0.004751 0.796173 -0.038445
C52   C     C_R   0.880784 0.507131 0.203456 -0.037644
O11   O     O_R   0.937800 0.775460 0.060470 -0.537300
O12   O     O_R   0.062200 0.275460 0.939530 -0.543568
O13   O     O_R   0.087350 0.441340 0.093710 -0.519842
O14   O     O_R   0.912650 0.941340 0.906290 -0.545422
C53   C     C_R   0.114861 0.609857 0.116380 0.750146
C54   C     C_R   0.885151 0.110253 0.883656 0.721910
O15   O     O_R   0.939820 0.446010 0.069950 -0.522402
O16   O     O_R   0.060180 0.946010 0.930050 -0.527333
O17   O     O_R   0.913690 0.271230 0.915700 -0.553562
O18   O     O_R   0.086310 0.771230 0.084300 -0.545234
C55   C     C_R   0.919409 0.614678 0.085630 0.760412
C56   C     C_R   0.080275 0.114638 0.914045 0.754644
O19   O     O_3   0.991670 0.603050 0.949510 -0.388614
O20   O     O_3   0.008330 0.103050 0.050490 -0.349179
V3    V     V_3+5 0.001550 0.329940 0.009370 1.538585
V4    V     V_3+5 0.998450 0.829940 0.990630 1.507251
C57   C     C_2   0.300208 0.545652 0.920943 0.441068
H5    H     H_    0.283237 0.521336 0.973114 0.027256
O21   O     O_2   0.328173 0.697377 0.915888 -0.524134
C58   C     C_2   0.698977 0.046685 0.078229 0.440046
H6    H     H_    0.716192 0.023043 0.026196 0.028841
O22   O     O_2   0.670804 0.198063 0.083217 -0.524295
H7    H     H_    0.191796 0.340330 0.935582 0.102356
H8    H     H_    0.807133 0.840089 0.062977 0.102361
C59   C     C_2   0.044063 0.939517 0.748704 0.485722
H9    H     H_    0.034983 0.862519 0.693100 0.090158
O23   O     O_2   0.990835 0.981856 0.767569 -0.523966
C60   C     C_2   0.955863 0.449711 0.252347 0.511935
H10   H     H_    0.965199 0.359212 0.304338 0.074699
O24   O     O_2   0.009037 0.515783 0.239354 -0.517439
C61   C     C_2   0.145666 0.641373 0.722359 0.327475
H11   H     H_    0.135507 0.534946 0.676015 0.127873
O25   O     O_2   0.129593 0.603480 0.782405 -0.538804
C62   C     C_2   0.854194 0.142623 0.276819 0.329630
H12   H     H_    0.863785 0.034999 0.322689 0.126416
O26   O     O_2   0.871099 0.106416 0.217158 -0.532938
C63   C     C_2   0.232024 0.674278 0.614312 0.367280
H13   H     H_    0.283489 0.610714 0.616903 0.049239
O27   O     O_2   0.176692 0.620023 0.563518 -0.502709
C64   C     C_2   0.767726 0.174240 0.385010 0.378482
H14   H     H_    0.716305 0.110673 0.382611 0.046551
O28   O     O_2   0.823159 0.119780 0.435651 -0.495499
H15   H     H_    0.783905 0.731929 0.816243 0.091878
H16   H     H_    0.220692 0.231532 0.183414 0.111175
C65   C     C_2   0.855365 0.673715 0.744293 0.522158
H17   H     H_    0.881322 0.558286 0.783428 0.045041
O29   O     O_2   0.877403 0.718182 0.688940 -0.481530
C66   C     C_2   0.150429 0.159416 0.255134 0.504878
H18   H     H_    0.162652 0.031985 0.291149 0.044223
O30   O     O_2   0.087084 0.202322 0.222850 -0.481009
H19   H     H_    0.672760 0.751650 0.705715 0.110742
H20   H     H_    0.330636 0.255070 0.295657 0.128804
C67   C     C_2   0.721104 0.695524 0.610965 0.528823
H21   H     H_    0.719785 0.542998 0.606809 0.023630
O31   O     O_2   0.722279 0.788601 0.552825 -0.517022
C68   C     C_2   0.281280 0.196679 0.389619 0.430079
H22   H     H_    0.287135 0.044974 0.395959 0.032599
O32   O     O_2   0.275199 0.289584 0.445698 -0.521126
H23   H     H_    0.321579 0.899079 0.584586 0.121250
H24   H     H_    0.678203 0.398932 0.414949 0.121984
C69   C     C_2   0.439179 0.428434 0.721161 0.386015
H25   H     H_    0.425525 0.575490 0.725469 0.031997
O33   O     O_2   0.502431 0.385462 0.732071 -0.530879
C70   C     C_2   0.560461 0.928971 0.278619 0.386184
H26   H     H_    0.574134 0.075975 0.274178 0.031606
O34   O     O_2   0.497239 0.886237 0.268012 -0.530967
H27   H     H_    0.378056 0.515678 0.823970 0.162017
H28   H     H_    0.621226 0.016275 0.175383 0.162162

loop_
_geom_bond_atom_site_label_1
_geom_bond_atom_site_label_2
_ccdc_geom_bond_type
C50   C52   A    
C47   C49   A    
C6    C20   S    
C59   H9    S    
C43   C61   S    
C19   H19   S    
O1    C3    A    
O2    C4    A    
C35   C57   S    
C2    O7    A    
C23   C25   A    
C57   H5    S    
C64   H14   S    
O5    C3    A    
C50   C55   S    
C63   O27   D    
C52   C60   S    
C38   C48   A    
C20   C68   S    
C69   H25   S    
C17   C19   S    
C41   C43   A    
C46   C64   S    
O17   V3    S    
C42   C44   A    
C18   H16   S    
C66   H18   S    
C44   C46   A    
C28   C34   A    
O5    V1    S    
C36   C38   A    
C70   H26   S    
C33   C35   A    
C54   O17   A    
C60   O24   D    
C34   C36   A    
C53   O18   A    
C15   C17   S    
C17   H15   S    
C40   C42   A    
C21   C31   A    
C45   C63   S    
C22   C32   A    
C29   C31   A    
C33   H27   S    
O6    V2    S    
C49   C56   S    
C25   C27   A    
O16   V4    S    
C26   C28   A    
C41   C51   A    
C44   C62   S    
O19   V3    S    
C28   C30   A    
O13   V3    S    
C37   C39   A    
C11   C13   A    
C38   C40   A    
C3    C8    S    
C43   C45   A    
C57   O21   D    
O12   C56   A    
C14   C16   A    
C36   C58   S    
O4    C2    A    
O13   C53   A    
C14   C53   S    
C27   C33   A    
C13   C54   S    
C49   C51   A    
C35   C37   A    
C48   C50   A    
O4    V2    S    
C21   H23   S    
O12   V3    S    
C32   C46   A    
C61   H11   S    
C19   C67   S    
O6    C4    A    
C60   H10   S    
O1    V2    S    
C62   O26   D    
O2    V1    S    
C27   C29   A    
C67   H21   S    
O14   V4    S    
C70   O34   D    
O14   C54   A    
C61   O25   D    
C58   O22   D    
C12   C14   A    
O20   V4    S    
C39   C41   A    
C5    C15   A    
C10   H2    S    
O11   C55   A    
C6    C16   A    
C48   H8    S    
C47   H7    S    
O19   V4    S    
O3    V1    S    
C68   O32   D    
C65   H17   S    
C42   C52   A    
C26   C70   S    
C9    C11   A    
C7    C9    A    
O10   V1    S    
C17   C65   S    
O16   C56   A    
C8    C10   A    
O3    C1    A    
C31   C45   A    
C22   H24   S    
C64   O28   D    
C11   H3    S    
C63   H13   S    
C12   H4    S    
C9    H1    S    
O7    V1    S    
C1    O8    A    
C21   C23   A    
O11   V4    S    
C34   H28   S    
C25   C69   S    
C37   C47   A    
O15   V3    S    
C59   O23   D    
C18   C66   S    
C22   C24   A    
C4    C7    S    
C24   C26   A    
C5    C7    A    
C18   C20   S    
C66   O30   D    
C6    C8    A    
C62   H12   S    
C20   H20   S    
C67   O31   D    
C30   C32   A    
O18   V4    S    
C58   H6    S    
C29   C39   A    
C13   C15   A    
O20   V3    S    
C10   C12   A    
O9    V2    S    
C30   C40   A    
C51   C59   S    
C2    C23   S    
O8    V2    S    
C5    C19   S    
C65   O29   D    
C1    C24   S    
O15   C55   A    
C16   C18   S    
C68   H22   S    
C69   O33   D    
