data_mof_unit_83.cif
_audit_creation_date              2012-10-26T18:25:41-0400
_audit_creation_method            fapswitch 2.2
_symmetry_space_group_name_H-M    P1
_symmetry_Int_Tables_number       1
_space_group_crystal_system       triclinic
_cell_length_a                    7.613927
_cell_length_b                    8.710867
_cell_length_c                    11.085407
_cell_angle_alpha                 86.029931
_cell_angle_beta                  72.32143
_cell_angle_gamma                 103.750318
_cell_volume                      672.439707425

loop_
_atom_site_label
_atom_site_type_symbol
_atom_type_description
_atom_site_fract_x
_atom_site_fract_y
_atom_site_fract_z
_atom_type_partial_charge
C1    C     C_R   0.451219 0.199636 0.504342 0.530111
C2    C     C_2   0.574676 0.969472 0.493367 -0.163230
C3    C     C_3   0.139633 0.357045 0.181853 -0.257938
C4    C     C_3   0.859859 0.643876 0.818018 -0.258071
C5    C     C_3   0.928410 0.210978 0.683263 -0.258152
C6    C     C_3   0.071581 0.789064 0.316776 -0.258186
C7    C     C_R   0.548780 0.800364 0.495660 0.530197
C8    C     C_R   0.423459 0.493041 0.741648 0.530235
C9    C     C_R   0.576515 0.506837 0.258360 0.530276
C10   C     C_2   0.380731 0.469538 0.879287 -0.102018
C11   C     C_2   0.619186 0.529949 0.120719 -0.101946
C12   C     C_2   0.513169 0.532176 0.933071 0.140688
C13   C     C_2   0.486511 0.467599 0.067038 0.140719
C14   C     C_2   0.425323 0.030527 0.506638 -0.163240
Cu1   Cu    Cu3+1 0.688910 0.517800 0.485820 0.928409
Cu2   Cu    Cu3+1 0.311090 0.482200 0.514180 0.928562
H1    H     H_    0.751893 0.618191 0.066748 0.093837
H2    H     H_    0.913531 0.666103 0.711700 0.194226
H3    H     H_    0.859868 0.520581 0.851607 0.169971
H4    H     H_    0.960311 0.730426 0.851707 0.119980
H5    H     H_    0.753201 0.326979 0.639823 0.303229
H6    H     H_    0.803155 0.138431 0.764742 0.086869
H7    H     H_    0.050512 0.236239 0.719341 0.194221
H8    H     H_    0.951423 0.137910 0.604577 0.143046
H9    H     H_    0.246816 0.673038 0.360180 0.303298
H10   H     H_    0.196840 0.861626 0.235307 0.086887
H11   H     H_    0.048541 0.862113 0.395471 0.143088
H12   H     H_    0.248342 0.380775 0.933111 0.093924
H13   H     H_    0.949493 0.763791 0.280683 0.194266
H14   H     H_    0.282508 0.956032 0.519532 0.119641
H15   H     H_    0.717491 0.043967 0.480474 0.119656
H16   H     H_    0.354882 0.251142 0.195357 0.253146
H17   H     H_    0.085469 0.334847 0.288158 0.194352
H18   H     H_    0.039146 0.270828 0.147979 0.120014
H19   H     H_    0.140365 0.480499 0.148143 0.169997
H20   H     H_    0.643720 0.749075 0.805229 0.252943
N1    N     N_2   0.027170 0.455360 0.535550 -0.026200
N2    N     N_2   0.972830 0.544640 0.464450 -0.026318
N3    N     N_2   0.328687 0.331574 0.134708 -0.536084
N4    N     N_2   0.670482 0.668678 0.865597 -0.535942
N5    N     N_2   0.888295 0.355949 0.641944 -0.407095
N6    N     N_2   0.111711 0.644097 0.358084 -0.407282
O1    O     O_R   0.622710 0.286400 0.490790 -0.525113
O2    O     O_R   0.377290 0.713600 0.509210 -0.525020
O3    O     O_R   0.303660 0.256330 0.514730 -0.518924
O4    O     O_R   0.696340 0.743670 0.485270 -0.518894
O5    O     O_R   0.600900 0.509520 0.671740 -0.502286
O6    O     O_R   0.399100 0.490480 0.328260 -0.502234
O7    O     O_R   0.281840 0.479450 0.695690 -0.510749
O8    O     O_R   0.718160 0.520550 0.304310 -0.510867

loop_
_geom_bond_atom_site_label_1
_geom_bond_atom_site_label_2
_ccdc_geom_bond_type
Cu2   O3    S    
H9    N6    S    
Cu1   N2    S    
C12   N4    S    
N1    N2    D    
Cu1   O4    S    
Cu1   O5    S    
C11   C13   D    
Cu2   O2    S    
C2    C7    S    
C5    H7    S    
C3    H19   S    
Cu2   N1    S    
C4    H2    S    
Cu2   O6    S    
C8    O5    A    
Cu1   O1    S    
C7    O2    A    
Cu2   O7    S    
C9    C11   S    
C1    O3    A    
C6    H10   S    
C5    H8    S    
C10   C12   D    
C14   H14   S    
H5    N5    S    
C5    H6    S    
N2    N6    S    
Cu1   O8    S    
N1    N5    S    
C2    C14   D    
C13   N3    S    
C3    H17   S    
C3    N3    S    
Cu1   Cu2   S    
C4    H4    S    
C7    O4    A    
C4    N4    S    
H20   N4    S    
C6    H13   S    
C12   C13   S    
C9    O6    A    
C8    C10   S    
C6    N6    S    
H16   N3    S    
C10   H12   S    
C5    N5    S    
C11   H1    S    
C1    C14   S    
C3    H18   S    
C4    H3    S    
C8    O7    A    
C1    O1    A    
C9    O8    A    
C6    H11   S    
C2    H15   S    
