data_mof_unit_4102.cif
_audit_creation_date              2012-12-10T17:09:14-0500
_audit_creation_method            fapswitch 2.2
_symmetry_space_group_name_H-M    P1
_symmetry_Int_Tables_number       1
_space_group_crystal_system       triclinic
_cell_length_a                    17.954346
_cell_length_b                    18.976433
_cell_length_c                    11.896947
_cell_angle_alpha                 90.002705
_cell_angle_beta                  71.766338
_cell_angle_gamma                 90.000164
_cell_volume                      3849.87432914

loop_
_atom_site_label
_atom_site_type_symbol
_atom_type_description
_atom_site_fract_x
_atom_site_fract_y
_atom_site_fract_z
_atom_type_partial_charge
C1    C     C_R   0.400854 0.102648 0.524381 0.832811
C2    C     C_R   0.597928 0.897015 0.477558 0.818661
C3    C     C_R   0.599136 0.102653 0.475626 0.832904
C4    C     C_R   0.402073 0.897015 0.522436 0.818665
C5    C     C_R   0.900855 0.602648 0.524381 0.832782
C6    C     C_R   0.097927 0.397014 0.477559 0.818662
C7    C     C_R   0.099133 0.602656 0.475625 0.832898
C8    C     C_R   0.902074 0.397014 0.522436 0.818676
C9    C     C_R   0.537546 0.004718 0.957394 -0.107652
C10   C     C_R   0.462455 0.004715 0.042606 -0.107641
C11   C     C_R   0.037547 0.504721 0.957394 -0.107662
C12   C     C_R   0.962456 0.504722 0.042606 -0.107627
C13   C     C_R   0.407923 0.990488 0.876366 0.037657
C14   C     C_R   0.592080 0.990498 0.123634 0.037664
C15   C     C_R   0.907922 0.490495 0.876368 0.037646
C16   C     C_R   0.092081 0.490502 0.123635 0.037679
C17   C     C_R   0.397096 0.999684 0.999816 0.093504
C18   C     C_R   0.602906 0.999696 0.000186 0.093453
C19   C     C_R   0.897096 0.499698 0.999817 0.093461
C20   C     C_R   0.102906 0.499701 0.000188 0.093421
C21   C     C_R   0.545135 0.008715 0.831850 0.474006
C22   C     C_R   0.454865 0.008713 0.168150 0.474050
C23   C     C_R   0.045136 0.508716 0.831850 0.474008
C24   C     C_R   0.954866 0.508718 0.168150 0.474048
C25   C     C_R   0.652869 0.165380 0.454281 -0.180755
C26   C     C_R   0.346573 0.837341 0.534546 -0.181880
C27   C     C_R   0.347109 0.165369 0.545733 -0.180753
C28   C     C_R   0.653426 0.837338 0.465435 -0.181875
C29   C     C_R   0.152864 0.665385 0.454273 -0.180728
C30   C     C_R   0.846571 0.337342 0.534548 -0.181915
C31   C     C_R   0.847108 0.665369 0.545736 -0.180750
C32   C     C_R   0.153424 0.337336 0.465437 -0.181913
C33   C     C_R   0.212606 0.806755 0.631190 -0.084113
C34   C     C_R   0.770596 0.226681 0.331003 -0.079398
C35   C     C_R   0.787395 0.806733 0.368790 -0.084133
C36   C     C_R   0.229369 0.226670 0.668986 -0.079366
C37   C     C_R   0.712606 0.306749 0.631210 -0.084105
C38   C     C_R   0.270612 0.726659 0.330995 -0.079485
C39   C     C_R   0.287389 0.306726 0.368777 -0.084118
C40   C     C_R   0.729357 0.726658 0.668986 -0.079386
C41   C     C_R   0.285289 0.826925 0.639946 -0.159602
C42   C     C_R   0.708553 0.178936 0.341303 -0.085122
C43   C     C_R   0.714712 0.826913 0.360035 -0.159606
C44   C     C_R   0.291394 0.178908 0.658692 -0.085082
C45   C     C_R   0.785292 0.326924 0.639954 -0.159592
C46   C     C_R   0.208546 0.678939 0.341293 -0.085112
C47   C     C_R   0.214703 0.326907 0.360032 -0.159582
C48   C     C_R   0.791388 0.678903 0.658693 -0.085053
C49   C     C_R   0.345713 0.799494 0.432642 -0.101349
C50   C     C_R   0.649220 0.212833 0.547609 -0.056430
C51   C     C_R   0.654278 0.799488 0.567331 -0.101356
C52   C     C_R   0.350782 0.212836 0.452423 -0.056526
C53   C     C_R   0.845705 0.299498 0.432645 -0.101319
C54   C     C_R   0.149222 0.712836 0.547598 -0.056426
C55   C     C_R   0.154281 0.299491 0.567335 -0.101347
C56   C     C_R   0.850786 0.712843 0.452435 -0.056555
C57   C     C_R   0.277359 0.761218 0.432986 -0.004347
C58   C     C_R   0.711302 0.261443 0.537037 0.020515
C59   C     C_R   0.722628 0.761213 0.566992 -0.004272
C60   C     C_R   0.288689 0.261434 0.462965 0.020521
C61   C     C_R   0.777348 0.261226 0.432998 -0.004287
C62   C     C_R   0.211306 0.761446 0.537018 0.020534
C63   C     C_R   0.222633 0.261217 0.566990 -0.004262
C64   C     C_R   0.788691 0.761437 0.462975 0.020529
Cu1   Cu    Cu3+1 0.507800 0.000000 0.383250 1.044650
Cu2   Cu    Cu3+1 0.492200 0.000000 0.616750 1.044663
Cu3   Cu    Cu3+1 0.007800 0.500000 0.383250 1.044649
Cu4   Cu    Cu3+1 0.992200 0.500000 0.616750 1.044667
N1    N     N_R   0.519530 0.000000 0.207810 -0.223767
N2    N     N_R   0.480470 0.000000 0.792190 -0.223729
N3    N     N_R   0.019530 0.500000 0.207810 -0.223774
N4    N     N_R   0.980470 0.500000 0.792190 -0.223716
O1    O     O_R   0.430030 0.075530 0.417420 -0.564781
O2    O     O_R   0.569970 0.924470 0.582580 -0.567657
O3    O     O_R   0.569970 0.075530 0.582580 -0.564789
O4    O     O_R   0.430030 0.924470 0.417420 -0.567685
O5    O     O_R   0.930030 0.575530 0.417420 -0.564783
O6    O     O_R   0.069970 0.424470 0.582580 -0.567645
O7    O     O_R   0.069970 0.575530 0.582580 -0.564785
O8    O     O_R   0.930030 0.424470 0.417420 -0.567654
O9    O     O_R   0.416860 0.075510 0.614610 -0.512667
O10   O     O_R   0.583140 0.924490 0.385390 -0.541253
O11   O     O_R   0.583140 0.075510 0.385390 -0.512725
O12   O     O_R   0.416860 0.924490 0.614610 -0.541251
O13   O     O_R   0.916860 0.575510 0.614610 -0.512665
O14   O     O_R   0.083140 0.424490 0.385390 -0.541257
O15   O     O_R   0.083140 0.575510 0.385390 -0.512744
O16   O     O_R   0.916860 0.424490 0.614610 -0.541243
C65   C     C_2   0.661069 0.965339 0.155887 0.917690
O17   O     O_2   0.700007 0.916692 0.100208 -0.587083
O18   O     O_R   0.685728 0.998528 0.242200 -0.726427
H1    H     H_    0.734711 0.976542 0.252338 0.337160
C66   C     C_2   0.338939 0.965322 0.844109 0.917616
O19   O     O_2   0.300008 0.916671 0.899778 -0.587016
O20   O     O_R   0.314277 0.998507 0.757799 -0.726450
H2    H     H_    0.265299 0.976514 0.747653 0.337222
C67   C     C_2   0.161071 0.465348 0.155888 0.917742
O21   O     O_2   0.200011 0.416700 0.100212 -0.587097
O22   O     O_R   0.185731 0.498542 0.242197 -0.726427
H3    H     H_    0.234716 0.476559 0.252335 0.337152
C68   C     C_2   0.838936 0.465329 0.844116 0.917616
O23   O     O_2   0.800002 0.416682 0.899793 -0.587054
O24   O     O_R   0.814277 0.498507 0.757797 -0.726439
H4    H     H_    0.765299 0.476515 0.747654 0.337226
N5    N     N_2   0.382960 0.033029 0.250086 -0.381481
H5    H     H_    0.360532 0.078517 0.226145 0.282181
C69   C     C_3   0.324427 0.983116 0.316813 -0.503507
H6    H     H_    0.266691 0.994165 0.305229 0.210991
H7    H     H_    0.315029 0.989882 0.412746 0.211618
H8    H     H_    0.340832 0.928133 0.288778 0.268154
N6    N     N_2   0.617042 0.033025 0.749915 -0.381531
H9    H     H_    0.639478 0.078506 0.773873 0.282239
C70   C     C_3   0.675571 0.983106 0.683192 -0.503504
H10   H     H_    0.659158 0.928125 0.711221 0.268182
H11   H     H_    0.733306 0.994148 0.694785 0.211004
H12   H     H_    0.684976 0.989870 0.587257 0.211633
N7    N     N_2   0.882963 0.533036 0.250087 -0.381489
H13   H     H_    0.860541 0.578532 0.226160 0.282177
C71   C     C_3   0.824427 0.483127 0.316815 -0.503431
H14   H     H_    0.766693 0.494177 0.305226 0.211018
H15   H     H_    0.815029 0.489894 0.412748 0.211601
H16   H     H_    0.840831 0.428143 0.288786 0.268204
N8    N     N_2   0.117043 0.533025 0.749914 -0.381539
H17   H     H_    0.139480 0.578505 0.773874 0.282254
C72   C     C_3   0.175572 0.483105 0.683194 -0.503516
H18   H     H_    0.159157 0.428125 0.711225 0.268206
H19   H     H_    0.233306 0.494146 0.694789 0.211001
H20   H     H_    0.184977 0.489868 0.587259 0.211638
C73   C     C_2   0.579112 0.212815 0.653914 0.912199
O25   O     O_2   0.585116 0.201097 0.751765 -0.593782
O26   O     O_R   0.506828 0.231159 0.641515 -0.680671
H21   H     H_    0.467281 0.244452 0.719895 0.384392
C74   C     C_2   0.421552 0.788469 0.338202 0.917836
O27   O     O_2   0.462609 0.738234 0.344631 -0.517870
O28   O     O_R   0.444549 0.834014 0.240957 -0.756553
H22   H     H_    0.493324 0.817762 0.177129 0.341375
C75   C     C_2   0.420940 0.212864 0.346199 0.912323
O29   O     O_2   0.415026 0.201101 0.248307 -0.593695
O30   O     O_R   0.493165 0.231300 0.358726 -0.680688
H23   H     H_    0.532736 0.244636 0.280396 0.384376
C76   C     C_2   0.578435 0.788460 0.661764 0.917835
O31   O     O_2   0.537399 0.738207 0.655350 -0.517879
O32   O     O_R   0.555420 0.834017 0.758999 -0.756527
H24   H     H_    0.506655 0.817758 0.822834 0.341379
C77   C     C_2   0.079118 0.712818 0.653910 0.912173
O33   O     O_2   0.085128 0.701101 0.751758 -0.593773
O34   O     O_R   0.006831 0.731160 0.641523 -0.680656
H25   H     H_    0.967286 0.744451 0.719905 0.384390
C78   C     C_2   0.921538 0.288463 0.338190 0.917824
O35   O     O_2   0.962563 0.238194 0.344569 -0.517911
O36   O     O_R   0.944554 0.334027 0.240972 -0.756514
H26   H     H_    0.993303 0.317756 0.177113 0.341381
C79   C     C_2   0.920958 0.712888 0.346233 0.912339
O37   O     O_2   0.915069 0.701113 0.248330 -0.593669
O38   O     O_R   0.993164 0.731357 0.358793 -0.680666
H27   H     H_    0.032737 0.744718 0.280479 0.384369
C80   C     C_2   0.078442 0.288460 0.661775 0.917823
O39   O     O_2   0.037413 0.238198 0.655374 -0.517899
O40   O     O_R   0.055423 0.334023 0.759003 -0.756523
H28   H     H_    0.006667 0.317757 0.822848 0.341398
C81   C     C_2   0.701115 0.148154 0.230605 0.944160
O41   O     O_2   0.757172 0.118430 0.161325 -0.568392
O42   O     O_R   0.632182 0.157364 0.201758 -0.730034
H29   H     H_    0.634820 0.136143 0.122669 0.329018
C82   C     C_2   0.304011 0.804182 0.747442 0.995269
O43   O     O_2   0.251915 0.783369 0.834608 -0.508957
O44   O     O_R   0.381700 0.801566 0.747221 -0.728282
H30   H     H_    0.386069 0.781589 0.823917 0.339479
C83   C     C_2   0.298776 0.148090 0.769391 0.944173
O45   O     O_2   0.242696 0.118351 0.838592 -0.568339
O46   O     O_R   0.367670 0.157296 0.798345 -0.730034
H31   H     H_    0.364986 0.136062 0.877441 0.328975
C84   C     C_2   0.695991 0.804190 0.252523 0.995229
O47   O     O_2   0.748084 0.783370 0.165356 -0.509014
O48   O     O_R   0.618304 0.801600 0.252729 -0.728262
H32   H     H_    0.613935 0.781640 0.176019 0.339486
C85   C     C_2   0.201073 0.648183 0.230593 0.944183
O49   O     O_2   0.257117 0.618472 0.161261 -0.568496
O50   O     O_R   0.132117 0.657399 0.201812 -0.730002
H33   H     H_    0.134725 0.636185 0.122729 0.329028
C86   C     C_2   0.804021 0.304187 0.747448 0.995243
O51   O     O_2   0.751929 0.283375 0.834620 -0.508962
O52   O     O_R   0.881711 0.301575 0.747218 -0.728287
H34   H     H_    0.886085 0.281602 0.823914 0.339521
C87   C     C_2   0.798773 0.648088 0.769390 0.944165
O53   O     O_2   0.742694 0.618348 0.838592 -0.568388
O54   O     O_R   0.867668 0.657297 0.798341 -0.730030
H35   H     H_    0.864986 0.636064 0.877437 0.328972
C88   C     C_2   0.195973 0.304187 0.252526 0.995224
O55   O     O_2   0.248061 0.283364 0.165355 -0.509002
O56   O     O_R   0.118284 0.301602 0.252744 -0.728280
H36   H     H_    0.113908 0.281644 0.176036 0.339505
C89   C     C_2   0.642891 0.347781 0.701690 0.894123
O57   O     O_2   0.590544 0.361579 0.659660 -0.555675
O58   O     O_R   0.639505 0.375076 0.812362 -0.693249
H37   H     H_    0.590041 0.403345 0.849929 0.356839
C90   C     C_2   0.320311 0.748028 0.210730 0.880563
O59   O     O_2   0.373596 0.709806 0.153578 -0.514687
O60   O     O_R   0.305532 0.811937 0.163501 -0.748302
H38   H     H_    0.343054 0.820841 0.081197 0.347416
C91   C     C_2   0.357100 0.347763 0.298312 0.894036
O61   O     O_2   0.409409 0.361616 0.340392 -0.555719
O62   O     O_R   0.360519 0.375005 0.187598 -0.693190
H39   H     H_    0.409974 0.403287 0.150047 0.356817
C92   C     C_2   0.679695 0.748083 0.789246 0.880443
O63   O     O_2   0.626403 0.709896 0.846471 -0.514715
O64   O     O_R   0.694514 0.812013 0.836382 -0.748324
H40   H     H_    0.657015 0.820958 0.918687 0.347403
C93   C     C_2   0.142890 0.847789 0.701661 0.894108
O65   O     O_2   0.090547 0.861587 0.659624 -0.555670
O66   O     O_R   0.139500 0.875085 0.812334 -0.693264
H41   H     H_    0.090036 0.903356 0.849896 0.356836
C94   C     C_2   0.820237 0.248121 0.210743 0.880484
O67   O     O_2   0.873502 0.209927 0.153457 -0.514708
O68   O     O_R   0.805436 0.312080 0.163688 -0.748405
H42   H     H_    0.842924 0.321039 0.081383 0.347430
C95   C     C_2   0.857107 0.847775 0.298338 0.894002
O69   O     O_2   0.909402 0.861642 0.340439 -0.555730
O70   O     O_R   0.860541 0.875004 0.187610 -0.693175
H43   H     H_    0.909995 0.903290 0.150067 0.356818
C96   C     C_2   0.179728 0.248118 0.789244 0.880410
O71   O     O_2   0.126443 0.209936 0.846517 -0.514709
O72   O     O_R   0.194553 0.312065 0.836322 -0.748356
H44   H     H_    0.157060 0.321028 0.918626 0.347409
N9    N     N_2   0.320010 0.996562 0.082162 -0.449632
H45   H     H_    0.294671 0.947374 0.097600 0.322747
C97   C     C_3   0.266875 0.053785 0.081453 -0.578463
H46   H     H_    0.218987 0.054944 0.167126 0.237704
H47   H     H_    0.239562 0.045495 0.011173 0.281278
H48   H     H_    0.297656 0.105273 0.070371 0.239722
N10   N     N_2   0.679995 0.996589 0.917845 -0.449706
H49   H     H_    0.705344 0.947406 0.902379 0.322707
C98   C     C_3   0.733120 0.053815 0.918580 -0.578134
H50   H     H_    0.780939 0.055054 0.832841 0.237628
H51   H     H_    0.760523 0.045463 0.988739 0.281310
H52   H     H_    0.702309 0.105291 0.929867 0.239754
N11   N     N_2   0.820009 0.496594 0.082165 -0.449643
H53   H     H_    0.794650 0.447415 0.097596 0.322722
C99   C     C_3   0.766894 0.553832 0.081458 -0.578525
H54   H     H_    0.719001 0.554993 0.167125 0.237724
H55   H     H_    0.739586 0.545558 0.011168 0.281296
H56   H     H_    0.797688 0.605313 0.070394 0.239732
N12   N     N_2   0.179997 0.496603 0.917850 -0.449737
H57   H     H_    0.205353 0.447423 0.902373 0.322684
C100  C     C_3   0.233117 0.553832 0.918597 -0.577982
H58   H     H_    0.280894 0.555120 0.832817 0.237580
H59   H     H_    0.260576 0.545441 0.988682 0.281329
H60   H     H_    0.202287 0.605300 0.930005 0.239763

loop_
_geom_bond_atom_site_label_1
_geom_bond_atom_site_label_2
_ccdc_geom_bond_type
C20   N12   S    
C6    C32   S    
O46   H31   S    
C68   O23   D    
C7    C29   S    
O20   H2    S    
C69   H7    S    
C91   O61   D    
C14   C18   A    
C30   C45   A    
O34   H25   S    
Cu3   O5    S    
O62   H39   S    
C1    O1    A    
C87   O54   S    
C81   O41   D    
C2    O10   A    
C42   C81   S    
C45   C86   S    
N8    H17   S    
C82   O43   D    
Cu2   N2    S    
C86   O51   D    
C10   C22   A    
C15   C19   A    
C15   N4    A    
N5    C69   S    
C59   C64   A    
C66   O19   D    
Cu1   O4    S    
C60   C63   A    
C39   C47   A    
C32   C47   A    
C73   O25   D    
C18   N10   S    
N7    C71   S    
O40   H28   S    
C28   C51   A    
C16   C67   S    
Cu1   O11   S    
C13   N2    A    
C39   C60   A    
C10   C17   A    
C1    O9    A    
O32   H24   S    
Cu2   O2    S    
N11   C99   S    
C67   O21   D    
Cu1   O1    S    
C93   O65   D    
C88   O56   S    
C83   O45   D    
C90   O60   S    
C97   H46   S    
C40   C48   A    
C44   C83   S    
C5    C31   S    
C52   C60   A    
C81   O42   S    
C25   C50   A    
C53   C61   A    
C27   C44   A    
C80   O39   D    
C7    O15   A    
C99   H54   S    
C34   C42   A    
N12   C100  S    
C55   C63   A    
C72   H20   S    
C69   H6    S    
C56   C64   A    
C35   C64   A    
C92   O63   D    
C31   C56   A    
C65   O18   S    
C36   C63   A    
C35   C43   A    
C98   H50   S    
C22   N1    A    
C37   C58   A    
C2    O2    A    
Cu4   N4    S    
C75   O29   D    
C70   H12   S    
C5    O13   A    
Cu4   O7    S    
O28   H22   S    
O36   H26   S    
O60   H38   S    
C68   O24   S    
C40   C59   A    
C84   O47   D    
N11   H53   S    
C53   C78   S    
Cu4   O13   S    
C91   O62   S    
C78   O36   S    
C90   O59   D    
C16   N3    A    
C33   C93   S    
C35   C95   S    
C77   O34   S    
O44   H30   S    
C46   C85   S    
C77   O33   D    
C51   C76   S    
Cu4   O6    S    
C66   O20   S    
C30   C53   A    
C11   C20   A    
C4    O4    A    
N7    H13   S    
O64   H40   S    
C50   C58   A    
C11   C12   A    
C57   C62   A    
C39   C91   S    
O72   H44   S    
N10   C98   S    
C67   O22   S    
C26   C49   A    
O18   H1    S    
C2    C28   S    
C33   C62   A    
C23   N8    S    
C54   C62   A    
C85   O50   S    
C95   O69   D    
C94   O67   D    
C99   H55   S    
C34   C61   A    
O56   H36   S    
C41   C82   S    
C8    O16   A    
C76   O32   S    
C37   C89   S    
C47   C88   S    
C52   C75   S    
Cu3   Cu4   S    
C14   C65   S    
C96   O71   D    
C50   C73   S    
C38   C57   A    
C75   O30   S    
C21   N6    S    
C4    C26   S    
O66   H41   S    
C4    O12   A    
C3    C25   S    
C16   C20   A    
C71   H15   S    
Cu1   O10   S    
C89   O58   S    
N9    H45   S    
C24   N7    S    
C38   C90   S    
O52   H34   S    
N6    C70   S    
C15   C68   S    
C71   H14   S    
C72   H19   S    
C98   H51   S    
C55   C80   S    
C84   O48   S    
C54   C77   S    
C14   N1    A    
C97   H47   S    
Cu1   Cu2   S    
C31   C48   A    
C100  H59   S    
C3    O11   A    
C74   O27   D    
Cu4   O16   S    
C69   H8    S    
C36   C44   A    
C1    C27   S    
C79   O38   S    
C5    O5    A    
O26   H21   S    
O38   H27   S    
N10   H49   S    
C3    O3    A    
C27   C52   A    
C7    O7    A    
C70   H10   S    
C9    C10   A    
C71   H16   S    
C6    O6    A    
O70   H43   S    
C49   C74   S    
C40   C92   S    
C93   O66   S    
Cu3   O14   S    
C32   C55   A    
N6    H9    S    
C23   N4    A    
Cu3   O8    S    
C100  H58   S    
C56   C79   S    
C34   C94   S    
C25   C42   A    
C49   C57   A    
C80   O40   S    
O30   H23   S    
C29   C46   A    
O50   H33   S    
C95   O70   S    
C22   N5    S    
N5    H5    S    
C12   C24   A    
C28   C43   A    
Cu3   O15   S    
C6    O14   A    
O22   H3    S    
C13   C17   A    
C21   N2    A    
C33   C41   A    
C19   N11   S    
C79   O37   D    
C94   O68   S    
C8    C30   S    
C48   C87   S    
C96   O72   S    
O48   H32   S    
C76   O31   D    
Cu2   O9    S    
C43   C84   S    
C9    C21   A    
C87   O53   D    
C72   H18   S    
C58   C61   A    
Cu1   N1    S    
Cu2   O3    S    
C12   C19   A    
C11   C23   A    
N9    C97   S    
C99   H56   S    
Cu3   N3    S    
O68   H42   S    
C88   O55   D    
C98   H52   S    
C38   C46   A    
O42   H29   S    
N8    C72   S    
Cu2   O12   S    
O58   H37   S    
C9    C18   A    
C86   O52   S    
C97   H48   S    
C51   C59   A    
C26   C41   A    
C82   O44   S    
C85   O49   D    
C29   C54   A    
C100  H60   S    
C13   C66   S    
O24   H4    S    
C8    O8    A    
C74   O28   S    
O54   H35   S    
C17   N9    S    
C70   H11   S    
C65   O17   D    
C78   O35   D    
C92   O64   S    
C37   C45   A    
C36   C96   S    
N12   H57   S    
C24   N3    A    
C89   O57   D    
C73   O26   S    
C83   O46   S    
