data_mof_unit_1165.cif
_audit_creation_date              2012-12-10T17:32:20-0500
_audit_creation_method            fapswitch 2.2
_symmetry_space_group_name_H-M    P1
_symmetry_Int_Tables_number       1
_space_group_crystal_system       triclinic
_cell_length_a                    12.31535
_cell_length_b                    13.191613
_cell_length_c                    15.064551
_cell_angle_alpha                 77.488357
_cell_angle_beta                  101.373395
_cell_angle_gamma                 116.62432
_cell_volume                      2121.80855354

loop_
_atom_site_label
_atom_site_type_symbol
_atom_type_description
_atom_site_fract_x
_atom_site_fract_y
_atom_site_fract_z
_atom_type_partial_charge
C1    C     C_R   0.854857 0.286588 0.507891 0.775707
C2    C     C_R   0.092512 0.485202 0.832265 -0.244458
C3    C     C_R   0.998707 0.498821 0.768176 -0.073302
C4    C     C_R   0.999431 0.499545 0.671225 0.810550
C5    C     C_R   0.904513 0.511575 0.797001 -0.251618
C6    C     C_R   0.274635 0.021488 0.377484 -0.129019
C7    C     C_R   0.227918 0.834565 0.467195 -0.043855
C8    C     C_R   0.815578 0.085021 0.566840 -0.182561
C9    C     C_R   0.736888 0.969947 0.584055 -0.148890
C10   C     C_R   0.613487 0.932342 0.551643 -0.153200
C11   C     C_R   0.566580 0.009467 0.497781 0.078195
C12   C     C_R   0.904419 0.511518 0.075468 0.106250
C13   C     C_R   0.650054 0.124013 0.471160 -0.010022
C14   C     C_R   0.439816 0.976374 0.468651 -0.004660
C15   C     C_R   0.399844 0.053851 0.406365 0.033473
C16   C     C_R   0.145115 0.713430 0.486426 0.798540
C17   C     C_R   0.485545 0.161381 0.372243 0.563484
C18   C     C_R   0.608758 0.195104 0.403095 -0.274475
C19   C     C_R   0.351170 0.868658 0.500497 -0.212375
C20   C     C_R   0.189139 0.912008 0.407224 -0.220494
C21   C     C_R   0.773054 0.163613 0.512555 -0.067068
C22   C     C_R   0.347536 0.329218 0.646546 -0.299388
C23   C     C_R   0.187290 0.471861 0.081585 -0.200316
C24   C     C_R   0.759036 0.645066 0.375673 0.081369
C25   C     C_R   0.662220 0.676529 0.348784 -0.245471
C26   C     C_R   0.558972 0.621858 0.395505 -0.181877
C27   C     C_R   0.551279 0.534464 0.470279 0.005863
C28   C     C_R   0.000218 0.499946 0.328810 0.809312
C29   C     C_R   0.653111 0.505286 0.495443 0.301857
C30   C     C_R   0.447078 0.475214 0.521069 -0.031025
C31   C     C_R   0.447326 0.388607 0.595503 0.179001
C32   C     C_R   0.547179 0.361687 0.618886 -0.288402
C33   C     C_R   0.647581 0.418715 0.570177 -0.191771
C34   C     C_R   0.186981 0.471721 0.989035 -0.209263
C35   C     C_R   0.341819 0.497652 0.501758 0.022331
C36   C     C_R   0.247331 0.355532 0.624110 0.068428
C37   C     C_R   0.905631 0.512008 0.167993 -0.240155
C38   C     C_R   0.999942 0.499201 0.231975 -0.076513
C39   C     C_R   0.093623 0.485633 0.203187 -0.238693
C40   C     C_R   0.093791 0.485075 0.110842 0.101593
C41   C     C_R   0.998895 0.498135 0.046687 0.062684
C42   C     C_R   0.093185 0.484819 0.924851 0.103500
C43   C     C_R   0.998586 0.498006 0.953632 0.064613
C44   C     C_R   0.903804 0.511248 0.889442 0.108929
C45   C     C_R   0.810107 0.524115 0.918741 -0.213381
C46   C     C_R   0.810429 0.524275 0.011305 -0.204880
Cu1   Cu    Cu3+1 0.098270 0.475420 0.521130 0.936307
Cu2   Cu    Cu3+1 0.901730 0.524580 0.478870 0.931011
F1    F     F_    0.450347 0.234579 0.308780 -0.678197
H1    H     H_    0.832850 0.522175 0.190024 0.163650
H2    H     H_    0.347131 0.262879 0.703519 0.139026
H3    H     H_    0.166711 0.475913 0.252445 0.161123
H4    H     H_    0.333600 0.561815 0.446413 0.121716
H5    H     H_    0.838802 0.688052 0.339049 0.122309
H6    H     H_    0.486869 0.649731 0.371748 0.133633
H7    H     H_    0.667234 0.743582 0.291516 0.145322
H8    H     H_    0.719098 0.391804 0.594099 0.207001
H9    H     H_    0.260603 0.461757 0.130233 0.161692
H10   H     H_    0.260080 0.461515 0.967630 0.147791
H11   H     H_    0.165491 0.475332 0.810250 0.156422
H12   H     H_    0.242864 0.079585 0.329948 0.189184
H13   H     H_    0.831633 0.521626 0.747689 0.158955
H14   H     H_    0.736792 0.534204 0.870086 0.145538
H15   H     H_    0.737343 0.534497 0.032713 0.149340
H16   H     H_    0.093724 0.886561 0.380586 0.150547
H17   H     H_    0.375369 0.808443 0.550969 0.144488
H18   H     H_    0.909568 0.112881 0.597911 0.150020
H19   H     H_    0.558124 0.841874 0.568208 0.123494
H20   H     H_    0.771023 0.909867 0.625245 0.140836
H21   H     H_    0.671213 0.276663 0.370703 0.199979
H22   H     H_    0.169968 0.310014 0.663201 0.121441
H23   H     H_    0.548008 0.295649 0.675869 0.155431
N1    N     N_R   0.246280 0.438190 0.553160 -0.180551
N2    N     N_R   0.754320 0.561190 0.447410 -0.206387
O1    O     O_R   0.972510 0.318130 0.526570 -0.580015
O2    O     O_R   0.806530 0.359650 0.490890 -0.601809
O3    O     O_R   0.082980 0.479210 0.647590 -0.587699
O4    O     O_R   0.917000 0.520730 0.611900 -0.604287
O5    O     O_R   0.193470 0.640350 0.509110 -0.589614
O6    O     O_R   0.027490 0.681870 0.473430 -0.586248
O7    O     O_R   0.083000 0.479270 0.388100 -0.585347
O8    O     O_R   0.917020 0.520790 0.352410 -0.594652

loop_
_geom_bond_atom_site_label_1
_geom_bond_atom_site_label_2
_ccdc_geom_bond_type
C18   H21   S    
C23   H9    S    
C1    C21   S    
C35   H4    S    
Cu2   O2    S    
C34   C42   A    
C25   H7    S    
Cu1   O5    S    
C26   H6    S    
C32   H23   S    
C45   C46   A    
C26   C27   A    
C37   C38   A    
C13   C18   A    
C6    H12   S    
C9    H20   S    
C30   C31   A    
C11   C14   A    
C2    H11   S    
C27   C29   A    
C24   H5    S    
C23   C40   A    
C29   C33   A    
C19   H17   S    
Cu2   O4    S    
C12   C37   A    
C6    C15   A    
Cu1   Cu2   S    
C8    C9    A    
C9    C10   A    
C36   H22   S    
C39   H3    S    
C27   C30   A    
C41   C43   A    
C8    C21   A    
C22   C31   A    
C28   O8    A    
C1    O1    A    
Cu2   N2    S    
C20   H16   S    
C24   C25   A    
Cu1   N1    S    
C12   C46   A    
C10   C11   A    
C17   F1    S    
C39   C40   A    
C29   N2    A    
C25   C26   A    
C45   H14   S    
C46   H15   S    
C16   O6    A    
C43   C44   A    
C4    O4    A    
C12   C41   A    
C31   C32   A    
C28   C38   S    
C23   C34   A    
C17   C18   A    
C13   C21   A    
C30   C35   A    
C7    C16   S    
C5    C44   A    
C7    C19   A    
C34   H10   S    
C42   C43   A    
Cu1   O3    S    
C3    C4    S    
C6    C20   A    
C44   C45   A    
C15   C17   A    
C35   N1    A    
C33   H8    S    
C28   O7    A    
C1    O2    A    
C14   C19   A    
C3    C5    A    
C10   H19   S    
C22   C36   A    
C16   O5    A    
C32   C33   A    
Cu2   O6    S    
C2    C3    A    
Cu1   O1    S    
C4    O3    A    
C37   H1    S    
C11   C13   A    
C24   N2    A    
C38   C39   A    
C2    C42   A    
Cu2   O8    S    
C5    H13   S    
Cu1   O7    S    
C36   N1    A    
C8    H18   S    
C7    C20   A    
C14   C15   A    
C40   C41   A    
C22   H2    S    
