data_mof_unit_2576.cif
_audit_creation_date              2013-03-05T16:12:46-0500
_audit_creation_method            fapswitch 2.2
_symmetry_space_group_name_H-M    P1
_symmetry_Int_Tables_number       1
_space_group_crystal_system       triclinic
_cell_length_a                    10.619679
_cell_length_b                    9.837557
_cell_length_c                    27.649475
_cell_angle_alpha                 89.969436
_cell_angle_beta                  89.446329
_cell_angle_gamma                 90.98387
_cell_volume                      2888.0261646

loop_
_atom_site_label
_atom_site_type_symbol
_atom_site_description
_atom_site_fract_x
_atom_site_fract_y
_atom_site_fract_z
_atom_type_partial_charge
O1    O     O_R   0.316770 0.614620 0.500000 -0.626323
O2    O     O_R   0.683230 0.385380 0.500000 -0.626440
O3    O     O_R   0.683230 0.614620 0.500000 -0.577483
O4    O     O_R   0.316770 0.385380 0.500000 -0.577684
C1    C     C_R   0.260392 0.498636 0.499945 1.034638
C2    C     C_R   0.739609 0.501368 0.500038 1.034454
O5    O     O_R   0.500030 0.614650 0.428760 -0.628052
O6    O     O_R   0.499970 0.385350 0.571240 -0.626569
O7    O     O_R   0.499970 0.614650 0.571240 -0.620433
O8    O     O_R   0.500030 0.385350 0.428760 -0.618575
C3    C     C_R   0.500072 0.500160 0.405922 0.965538
C4    C     C_R   0.499913 0.500105 0.594079 0.965550
Zn1   Zn    Zn3+2 0.500000 0.653120 0.500000 1.026164
Zn2   Zn    Zn3+2 0.500000 0.346880 0.500000 1.026660
C5    C     C_R   0.393047 0.539458 0.178332 0.546198
C6    C     C_R   0.608122 0.539264 0.821577 0.546219
O9    O     O_2   0.286229 0.552991 0.204644 -0.504374
O10   O     O_2   0.715243 0.553297 0.795212 -0.503192
N1    N     N_R   0.503637 0.512018 0.200882 -0.362680
N2    N     N_R   0.496704 0.511402 0.799085 -0.363078
C7    C     C_R   0.613666 0.496457 0.175663 0.530694
C8    C     C_R   0.386242 0.495584 0.824319 0.531002
C9    C     C_R   0.496159 0.628951 0.278323 -0.076818
C10   C     C_R   0.488147 0.382417 0.723541 -0.072539
C11   C     C_R   0.494372 0.626185 0.328458 -0.138606
C12   C     C_R   0.490088 0.379412 0.673213 -0.141471
C13   C     C_R   0.510901 0.380096 0.326809 -0.130750
C14   C     C_R   0.504622 0.626237 0.671535 -0.123761
C15   C     C_R   0.512886 0.383281 0.276481 -0.071437
C16   C     C_R   0.502970 0.628817 0.721672 -0.079505
C17   C     C_R   0.505144 0.507748 0.252350 0.289702
C18   C     C_R   0.494961 0.507172 0.747640 0.291401
C19   C     C_R   0.502714 0.539961 0.101309 -0.053150
C20   C     C_R   0.498553 0.539595 0.898619 -0.053141
C21   C     C_R   0.390409 0.553850 0.128051 -0.084794
C22   C     C_R   0.611259 0.553687 0.871852 -0.085178
C23   C     C_R   0.279377 0.587381 0.104458 -0.168963
C24   C     C_R   0.723319 0.587485 0.895409 -0.168975
C25   C     C_R   0.615491 0.510498 0.125299 -0.033017
C26   C     C_R   0.384865 0.509803 0.874667 -0.033272
C27   C     C_R   0.501489 0.501727 0.353085 0.001962
C28   C     C_R   0.498475 0.501510 0.646920 -0.001418
H1    H     H_    0.516763 0.282993 0.345051 0.168139
H2    H     H_    0.511195 0.721834 0.652149 0.168960
H3    H     H_    0.519475 0.289458 0.256224 0.150891
H4    H     H_    0.508405 0.725235 0.740491 0.148158
H5    H     H_    0.195024 0.608513 0.125284 0.231784
H6    H     H_    0.808297 0.608732 0.874557 0.231894
C29   C     C_R   0.384592 0.548551 0.975773 0.070211
C30   C     C_R   0.616973 0.548861 0.024148 0.070128
C31   C     C_R   0.616040 0.570257 0.973517 -0.064313
C32   C     C_R   0.386180 0.570155 0.026378 -0.064180
C33   C     C_R   0.499679 0.553814 0.949367 0.055738
C34   C     C_R   0.502038 0.554013 0.050547 0.055726
C35   C     C_R   0.273202 0.511861 0.951251 -0.102701
C36   C     C_R   0.727248 0.512482 0.048714 -0.103029
C37   C     C_R   0.273169 0.493954 0.901425 -0.096177
C38   C     C_R   0.726726 0.494787 0.098560 -0.096362
O11   O     O_2   0.278234 0.468080 0.800631 -0.504559
O12   O     O_2   0.720894 0.469446 0.199378 -0.505101
C39   C     C_R   0.276681 0.600679 0.054182 0.244731
C40   C     C_R   0.726458 0.600876 0.945677 0.244664
H7    H     H_    0.484974 0.282085 0.654986 0.168241
H8    H     H_    0.487039 0.721422 0.347835 0.165478
H9    H     H_    0.482326 0.288289 0.743820 0.150017
H10   H     H_    0.490103 0.725170 0.259506 0.148859
H11   H     H_    0.185285 0.466889 0.884023 0.210148
H12   H     H_    0.813791 0.467961 0.115993 0.210328
H13   H     H_    0.185850 0.490936 0.970377 0.192338
H14   H     H_    0.813971 0.491628 0.029614 0.192552
C41   C     C_R   0.065980 0.485310 0.455675 0.196763
C42   C     C_R   0.934029 0.514802 0.544289 0.196997
C43   C     C_R   0.935723 0.491630 0.455524 0.207603
C44   C     C_R   0.064275 0.508402 0.544443 0.207486
C45   C     C_R   0.872005 0.505613 0.499848 -0.357544
C46   C     C_R   0.127997 0.494409 0.500122 -0.357571
C47   C     C_R   0.572815 0.073247 0.531736 -0.047510
C48   C     C_R   0.427189 0.926750 0.468263 -0.047589
C49   C     C_R   0.427169 0.070674 0.468270 -0.042080
C50   C     C_R   0.572825 0.929322 0.531732 -0.042717
H15   H     H_    0.631041 0.128837 0.557097 0.148048
H16   H     H_    0.368974 0.871156 0.442897 0.146693
H17   H     H_    0.368928 0.124212 0.442920 0.165770
H18   H     H_    0.631055 0.875782 0.557086 0.164436
N3    N     N_R   0.500000 0.857200 0.500000 -0.093538
N4    N     N_R   0.500000 0.142800 0.500000 -0.094012
N5    N     N_R   0.168058 0.661510 0.033036 0.215210
O13   O     O_R   0.056683 0.639445 0.051781 -0.348553
O14   O     O_R   0.182407 0.755575 0.000223 -0.305536
N6    N     N_R   0.836975 0.661885 0.966762 0.215271
O15   O     O_R   0.947658 0.639863 0.948029 -0.348064
O16   O     O_R   0.825557 0.756054 0.999488 -0.305465
N7    N     N_R   0.135347 0.475511 0.410925 0.225930
O17   O     O_R   0.212518 0.376043 0.403846 -0.394258
O18   O     O_R   0.116369 0.561759 0.376165 -0.306049
N8    N     N_R   0.864671 0.524850 0.589030 0.226579
O19   O     O_R   0.787777 0.624581 0.596085 -0.395361
O20   O     O_R   0.883510 0.438674 0.623824 -0.306715
N9    N     N_R   0.868091 0.480855 0.410857 0.232647
O21   O     O_R   0.790051 0.574941 0.398500 -0.384552
O22   O     O_R   0.889381 0.380887 0.381256 -0.300866
N10   N     N_R   0.131902 0.519126 0.589111 0.233116
O23   O     O_R   0.209837 0.424948 0.601479 -0.385740
O24   O     O_R   0.110706 0.619136 0.618705 -0.299897

loop_
_geom_bond_atom_site_label_1
_geom_bond_atom_site_label_2
_geom_bond_distance
_ccdc_geom_bond_type
C16   C18   1.396153 A    
N5    O13   1.301488 A    
N7    O17   1.300803 A    
C13   C15   1.391832 A    
C50   H18   1.081852 S    
O3    C2    1.273842 A    
N1    C17   1.423905 S    
C2    C45   1.405867 S    
O5    C3    1.291528 A    
C19   C25   1.409055 A    
C44   C46   1.402146 A    
O1    C1    1.279418 A    
C9    H10   1.083058 S    
N1    C7    1.365828 A    
C10   C12   1.391825 A    
C32   C39   1.424177 A    
C41   C46   1.402058 A    
C5    O9    1.350226 S    
O7    Zn1   2.005570 S    
C4    C28   1.461020 S    
C39   N5    1.437695 S    
C13   C27   1.404701 A    
N8    O20   1.301129 A    
C23   H5    1.083426 S    
C24   H6    1.083429 S    
O3    Zn1   1.988735 S    
C6    N2    1.365698 A    
C44   N10   1.437679 S    
N7    O18   1.301138 A    
C43   C45   1.402173 A    
O2    C2    1.279450 A    
C31   C40   1.424235 A    
C37   H11   1.083386 S    
C42   C45   1.402003 A    
C5    C21   1.397983 A    
C32   C34   1.417072 A    
Zn2   N4    2.007649 S    
C7    O12   1.349767 S    
C42   C44   1.385733 A    
O8    Zn2   2.005576 S    
C11   C27   1.404176 A    
C8    O11   1.349768 S    
C41   C43   1.385796 A    
C48   C49   1.415870 A    
C29   C35   1.410816 A    
C25   C38   1.398352 A    
C14   H2    1.083094 S    
C30   C36   1.410811 A    
C15   H3    1.082827 S    
C31   C33   1.417111 A    
C11   H8    1.083104 S    
C9    C17   1.396429 A    
C5    N1    1.365918 A    
C12   H7    1.083016 S    
C10   C18   1.397923 A    
C50   N3    1.366107 A    
C48   H16   1.081837 S    
N6    O16   1.301651 A    
N9    O21   1.300683 A    
C7    C25   1.399239 A    
C47   H15   1.081819 S    
O6    C4    1.293827 A    
C29   C32   1.415587 A    
C8    C26   1.399149 A    
N8    O19   1.300799 A    
C30   C31   1.415689 A    
C30   C34   1.417769 A    
N10   O24   1.301178 A    
C35   H13   1.079997 S    
C10   H9    1.082816 S    
C48   N3    1.366273 A    
C38   H12   1.083384 S    
N9    O22   1.301180 A    
N2    C8    1.365607 A    
C47   N4    1.366283 A    
C36   H14   1.079984 S    
N5    O14   1.301641 A    
C20   C26   1.409119 A    
O1    Zn1   1.975967 S    
C22   C24   1.397353 A    
C12   C28   1.404768 A    
N2    C18   1.423370 S    
C47   C50   1.415869 A    
C19   C34   1.410363 A    
C43   N9    1.437701 S    
O6    Zn2   2.005969 S    
C26   C37   1.398308 A    
C21   C23   1.397373 A    
C16   H4    1.083055 S    
O4    C1    1.273869 A    
C23   C39   1.396812 A    
C41   N7    1.437993 S    
C1    C46   1.405854 S    
C35   C37   1.388981 A    
C14   C16   1.386433 A    
C15   C17   1.398162 A    
C6    C22   1.398048 A    
C49   H17   1.081836 S    
N6    O15   1.301507 A    
C29   C33   1.417754 A    
C40   N6    1.437680 S    
C14   C28   1.404291 A    
C19   C21   1.405852 A    
C36   C38   1.389033 A    
C3    C27   1.460934 S    
C20   C22   1.405910 A    
C9    C11   1.386405 A    
O4    Zn2   1.988735 S    
N10   O23   1.300676 A    
O2    Zn2   1.975967 S    
O7    C4    1.291422 A    
O8    C3    1.293676 A    
C42   N8    1.437938 S    
C13   H1    1.083007 S    
O5    Zn1   2.005974 S    
C20   C33   1.410347 A    
C6    O10   1.350207 S    
Zn1   N3    2.007649 S    
C49   N4    1.366121 A    
C24   C40   1.396873 A    
