data_mof_unit_2884.cif
_audit_creation_date              2012-12-10T20:42:41-0500
_audit_creation_method            fapswitch 2.2
_symmetry_space_group_name_H-M    P1
_symmetry_Int_Tables_number       1
_space_group_crystal_system       triclinic
_cell_length_a                    8.90186
_cell_length_b                    10.751762
_cell_length_c                    9.88263
_cell_angle_alpha                 90.305727
_cell_angle_beta                  90.262197
_cell_angle_gamma                 90.413395
_cell_volume                      945.825081362

loop_
_atom_site_label
_atom_site_type_symbol
_atom_type_description
_atom_site_fract_x
_atom_site_fract_y
_atom_site_fract_z
_atom_type_partial_charge
C1    C     C_R   0.502265 0.260039 0.498989 0.870775
C2    C     C_R   0.523158 0.932498 0.376581 -0.253342
C3    C     C_R   0.490529 0.870934 0.497331 -0.118248
C4    C     C_R   0.442522 0.936964 0.610069 0.046939
C5    C     C_3   0.494540 0.930875 0.754025 -0.251055
C6    C     C_3   0.493399 0.073347 0.752911 -0.118804
C7    C     C_R   0.404741 0.423205 0.070348 0.172966
C8    C     C_R   0.602913 0.567104 0.073409 -0.145570
C9    C     C_R   0.603448 0.567175 0.929663 0.016850
C10   C     C_R   0.403816 0.424216 0.927833 0.192972
C11   C     C_3   0.236370 0.426390 0.920893 -0.470756
C12   C     C_R   0.218773 0.499837 0.499792 0.929772
C13   C     C_3   0.236716 0.424426 0.074851 -0.140983
C14   C     C_R   0.499560 0.739599 0.500063 0.891695
C15   C     C_R   0.781239 0.500068 0.500212 0.933278
C16   C     C_1   0.065436 0.499851 0.499727 -0.202497
C17   C     C_1   0.934594 0.499940 0.500299 -0.183122
C18   C     C_R   0.443250 0.064433 0.607944 0.078177
C19   C     C_R   0.494997 0.127601 0.494144 -0.170633
C20   C     C_R   0.528056 0.060582 0.373876 -0.021273
H1    H     H_    0.188996 0.341151 0.872396 0.214055
H2    H     H_    0.189294 0.509598 0.122120 0.195243
H3    H     H_    0.554858 0.881175 0.286344 0.174552
H4    H     H_    0.609127 0.891913 0.764353 0.159939
H5    H     H_    0.606573 0.116616 0.765506 0.174228
H6    H     H_    0.683623 0.623187 0.129425 0.150025
H7    H     H_    0.193063 0.514997 0.878902 0.210662
N1    N     N_R   0.499010 0.499140 0.142800 -0.117562
N2    N     N_R   0.499010 0.499180 0.857150 -0.127492
O1    O     O_R   0.500020 0.316790 0.614690 -0.602572
O2    O     O_R   0.500000 0.316760 0.385350 -0.617278
O3    O     O_R   0.285350 0.500020 0.614650 -0.613492
O4    O     O_R   0.285340 0.499980 0.385310 -0.631975
O5    O     O_R   0.500000 0.683240 0.614650 -0.617971
O6    O     O_R   0.499980 0.683210 0.385310 -0.627233
O7    O     O_R   0.714660 0.500020 0.614690 -0.613232
O8    O     O_R   0.714650 0.499980 0.385350 -0.615559
Zn1   Zn    Zn3+2 0.500010 0.500020 0.653130 0.968212
Zn2   Zn    Zn3+2 0.499990 0.499980 0.346870 0.950762
C21   C     C_1   0.580481 0.117285 0.249927 0.199757
N3    N     N_1   0.622652 0.162251 0.150806 -0.216912
N4    N     N_3   0.173038 0.309253 0.129537 -0.425403
H8    H     H_    0.229786 0.232169 0.090424 0.192636
H9    H     H_    0.191580 0.309452 0.234055 0.215390
C22   C     C_1   0.383267 0.868812 0.841221 0.227490
N5    N     N_1   0.296238 0.819695 0.909704 -0.222133
N6    N     N_3   0.379834 0.132194 0.838522 -0.433686
H10   H     H_    0.405641 0.112564 0.939406 0.196708
H11   H     H_    0.272798 0.095867 0.817528 0.199946
C23   C     C_1   0.713662 0.641980 0.861351 0.221625
N7    N     N_1   0.803267 0.702107 0.807289 -0.225868

loop_
_geom_bond_atom_site_label_1
_geom_bond_atom_site_label_2
_ccdc_geom_bond_type
N2    Zn1   S    
C14   O5    A    
C7    C10   A    
O6    Zn2   S    
O3    Zn1   S    
C8    H6    S    
C11   H1    S    
C13   N4    S    
C19   C20   A    
C9    N2    A    
C4    C18   A    
O7    Zn1   S    
C2    C3    A    
O8    Zn2   S    
C22   N5    T    
C12   O3    A    
C11   C13   S    
C10   N2    A    
O4    Zn2   S    
C3    C14   S    
N4    H9    S    
C13   H2    S    
C6    C18   S    
C4    C5    S    
C1    O1    A    
C21   N3    T    
O2    Zn2   S    
C11   H7    S    
C23   N7    T    
C10   C11   S    
C5    C6    S    
C20   C21   S    
C1    C19   S    
C6    H5    S    
C16   C17   T    
N4    H8    S    
C9    C23   S    
C2    C20   A    
C3    C4    A    
C12   C16   S    
C15   O7    A    
C1    O2    A    
O1    Zn1   S    
C8    N1    A    
N6    H11   S    
C18   C19   A    
C6    N6    S    
C2    H3    S    
C15   C17   S    
C5    H4    S    
C7    C13   S    
N1    Zn2   S    
C12   O4    A    
O5    Zn1   S    
C5    C22   S    
C14   O6    A    
C15   O8    A    
C7    N1    A    
N6    H10   S    
C8    C9    A    
