data_mof_unit_3101.cif
_audit_creation_date              2012-12-11T14:14:56-0500
_audit_creation_method            fapswitch 2.2
_symmetry_space_group_name_H-M    P1
_symmetry_Int_Tables_number       1
_space_group_crystal_system       triclinic
_cell_length_a                    24.646989
_cell_length_b                    17.224696
_cell_length_c                    15.60276
_cell_angle_alpha                 89.990456
_cell_angle_beta                  128.93299
_cell_angle_gamma                 90.002653
_cell_volume                      5152.64559497

loop_
_atom_site_label
_atom_site_type_symbol
_atom_type_description
_atom_site_fract_x
_atom_site_fract_y
_atom_site_fract_z
_atom_type_partial_charge
Br1   Br    Br    0.289252 0.358320 0.658447 -0.534650
Br2   Br    Br    0.480241 0.345872 0.168079 -0.507987
Br3   Br    Br    0.019867 0.845974 0.832150 -0.507065
Br4   Br    Br    0.980214 0.845888 0.168030 -0.508243
Br5   Br    Br    0.711208 0.358820 0.342092 -0.534064
Br6   Br    Br    0.789144 0.858384 0.658311 -0.534901
Br7   Br    Br    0.211077 0.858694 0.341938 -0.533814
Br8   Br    Br    0.341296 0.664714 0.935264 -0.509679
Br9   Br    Br    0.659011 0.662829 0.065520 -0.508043
Br10  Br    Br    0.841559 0.165970 0.935887 -0.510635
Br11  Br    Br    0.159334 0.161567 0.066177 -0.507318
Br12  Br    Br    0.519893 0.346000 0.832203 -0.507295
C1    C     C_R   0.349902 0.361048 0.241721 -0.195707
C2    C     C_R   0.667490 0.649081 0.495886 0.077706
C3    C     C_3   0.185529 0.716889 0.134390 -0.737840
C4    C     C_3   0.241081 0.202216 0.827357 0.138645
C5    C     C_3   0.314321 0.217023 0.865494 -0.737160
C6    C     C_3   0.758724 0.202208 0.172394 0.139791
C7    C     C_3   0.685488 0.216853 0.134372 -0.738146
C8    C     C_R   0.832684 0.149389 0.504105 0.078171
C9    C     C_R   0.167541 0.149003 0.495901 0.077464
C10   C     C_R   0.351372 0.624907 0.131782 -0.330179
C11   C     C_R   0.648680 0.624679 0.868337 -0.330007
C12   C     C_R   0.851401 0.125019 0.131857 -0.330272
C13   C     C_R   0.148710 0.124591 0.868395 -0.329925
C14   C     C_2   0.667186 0.776535 0.435007 -0.086644
C15   C     C_2   0.332941 0.776584 0.565363 -0.086421
C16   C     C_2   0.167261 0.276534 0.435262 -0.086713
C17   C     C_R   0.650082 0.361028 0.758291 -0.195313
C18   C     C_2   0.833029 0.276614 0.565620 -0.086383
C19   C     C_2   0.703579 0.712787 0.491904 -0.109614
C20   C     C_2   0.296509 0.712984 0.508020 -0.110016
C21   C     C_2   0.203625 0.212716 0.491926 -0.109416
C22   C     C_2   0.796574 0.213093 0.508024 -0.110309
C23   C     C_2   0.201282 0.340208 0.425031 -0.219003
C24   C     C_2   0.798897 0.340365 0.575494 -0.217652
C25   C     C_2   0.701235 0.840243 0.424886 -0.218592
C26   C     C_2   0.298841 0.840308 0.575344 -0.218122
C27   C     C_2   0.263771 0.365092 0.513240 0.356417
C28   C     C_R   0.849909 0.861043 0.241729 -0.195652
C29   C     C_2   0.736447 0.365297 0.487151 0.355551
C30   C     C_2   0.763716 0.865125 0.513138 0.356165
C31   C     C_2   0.236383 0.865239 0.487040 0.355839
C32   C     C_2   0.646661 0.246894 0.858088 -0.182864
C33   C     C_2   0.353384 0.246865 0.142059 -0.183190
C34   C     C_2   0.146636 0.746868 0.858037 -0.182953
C35   C     C_2   0.853402 0.746840 0.142101 -0.183125
C36   C     C_2   0.692268 0.202109 0.861335 -0.099011
C37   C     C_2   0.307570 0.202180 0.138409 -0.100014
C38   C     C_2   0.192299 0.702111 0.861386 -0.099289
C39   C     C_R   0.150083 0.861028 0.758286 -0.195377
C40   C     C_2   0.807579 0.702190 0.138479 -0.099732
C41   C     C_2   0.304077 0.644977 0.011584 0.386476
C42   C     C_2   0.696034 0.644437 0.988648 0.385668
C43   C     C_2   0.804169 0.145337 0.011758 0.387039
C44   C     C_2   0.196142 0.144089 0.988810 0.385091
C45   C     C_R   0.614955 0.404152 0.407682 -0.088469
C46   C     C_R   0.385122 0.404080 0.592407 -0.088638
C47   C     C_R   0.114933 0.904136 0.407657 -0.088533
C48   C     C_R   0.885102 0.904091 0.592384 -0.088572
C49   C     C_2   0.234448 0.646656 0.952396 -0.212082
C50   C     C_R   0.393996 0.618171 0.593615 -0.120401
C51   C     C_2   0.765633 0.646588 0.047628 -0.211401
C52   C     C_2   0.734521 0.146740 0.952422 -0.212497
C53   C     C_2   0.265715 0.146507 0.047627 -0.210953
C54   C     C_R   0.687516 0.398820 0.588222 0.496140
C55   C     C_R   0.312508 0.398766 0.411866 0.496076
C56   C     C_R   0.187510 0.898805 0.588198 0.496140
C57   C     C_R   0.812503 0.898777 0.411842 0.496073
C58   C     C_R   0.563202 0.361553 0.766127 0.335472
C59   C     C_R   0.436805 0.361537 0.233930 0.335205
C60   C     C_R   0.063199 0.861546 0.766114 0.335690
C61   C     C_R   0.606081 0.618031 0.406380 -0.120111
C62   C     C_R   0.936809 0.861534 0.233934 0.334979
C63   C     C_R   0.379883 0.319236 0.205533 0.050541
C64   C     C_R   0.620100 0.319228 0.794499 0.050034
C65   C     C_R   0.879896 0.819226 0.205551 0.050587
C66   C     C_R   0.120100 0.819222 0.794489 0.050022
C67   C     C_R   0.682528 0.386750 0.495841 -0.137126
C68   C     C_R   0.317571 0.386631 0.504324 -0.137205
C69   C     C_R   0.182500 0.886719 0.495795 -0.137122
C70   C     C_R   0.817547 0.886653 0.504281 -0.137213
C71   C     C_R   0.319908 0.619916 0.411201 -0.169821
C72   C     C_R   0.894045 0.118247 0.593625 -0.120711
C73   C     C_R   0.680136 0.619821 0.588787 -0.169749
C74   C     C_R   0.819936 0.119966 0.411208 -0.169799
C75   C     C_R   0.180156 0.119783 0.588794 -0.169773
C76   C     C_R   0.422628 0.609538 0.197894 0.540643
C77   C     C_R   0.577401 0.609403 0.802175 0.540242
C78   C     C_R   0.922641 0.109601 0.197927 0.541175
C79   C     C_R   0.077410 0.109362 0.802202 0.539727
C80   C     C_R   0.666309 0.609121 0.800500 0.432744
C81   C     C_R   0.333704 0.609201 0.199534 0.432438
C82   C     C_R   0.166307 0.109111 0.800498 0.433039
C83   C     C_R   0.106118 0.117976 0.406389 -0.119799
C84   C     C_R   0.833706 0.109226 0.199548 0.432181
C85   C     C_3   0.771474 0.465168 0.744311 0.198731
C86   C     C_3   0.838820 0.456206 0.861653 -0.809758
C87   C     C_3   0.228528 0.465226 0.255885 0.199594
C88   C     C_3   0.161082 0.456368 0.138630 -0.811934
C89   C     C_3   0.271484 0.965149 0.744276 0.198891
C90   C     C_3   0.338853 0.956189 0.861594 -0.810302
C91   C     C_3   0.728541 0.965258 0.255871 0.199420
C92   C     C_3   0.661100 0.956415 0.138607 -0.811367
C93   C     C_3   0.476082 0.711191 0.187680 0.252835
C94   C     C_R   0.332617 0.649281 0.504092 0.077926
C95   C     C_3   0.517542 0.738376 0.151098 -0.770126
C96   C     C_3   0.524105 0.710511 0.813804 0.250964
C97   C     C_3   0.482625 0.736932 0.850664 -0.766812
C98   C     C_3   0.976149 0.211804 0.188920 0.254395
C99   C     C_3   0.017575 0.239724 0.152577 -0.773374
C100  C     C_3   0.024194 0.209878 0.815165 0.249207
C101  C     C_3   0.982700 0.235498 0.852344 -0.763415
C102  C     C_3   0.741154 0.702179 0.827448 0.138970
C103  C     C_3   0.814405 0.716926 0.865589 -0.737410
C104  C     C_3   0.258765 0.702207 0.172435 0.139500
H1    H     H_    0.302516 0.346573 0.227407 0.196362
H2    H     H_    0.819780 0.353286 0.658723 0.188105
H3    H     H_    0.646692 0.181987 0.059786 0.238724
H4    H     H_    0.680303 0.853128 0.341613 0.188244
H5    H     H_    0.319740 0.853195 0.658590 0.188182
H6    H     H_    0.210197 0.622462 0.984794 0.185338
H7    H     H_    0.789908 0.622761 0.015097 0.185370
H8    H     H_    0.710267 0.122311 0.984700 0.185320
H9    H     H_    0.289976 0.122921 0.014957 0.185405
H10   H     H_    0.705980 0.215569 0.809199 0.193358
H11   H     H_    0.293475 0.215861 0.189983 0.193146
H12   H     H_    0.206112 0.715636 0.809400 0.193306
H13   H     H_    0.697478 0.346527 0.772656 0.197137
H14   H     H_    0.793524 0.715871 0.190101 0.193185
H15   H     H_    0.632132 0.232988 0.908948 0.175507
H16   H     H_    0.368242 0.232769 0.091684 0.175456
H17   H     H_    0.132016 0.732905 0.908761 0.175479
H18   H     H_    0.868246 0.732730 0.091716 0.175480
H19   H     H_    0.597751 0.417768 0.326701 0.222060
H20   H     H_    0.402348 0.417702 0.673390 0.222143
H21   H     H_    0.097723 0.917758 0.326675 0.222037
H22   H     H_    0.902320 0.917708 0.673364 0.222164
H23   H     H_    0.271859 0.624516 0.329274 0.159918
H24   H     H_    0.802523 0.846566 0.227414 0.196524
H25   H     H_    0.728175 0.624426 0.670729 0.159960
H26   H     H_    0.771880 0.124563 0.329290 0.159861
H27   H     H_    0.228192 0.124387 0.670740 0.160048
H28   H     H_    0.412752 0.619262 0.676951 0.180699
H29   H     H_    0.587326 0.619091 0.323030 0.181094
H30   H     H_    0.912795 0.119334 0.676947 0.180385
H31   H     H_    0.087357 0.119051 0.323026 0.181380
H32   H     H_    0.611258 0.779225 0.387942 0.130474
H33   H     H_    0.388927 0.779088 0.612975 0.130027
H34   H     H_    0.111370 0.279318 0.388506 0.130829
H35   H     H_    0.197474 0.846530 0.772636 0.196930
H36   H     H_    0.889049 0.279010 0.613557 0.129642
H37   H     H_    0.732954 0.494044 0.748228 0.162462
H38   H     H_    0.782651 0.501381 0.697883 0.101340
H39   H     H_    0.879095 0.427539 0.861407 0.244884
H40   H     H_    0.858172 0.514256 0.900732 0.226751
H41   H     H_    0.829439 0.420508 0.910516 0.255170
H42   H     H_    0.267007 0.494047 0.251818 0.162432
H43   H     H_    0.217486 0.501456 0.302462 0.101376
H44   H     H_    0.120844 0.427773 0.139037 0.245177
H45   H     H_    0.141765 0.514446 0.099602 0.227125
H46   H     H_    0.759794 0.709466 0.539664 0.165324
H47   H     H_    0.170320 0.420644 0.089620 0.254505
H48   H     H_    0.232979 0.994019 0.748236 0.162416
H49   H     H_    0.282638 0.001368 0.697823 0.101373
H50   H     H_    0.379115 0.927538 0.861304 0.244988
H51   H     H_    0.358204 0.014237 0.900678 0.226828
H52   H     H_    0.329501 0.920475 0.910482 0.254997
H53   H     H_    0.767027 0.994078 0.251822 0.162470
H54   H     H_    0.717499 0.001483 0.302451 0.101342
H55   H     H_    0.620857 0.927811 0.138994 0.245076
H56   H     H_    0.641786 0.014499 0.099599 0.227038
H57   H     H_    0.240250 0.709807 0.459804 0.165403
H58   H     H_    0.670341 0.920707 0.089592 0.254683
H59   H     H_    0.504557 0.726957 0.275398 0.049268
H60   H     H_    0.426122 0.744156 0.138705 0.117652
H61   H     H_    0.487574 0.726554 0.062087 0.285924
H62   H     H_    0.527114 0.801823 0.165150 0.185883
H63   H     H_    0.568492 0.708147 0.197596 0.255262
H64   H     H_    0.495668 0.726940 0.726306 0.049068
H65   H     H_    0.574098 0.743405 0.863254 0.117904
H66   H     H_    0.512241 0.723697 0.939239 0.286968
H67   H     H_    0.473702 0.800561 0.838468 0.185706
H68   H     H_    0.259814 0.209325 0.539446 0.165243
H69   H     H_    0.431354 0.707304 0.802957 0.254474
H70   H     H_    0.004642 0.227026 0.276819 0.049492
H71   H     H_    0.926183 0.244760 0.140320 0.117248
H72   H     H_    0.987238 0.229287 0.063159 0.284863
H73   H     H_    0.027793 0.302973 0.168451 0.186053
H74   H     H_    0.068196 0.208919 0.197858 0.256162
H75   H     H_    0.995763 0.226911 0.727879 0.048825
H76   H     H_    0.074186 0.242764 0.865008 0.118385
H77   H     H_    0.011875 0.220615 0.940347 0.288409
H78   H     H_    0.974627 0.299329 0.842404 0.185653
H79   H     H_    0.740292 0.209997 0.459553 0.165504
H80   H     H_    0.931029 0.206666 0.803163 0.253346
H81   H     H_    0.736110 0.733829 0.884209 0.116309
H82   H     H_    0.702550 0.727607 0.743801 0.141030
H83   H     H_    0.818064 0.700755 0.800600 0.249480
H84   H     H_    0.827523 0.779460 0.884939 0.266179
H85   H     H_    0.853216 0.682152 0.940291 0.238535
H86   H     H_    0.263728 0.733854 0.115576 0.116515
H87   H     H_    0.297381 0.727683 0.256031 0.140977
H88   H     H_    0.181947 0.700776 0.199484 0.249284
H89   H     H_    0.172334 0.779402 0.114901 0.266330
H90   H     H_    0.180340 0.353046 0.341741 0.188317
H91   H     H_    0.146725 0.682038 0.059793 0.238638
H92   H     H_    0.236014 0.233853 0.884104 0.116267
H93   H     H_    0.202463 0.227616 0.743695 0.141107
H94   H     H_    0.317981 0.200888 0.800493 0.249576
H95   H     H_    0.327413 0.279560 0.884858 0.266200
H96   H     H_    0.353152 0.182252 0.940187 0.238487
H97   H     H_    0.763663 0.233862 0.115516 0.116543
H98   H     H_    0.797338 0.227702 0.255978 0.140914
H99   H     H_    0.681921 0.200734 0.199480 0.249212
H100  H     H_    0.672270 0.279361 0.114871 0.266292
N1    N     N_R   0.389060 0.424180 0.294540 -0.072304
N2    N     N_R   0.374530 0.423490 0.443400 -0.102274
N3    N     N_R   0.125470 0.923490 0.556600 -0.102249
N4    N     N_R   0.874530 0.923490 0.443400 -0.102296
N5    N     N_R   0.555250 0.423100 0.705420 -0.079026
N6    N     N_R   0.444750 0.423100 0.294580 -0.079071
N7    N     N_R   0.055250 0.923100 0.705420 -0.078929
N8    N     N_R   0.944750 0.923100 0.294580 -0.079152
N9    N     N_R   0.375210 0.577180 0.443400 -0.058358
N10   N     N_R   0.624790 0.577180 0.556600 -0.058393
N11   N     N_R   0.875210 0.077180 0.443400 -0.058359
N12   N     N_R   0.610940 0.424180 0.705460 -0.072392
N13   N     N_R   0.124790 0.077180 0.556600 -0.058391
N14   N     N_R   0.445430 0.577570 0.294580 -0.132661
N15   N     N_R   0.554570 0.577570 0.705420 -0.132430
N16   N     N_R   0.945430 0.077570 0.294580 -0.132895
N17   N     N_R   0.054570 0.077570 0.705420 -0.132158
N18   N     N_R   0.611620 0.576500 0.705460 -0.120870
N19   N     N_R   0.388380 0.576500 0.294540 -0.120835
N20   N     N_R   0.111620 0.076500 0.705460 -0.120850
N21   N     N_R   0.888380 0.076500 0.294540 -0.120848
N22   N     N_R   0.421010 0.576890 0.556640 -0.050276
N23   N     N_R   0.889060 0.924180 0.294540 -0.072308
N24   N     N_R   0.578990 0.576890 0.443360 -0.050440
N25   N     N_R   0.921010 0.076890 0.556640 -0.050150
N26   N     N_R   0.078990 0.076890 0.443360 -0.050557
N27   N     N_R   0.110940 0.924180 0.705460 -0.072385
N28   N     N_R   0.579670 0.423790 0.443360 -0.079054
N29   N     N_R   0.420330 0.423790 0.556640 -0.079115
N30   N     N_R   0.079670 0.923790 0.443360 -0.079060
N31   N     N_R   0.920330 0.923790 0.556640 -0.079113
N32   N     N_R   0.625470 0.423490 0.556600 -0.102265
Ni1   Ni    Ni4+2 0.383200 0.500680 0.370150 0.210342
Ni2   Ni    Ni4+2 0.616800 0.500680 0.629850 0.210413
Ni3   Ni    Ni4+2 0.883200 0.000680 0.370150 0.210307
Ni4   Ni    Ni4+2 0.116800 0.000680 0.629850 0.210450
Ni5   Ni    Ni4+2 0.512440 0.500680 0.370150 0.256698
Ni6   Ni    Ni4+2 0.487560 0.500680 0.629850 0.257051
Ni7   Ni    Ni4+2 0.012440 0.000680 0.370150 0.256348
Ni8   Ni    Ni4+2 0.987560 0.000680 0.629850 0.257407
O1    O     O_3   0.747458 0.391393 0.696002 -0.667446
O2    O     O_3   0.269598 0.621117 0.173829 -0.665292
O3    O     O_3   0.230370 0.121107 0.826103 -0.665392
O4    O     O_3   0.769588 0.121123 0.173812 -0.665242
O5    O     O_3   0.252509 0.391415 0.304124 -0.667763
O6    O     O_3   0.247463 0.891375 0.695967 -0.667522
O7    O     O_3   0.752513 0.891440 0.304091 -0.667691
O8    O     O_3   0.465466 0.629664 0.173082 -0.580233
O9    O     O_3   0.534642 0.628934 0.827349 -0.579987
O10   O     O_3   0.965546 0.130308 0.173461 -0.580483
O11   O     O_3   0.034729 0.128275 0.827736 -0.579881
O12   O     O_3   0.730392 0.621079 0.826156 -0.665330

loop_
_geom_bond_atom_site_label_1
_geom_bond_atom_site_label_2
_ccdc_geom_bond_type
C97   H66   S    
C22   H79   S    
C45   H19   S    
C76   N14   A    
C9    C75   A    
C16   H34   S    
C89   C90   S    
N9    N22   A    
C87   H43   S    
C51   H7    S    
C57   N4    A    
C101  H78   S    
C45   C67   A    
C30   C70   S    
C13   C44   S    
C2    C19   S    
C5    H96   S    
C82   N20   A    
N18   Ni2   S    
C71   H23   S    
C3    H88   S    
C85   O1    S    
C57   O7    S    
C17   C64   A    
C54   N32   A    
C81   N19   A    
C12   C43   S    
C54   C67   A    
C93   C95   S    
N5    N12   A    
C76   O8    S    
N24   Ni5   S    
C90   H51   S    
C37   C53   S    
C74   N11   A    
N22   Ni6   S    
C56   C69   A    
C4    H93   S    
C78   O10   S    
C7    H100  S    
C28   N23   A    
C12   C84   A    
C36   C52   S    
C9    C21   S    
C42   C51   D    
C47   H21   S    
C15   C26   S    
C44   C53   D    
C62   N8    A    
C18   H36   S    
N1    N6    A    
C58   N5    A    
C96   C97   S    
C96   H64   S    
C6    C7    S    
C84   N21   A    
C25   C30   D    
C32   C64   S    
N15   Ni6   S    
C98   C99   S    
C60   C66   A    
C57   C70   A    
C91   C92   S    
N17   Ni8   S    
C86   H39   S    
C41   C49   D    
N7    Ni8   S    
C17   H13   S    
C99   H74   S    
C1    C63   A    
C16   C23   S    
N7    N27   A    
C4    C5    S    
C93   H60   S    
C8    C74   A    
C91   H54   S    
N9    Ni1   S    
C11   C77   A    
C88   H45   S    
C85   H37   S    
C47   N30   A    
C24   H2    S    
Br4   C62   S    
C11   C80   A    
C46   C68   A    
C92   H56   S    
C8    C22   S    
N31   Ni8   S    
N14   Ni5   S    
C36   H10   S    
C19   H46   S    
C7    H3    S    
C14   C19   D    
C15   H33   S    
C59   N6    A    
C20   C94   S    
C89   O6    S    
C95   H61   S    
C101  H77   S    
N26   Ni7   S    
C78   N16   A    
C24   C29   D    
C6    H98   S    
N16   Ni7   S    
C48   C70   A    
N20   Ni4   S    
C79   O11   S    
C56   O6    S    
C100  C101  S    
C55   O5    S    
N32   Ni2   S    
C85   C86   S    
C10   C41   S    
N12   Ni2   S    
C55   N2    A    
C37   H11   S    
C86   H40   S    
C98   H71   S    
C13   C79   A    
N10   N24   A    
C18   C22   D    
N23   Ni3   S    
C26   H5    S    
C2    C61   A    
C56   N3    A    
C83   H31   S    
C61   N24   A    
C5    H94   S    
C73   H25   S    
C34   C66   S    
C4    O3    S    
N30   Ni7   S    
C92   H58   S    
C9    C83   A    
C5    H95   S    
C75   N13   A    
C60   N7    A    
C103  H83   S    
C102  H81   S    
N28   N32   A    
C61   H29   S    
C49   H6    S    
C32   H15   S    
C53   H9    S    
N28   Ni5   S    
C23   C27   D    
C14   H32   S    
N2    N29   A    
C29   C67   S    
C102  O12   S    
C100  H76   S    
N17   N20   A    
C88   H44   S    
C23   H90   S    
C104  H86   S    
C82   O3    S    
C86   H41   S    
C33   C37   D    
C84   O4    S    
C43   C52   D    
C62   C65   A    
C21   H68   S    
C25   H4    S    
C99   H72   S    
N3    N30   A    
N14   N19   A    
N25   Ni8   S    
C3    H89   S    
C85   H38   S    
C77   N15   A    
N19   Ni1   S    
C89   H49   S    
Br10  C43   S    
C100  O11   S    
C72   N25   A    
C33   H16   S    
C92   H55   S    
C96   H65   S    
N4    N31   A    
C16   C21   D    
C99   H73   S    
C10   C76   A    
N3    Ni4   S    
C8    C72   A    
C95   H62   S    
Br6   C30   S    
N16   N21   A    
C31   C69   S    
C10   C81   A    
C88   H47   S    
C6    H97   S    
C38   H12   S    
C35   C65   S    
C58   C64   A    
Br2   C59   S    
N1    Ni1   S    
C98   O10   S    
C104  H87   S    
C104  O2    S    
C74   H26   S    
C11   C42   S    
N11   Ni3   S    
C71   N9    A    
N6    Ni5   S    
Br7   C31   S    
N10   Ni2   S    
Br5   C29   S    
N5    Ni6   S    
C98   H70   S    
C90   H52   S    
N27   Ni4   S    
C95   H63   S    
C15   C20   D    
C28   C65   A    
C6    O4    S    
C46   N29   A    
C39   N27   A    
C55   C68   A    
C47   C69   A    
C2    C73   A    
C50   H28   S    
C4    H92   S    
C40   C51   S    
C12   C78   A    
Br8   C41   S    
N11   N25   A    
C1    H1    S    
C71   C94   A    
C14   C25   S    
C102  C103  S    
C35   C40   D    
C50   C94   A    
C72   H30   S    
C45   N28   A    
C97   H69   S    
C103  H84   S    
C34   C38   D    
C54   O1    S    
C50   N22   A    
C87   C88   S    
C18   C24   S    
C33   C63   S    
C40   H14   S    
C27   C68   S    
Br3   C60   S    
C39   C66   A    
C89   H48   S    
C26   C31   D    
C35   H18   S    
C52   H8    S    
C34   H17   S    
C59   C63   A    
N13   N26   A    
C73   N10   A    
C97   H67   S    
N4    Ni3   S    
C20   H57   S    
C93   O8    S    
C103  H85   S    
C80   N18   A    
C101  H80   S    
C28   H24   S    
N15   N18   A    
C77   O9    S    
Br12  C58   S    
N8    Ni7   S    
C96   O9    S    
N8    N23   A    
N13   Ni4   S    
C83   N26   A    
Br1   C27   S    
N29   Ni6   S    
C39   H35   S    
C81   O2    S    
C80   O12   S    
C13   C82   A    
C75   H27   S    
N2    Ni1   S    
C87   O5    S    
C48   N31   A    
C90   H50   S    
C102  H82   S    
C87   H42   S    
C79   N17   A    
C91   H53   S    
C38   C49   S    
C91   O7    S    
C3    C104  S    
N21   Ni3   S    
Br9   C42   S    
C17   N12   A    
C1    N1    A    
C3    H91   S    
Br11  C44   S    
C32   C36   D    
C7    H99   S    
C48   H22   S    
C100  H75   S    
C93   H59   S    
C46   H20   S    
