data_mof_unit_2190.cif
_audit_creation_date              2012-12-11T16:31:34-0500
_audit_creation_method            fapswitch 2.2
_symmetry_space_group_name_H-M    P1
_symmetry_Int_Tables_number       1
_space_group_crystal_system       triclinic
_cell_length_a                    6.949472
_cell_length_b                    18.262294
_cell_length_c                    20.184359
_cell_angle_alpha                 68.316645
_cell_angle_beta                  90.562018
_cell_angle_gamma                 90.97495
_cell_volume                      2380.03845988

loop_
_atom_site_label
_atom_site_type_symbol
_atom_type_description
_atom_site_fract_x
_atom_site_fract_y
_atom_site_fract_z
_atom_type_partial_charge
O1    O     O_R   0.488990 0.443920 0.942160 -0.536262
O2    O     O_R   0.823840 0.406530 0.087600 -0.537514
O3    O     O_R   0.999650 0.556080 0.057840 -0.538975
C1    C     C_R   0.654922 0.383674 0.115139 0.692727
O4    O     O_R   0.818390 0.434590 0.944530 -0.537239
O5    O     O_R   0.994160 0.584350 0.913750 -0.535624
C2    C     C_R   0.648665 0.420413 0.924165 0.728271
O6    O     O_R   0.494480 0.415650 0.086250 -0.536401
O7    O     O_3   0.662600 0.549100 0.990070 -0.369042
V1    V     V_3+5 0.935320 0.490890 0.001840 1.434877
O8    O     O_R   0.324240 0.593470 0.912400 -0.540119
C3    C     C_R   0.155815 0.616946 0.885379 0.692196
O9    O     O_R   0.329690 0.565410 0.055470 -0.538357
C4    C     C_R   0.162199 0.579640 0.075839 0.720466
V2    V     V_3+5 0.435990 0.509110 0.998160 1.429199
O10   O     O_3   0.158840 0.450900 0.009930 -0.364061
C5    C     C_3   0.020671 0.661825 0.277503 0.044617
C6    C     C_3   0.341145 0.723448 0.231798 -0.397573
C7    C     C_3   0.333225 0.771926 0.280919 -0.340847
H1    H     H_    0.069260 0.677150 0.379521 0.119318
H2    H     H_    0.100334 0.606989 0.307683 0.120689
H3    H     H_    0.431355 0.755579 0.184334 0.148825
H4    H     H_    0.410007 0.665957 0.261284 0.147245
H5    H     H_    0.402175 0.738116 0.333071 0.142026
H6    H     H_    0.417454 0.827726 0.256352 0.143348
C8    C     C_1   0.109899 0.874920 0.378250 -0.179558
C9    C     C_3   0.136571 0.708258 0.207946 0.290291
C10   C     C_3   0.008992 0.711688 0.325936 -0.316243
C11   C     C_3   0.122260 0.790682 0.292707 0.261981
C12   C     C_3   0.031682 0.837255 0.218804 -0.334735
C13   C     C_3   0.044828 0.790157 0.168643 -0.319446
C14   C     C_1   0.115213 0.836978 0.339910 -0.095567
C15   C     C_1   0.148556 0.663003 0.159815 -0.086231
C16   C     C_1   0.155931 0.625422 0.121200 -0.195925
H7    H     H_    0.899625 0.783710 0.147778 0.139917
H8    H     H_    0.133785 0.824415 0.121443 0.132253
H9    H     H_    0.878118 0.849498 0.225347 0.138324
H10   H     H_    0.856845 0.724333 0.334344 0.149663
H11   H     H_    0.107064 0.895164 0.193877 0.134510
H12   H     H_    0.100134 0.515150 0.694832 0.129379
C17   C     C_R   0.192757 0.778589 0.875703 -0.135926
C18   C     C_R   0.210202 0.855756 0.872972 -0.120945
C19   C     C_R   0.198044 0.918498 0.808005 -0.121817
C20   C     C_R   0.167688 0.904547 0.745312 -0.142668
C21   C     C_R   0.149756 0.826739 0.746235 0.056095
C22   C     C_R   0.163214 0.762589 0.812869 0.073710
C23   C     C_R   0.115691 0.812606 0.682364 -0.191887
C24   C     C_R   0.095152 0.733315 0.685338 -0.025992
C25   C     C_R   0.121136 0.669551 0.752053 0.019690
C26   C     C_R   0.147763 0.684173 0.815747 -0.157148
C27   C     C_R   0.049456 0.714366 0.624208 0.432389
C28   C     C_R   0.060225 0.636141 0.628154 -0.187566
C29   C     C_R   0.095928 0.575336 0.692422 -0.207155
C30   C     C_R   0.121363 0.591300 0.753997 -0.142891
H13   H     H_    0.203175 0.731736 0.927540 0.090388
H14   H     H_    0.233187 0.866902 0.921560 0.105140
H15   H     H_    0.211439 0.978382 0.806154 0.103278
H16   H     H_    0.157317 0.955565 0.696347 0.098870
H17   H     H_    0.035673 0.622342 0.580959 0.123126
H18   H     H_    0.144884 0.541436 0.803025 0.115168
H19   H     H_    0.940353 0.455639 0.306465 0.115538
C31   C     C_R   0.488221 0.233566 0.124475 -0.194238
C32   C     C_R   0.408890 0.162148 0.126051 0.525590
C33   C     C_R   0.392911 0.098993 0.191895 -0.228450
C34   C     C_R   0.463050 0.106451 0.253997 -0.218489
C35   C     C_R   0.547047 0.177933 0.252994 0.073448
C36   C     C_R   0.558986 0.242957 0.186924 -0.002493
C37   C     C_R   0.621248 0.184861 0.316242 -0.164700
C38   C     C_R   0.707608 0.256955 0.313258 0.066948
C39   C     C_R   0.719444 0.322120 0.247134 0.070654
C40   C     C_R   0.644497 0.315242 0.183970 -0.157481
C41   C     C_R   0.779655 0.266184 0.375628 -0.134420
C42   C     C_R   0.863437 0.337120 0.372787 -0.121502
C43   C     C_R   0.875665 0.400594 0.308287 -0.127565
C44   C     C_R   0.803592 0.393717 0.246150 -0.145469
H20   H     H_    0.496553 0.281206 0.073038 0.126121
H21   H     H_    0.325562 0.043730 0.195752 0.117213
H22   H     H_    0.450672 0.055193 0.302718 0.131505
H23   H     H_    0.770955 0.219094 0.427365 0.103507
H24   H     H_    0.918136 0.342982 0.421025 0.111496
H25   H     H_    0.813794 0.445348 0.197647 0.108644
O11   O     O_R   0.770890 0.084490 0.414040 -0.538399
O12   O     O_R   0.445980 0.065450 0.555510 -0.538861
O13   O     O_R   0.270670 0.915620 0.586180 -0.543659
C45   C     C_R   0.615479 0.079598 0.576085 0.726082
O14   O     O_R   0.441480 0.093500 0.412450 -0.538732
O15   O     O_R   0.266140 0.943870 0.442100 -0.543513
C46   C     C_R   0.610542 0.116480 0.385093 0.690176
O16   O     O_R   0.775410 0.056240 0.558120 -0.539477
O17   O     O_3   0.602660 0.950990 0.510100 -0.376234
V3    V     V_3+5 0.329740 0.009100 0.498130 1.415497
O18   O     O_R   0.936120 0.934420 0.444240 -0.536325
C47   C     C_R   0.103733 0.920730 0.423580 0.786303
O19   O     O_R   0.940610 0.906370 0.587310 -0.526815
C48   C     C_R   0.108981 0.881268 0.613402 0.795810
V4    V     V_3+5 0.829110 0.990690 0.501470 1.420597
O20   O     O_3   0.106080 0.049010 0.489880 -0.371756
C49   C     C_3   0.833169 0.253675 0.703421 0.050974
C50   C     C_3   0.470359 0.271684 0.685927 -0.324217
C51   C     C_3   0.474095 0.320719 0.734660 -0.338209
H26   H     H_    0.858985 0.365533 0.723153 0.148711
H27   H     H_    0.328886 0.240501 0.691592 0.139912
H28   H     H_    0.481684 0.311614 0.629130 0.143909
H29   H     H_    0.498911 0.384045 0.701507 0.140954
H30   H     H_    0.331402 0.315805 0.760651 0.141125
C52   C     C_1   0.638346 0.374803 0.878714 -0.170860
C53   C     C_3   0.634627 0.210464 0.706381 0.289586
C54   C     C_3   0.830433 0.301700 0.753538 -0.326217
C55   C     C_3   0.634216 0.291678 0.792206 0.259416
C56   C     C_3   0.599242 0.202594 0.835135 -0.334915
C57   C     C_3   0.600771 0.155027 0.785119 -0.395963
C58   C     C_1   0.634411 0.337184 0.840077 -0.076815
C59   C     C_1   0.630653 0.163633 0.659490 -0.087796
C60   C     C_1   0.625534 0.125466 0.621321 -0.193784
H31   H     H_    0.715673 0.110077 0.802661 0.140745
H32   H     H_    0.461328 0.122585 0.789863 0.148325
H33   H     H_    0.712417 0.179935 0.876823 0.148195
H34   H     H_    0.945508 0.207796 0.723779 0.118262
H35   H     H_    0.948217 0.281008 0.793640 0.118935
H36   H     H_    0.458271 0.193588 0.862930 0.154004
C61   C     C_3   0.819450 0.634972 0.262807 -0.840051
H37   H     H_    0.732042 0.686474 0.231968 0.222276
H38   H     H_    0.828785 0.595374 0.232473 0.217310
H39   H     H_    0.745430 0.601877 0.313945 0.208609
O21   O     O_3   0.992703 0.771213 0.560352 -0.574545
C62   C     C_3   0.793056 0.761401 0.551181 -0.203355
H40   H     H_    0.708927 0.766795 0.595843 0.136076
H41   H     H_    0.759223 0.704288 0.545411 0.106568
H42   H     H_    0.744566 0.808243 0.501297 0.171731
O22   O     O_3   0.336998 0.159049 0.062602 -0.552080
C63   C     C_3   0.384279 0.087764 0.054820 -0.280290
H43   H     H_    0.281009 0.040086 0.084491 0.134782
H44   H     H_    0.535228 0.069973 0.071382 0.130464
H45   H     H_    0.371265 0.096352 0.997614 0.159395
C64   C     C_3   0.895054 0.306626 0.627457 -0.835359
H46   H     H_    0.040883 0.331771 0.629146 0.207116
H47   H     H_    0.902161 0.272180 0.592337 0.216962
H48   H     H_    0.794744 0.356250 0.603743 0.219298

loop_
_geom_bond_atom_site_label_1
_geom_bond_atom_site_label_2
_ccdc_geom_bond_type
C64   H48   S    
C35   C37   A    
C8    C14   T    
C62   H40   S    
O15   V3    S    
C17   C18   A    
C50   H28   S    
O18   V4    S    
C1    O6    A    
C63   H45   S    
C64   H46   S    
C30   H18   S    
C21   C22   A    
C9    C15   S    
C51   H30   S    
C31   C32   A    
C31   C36   A    
C45   C60   S    
C41   H23   S    
O14   V3    S    
O5    C3    A    
C12   C13   S    
O14   C46   A    
C25   C30   A    
C51   H29   S    
C49   C54   S    
C54   C55   S    
C6    C7    S    
C42   C43   A    
C32   O22   S    
C56   C57   S    
C53   C59   S    
C61   H39   S    
C18   H14   S    
O8    V2    S    
C24   C27   A    
C17   H13   S    
C23   C24   A    
C20   H16   S    
C37   C38   A    
C17   C22   A    
C39   C40   A    
O1    V2    S    
O13   V3    S    
O7    V1    S    
C8    C47   S    
C35   C36   A    
C51   C55   S    
C6    H3    S    
O9    C4    A    
C54   H35   S    
C31   H20   S    
O19   C48   A    
C56   H33   S    
C49   H34   S    
C21   C23   A    
O11   V4    S    
C43   C44   A    
C6    C9    S    
C9    C13   S    
C6    H4    S    
C5    C9    S    
C55   C58   S    
C56   H36   S    
O4    C2    A    
C45   O16   A    
C44   H25   S    
C52   C58   T    
H1    C10   S    
C62   H42   S    
C29   C30   A    
C49   C64   S    
C5    H2    S    
C49   C53   S    
C27   C28   A    
C12   H9    S    
O13   C48   A    
C27   O21   S    
C38   C41   A    
O2    C1    A    
C19   C20   A    
O5    V1    S    
C11   C12   S    
C28   H17   S    
C50   C51   S    
C10   H10   S    
V4    O20   S    
C15   C16   T    
C2    C52   S    
V3    O20   S    
O19   V4    S    
C61   H37   S    
C57   H32   S    
O3    C4    A    
C5    C61   S    
C24   C25   A    
O12   C45   A    
C34   C35   A    
O6    V2    S    
O9    V2    S    
O21   C62   S    
C37   C46   S    
C13   H7    S    
C18   C19   A    
C63   H43   S    
O2    V1    S    
O12   V3    S    
C28   C29   A    
C59   C60   T    
C64   H47   S    
C10   C11   S    
C62   H41   S    
C34   H22   S    
O1    C2    A    
C5    C10   S    
C53   C57   S    
C20   C21   A    
C41   C42   A    
C63   H44   S    
C4    C16   S    
C3    C26   S    
O8    C3    A    
H12   C29   S    
O17   V4    S    
H19   C43   S    
C11   C14   S    
C50   C53   S    
C22   C26   A    
C33   C34   A    
O16   V4    S    
C7    H5    S    
O7    V2    S    
O4    V1    S    
O3    V1    S    
V1    O10   S    
C55   C56   S    
O17   V3    S    
H26   C54   S    
O11   C46   A    
O15   C47   A    
O18   C47   A    
C42   H24   S    
C12   H11   S    
O22   C63   S    
C36   C40   A    
C38   C39   A    
C7    H6    S    
C61   H38   S    
C19   H15   S    
C32   C33   A    
C50   H27   S    
C25   C26   A    
C39   C44   A    
C33   H21   S    
C23   C48   S    
C13   H8    S    
C57   H31   S    
C1    C40   S    
V2    O10   S    
C7    C11   S    
