data_mof_unit_1915.cif
_audit_creation_date              2012-12-11T14:40:15-0500
_audit_creation_method            fapswitch 2.2
_symmetry_space_group_name_H-M    P1
_symmetry_Int_Tables_number       1
_space_group_crystal_system       monoclinic
_cell_length_a                    19.652651
_cell_length_b                    10.983815
_cell_length_c                    19.427981
_cell_angle_alpha                 90.0
_cell_angle_beta                  97.770243
_cell_angle_gamma                 90.0
_cell_volume                      4155.23885361

loop_
_atom_site_label
_atom_site_type_symbol
_atom_type_description
_atom_site_fract_x
_atom_site_fract_y
_atom_site_fract_z
_atom_type_partial_charge
C1    C     C_R   0.726346 0.948944 0.359493 0.534768
C2    C     C_R   0.273654 0.948944 0.640506 0.534767
C3    C     C_R   0.226458 0.450602 0.359876 0.536543
C4    C     C_R   0.773542 0.450602 0.640124 0.536543
C5    C     C_3   0.694442 0.275378 0.500239 -0.120935
C6    C     C_3   0.305558 0.275378 0.499761 -0.120934
C7    C     C_3   0.173385 0.865079 0.485332 -0.101361
C8    C     C_3   0.826615 0.865077 0.514668 -0.101363
C9    C     C_3   0.730561 0.332242 0.441957 0.025535
C10   C     C_3   0.269439 0.332242 0.558043 0.025534
C11   C     C_3   0.230811 0.839628 0.440453 0.033448
C12   C     C_3   0.769189 0.839627 0.559547 0.033447
C13   C     C_3   0.715749 0.460787 0.466162 -0.127946
C14   C     C_3   0.284251 0.460787 0.533838 -0.127949
C15   C     C_3   0.270610 0.953339 0.467553 -0.097156
C16   C     C_3   0.729390 0.953340 0.532447 -0.097156
C17   C     C_3   0.786128 0.459362 0.512394 -0.132302
C18   C     C_3   0.213871 0.459362 0.487606 -0.132305
C19   C     C_3   0.309869 0.875854 0.525246 -0.139927
C20   C     C_3   0.690130 0.875855 0.474754 -0.139928
C21   C     C_3   0.800936 0.329624 0.488567 -0.096229
C22   C     C_3   0.199064 0.329623 0.511433 -0.096229
C23   C     C_3   0.270462 0.760910 0.497577 -0.130248
C24   C     C_3   0.729537 0.760910 0.502423 -0.130246
C25   C     C_3   0.764442 0.277755 0.547075 0.138385
C26   C     C_3   0.235558 0.277754 0.452925 0.138385
C27   C     C_3   0.214630 0.789989 0.543659 0.128568
C28   C     C_3   0.785369 0.789988 0.456341 0.128567
C29   C     C_3   0.750886 0.405033 0.571116 0.063888
C30   C     C_3   0.249113 0.405033 0.428883 0.063889
C31   C     C_3   0.253506 0.903158 0.570906 0.056948
C32   C     C_3   0.746494 0.903158 0.429094 0.056947
C33   C     C_3   0.528825 0.271085 0.977770 0.161057
C34   C     C_3   0.471175 0.271085 0.022230 0.161057
C35   C     C_3   0.028826 0.771087 0.977771 0.161183
C36   C     C_3   0.971174 0.771087 0.022229 0.161183
C37   C     C_3   0.567568 0.171787 0.022837 -0.103159
C38   C     C_3   0.432432 0.171787 0.977163 -0.103159
C39   C     C_3   0.067567 0.671789 0.022840 -0.102769
C40   C     C_3   0.932433 0.671789 0.977159 -0.102769
C41   C     C_3   0.508114 0.172136 0.067933 0.038276
C42   C     C_3   0.491886 0.172137 0.932067 0.038275
C43   C     C_3   0.008111 0.672138 0.067934 0.038095
C44   C     C_3   0.991889 0.672138 0.932066 0.038095
C45   C     C_R   0.535384 0.180086 0.337910 0.532811
C46   C     C_R   0.464615 0.180086 0.662090 0.532812
C47   C     C_R   0.036354 0.680037 0.338462 0.522872
C48   C     C_R   0.963646 0.680037 0.661538 0.522871
C49   C     C_3   0.470740 0.071014 0.023249 -0.153760
C50   C     C_3   0.529260 0.071014 0.976751 -0.153760
C51   C     C_3   0.970739 0.571016 0.023248 -0.153966
C52   C     C_3   0.029261 0.571016 0.976752 -0.153966
C53   C     C_1   0.765672 0.428751 0.905696 0.001502
C54   C     C_1   0.234328 0.428751 0.094304 0.001502
C55   C     C_1   0.265684 0.928814 0.905718 0.001124
C56   C     C_1   0.734316 0.928814 0.094282 0.001124
C57   C     C_1   0.753539 0.412816 0.037200 -0.056990
C58   C     C_1   0.246461 0.412816 0.962800 -0.056991
C59   C     C_1   0.253555 0.912915 0.037229 -0.056510
C60   C     C_1   0.746445 0.912915 0.962771 -0.056510
C61   C     C_1   0.759434 0.419731 0.966089 -0.040181
C62   C     C_1   0.240566 0.419731 0.033911 -0.040181
C63   C     C_1   0.259448 0.919820 0.966115 -0.040202
C64   C     C_1   0.740552 0.919821 0.033885 -0.040202
C65   C     C_1   0.746536 0.399161 0.097152 -0.027126
C66   C     C_1   0.253464 0.399161 0.902848 -0.027126
C67   C     C_1   0.246552 0.899245 0.097181 -0.027144
C68   C     C_1   0.753448 0.899245 0.902819 -0.027144
C69   C     C_R   0.724024 0.306386 0.367191 0.565101
C70   C     C_R   0.275976 0.306386 0.632809 0.565101
C71   C     C_R   0.224171 0.808241 0.367169 0.558656
C72   C     C_R   0.775828 0.808241 0.632830 0.558656
C73   C     C_R   0.721370 0.953581 0.163303 0.539207
C74   C     C_R   0.278630 0.953581 0.836696 0.539208
C75   C     C_R   0.221375 0.453558 0.163315 0.536192
C76   C     C_R   0.778625 0.453558 0.836685 0.536193
C77   C     C_R   0.529175 0.178899 0.141575 0.546466
C78   C     C_R   0.470825 0.178899 0.858425 0.546466
C79   C     C_R   0.029171 0.678899 0.141578 0.547444
C80   C     C_R   0.970829 0.678899 0.858422 0.547443
C81   C     C_R   0.736712 0.361814 0.165300 0.549470
C82   C     C_R   0.263288 0.361814 0.834699 0.549469
C83   C     C_R   0.236724 0.861862 0.165323 0.541459
C84   C     C_R   0.763276 0.861862 0.834677 0.541458
C85   C     C_1   0.485955 0.172234 0.594950 -0.017319
C86   C     C_1   0.514045 0.172234 0.405050 -0.017319
C87   C     C_1   0.983957 0.671350 0.594154 -0.028001
C88   C     C_1   0.016043 0.671350 0.405847 -0.028004
C89   C     C_1   0.504050 0.168850 0.464641 -0.064749
C90   C     C_1   0.495950 0.168850 0.535358 -0.064749
C91   C     C_1   0.005149 0.667191 0.465042 -0.034444
C92   C     C_1   0.994853 0.667191 0.534959 -0.034441
C93   C     C_3   0.680468 0.406281 0.525707 -0.146615
C94   C     C_3   0.319532 0.406281 0.474293 -0.146614
C95   C     C_3   0.213785 0.980509 0.513291 -0.119413
C96   C     C_3   0.786216 0.980508 0.486709 -0.119412
Cr1   Cr    Cr6+3 0.765830 0.160660 0.268180 1.010452
Cr2   Cr    Cr6+3 0.234170 0.160660 0.731820 1.010452
Cr3   Cr    Cr6+3 0.265830 0.660660 0.268180 1.014635
Cr4   Cr    Cr6+3 0.734170 0.660660 0.731820 1.014635
Cr5   Cr    Cr6+3 0.612110 0.009150 0.248770 1.017428
Cr6   Cr    Cr6+3 0.387890 0.009150 0.751230 1.017428
Cr7   Cr    Cr6+3 0.112110 0.509150 0.248770 1.012564
Cr8   Cr    Cr6+3 0.887890 0.509150 0.751230 1.012564
Cr9   Cr    Cr6+3 0.615930 0.324050 0.248450 1.010365
Cr10  Cr    Cr6+3 0.384070 0.324050 0.751550 1.010365
Cr11  Cr    Cr6+3 0.115930 0.824050 0.248450 0.997538
Cr12  Cr    Cr6+3 0.884070 0.824050 0.751550 0.997538
H1    H     H_    0.657655 0.198347 0.493772 0.106332
H2    H     H_    0.342345 0.198347 0.506228 0.106331
H3    H     H_    0.117394 0.859564 0.467646 0.122986
H4    H     H_    0.882606 0.859560 0.532354 0.122985
H5    H     H_    0.631954 0.439149 0.542608 0.124032
H6    H     H_    0.368046 0.439149 0.457392 0.124032
H7    H     H_    0.189923 0.069418 0.522337 0.138036
H8    H     H_    0.810078 0.069417 0.477663 0.138036
H9    H     H_    0.693077 0.533037 0.430335 0.128557
H10   H     H_    0.306923 0.533036 0.569665 0.128556
H11   H     H_    0.299620 0.014706 0.437283 0.147491
H12   H     H_    0.700381 0.014707 0.562717 0.147492
H13   H     H_    0.366149 0.880766 0.541854 0.136998
H14   H     H_    0.633851 0.880769 0.458147 0.136997
H15   H     H_    0.823804 0.535197 0.519038 0.142898
H16   H     H_    0.176196 0.535196 0.480961 0.142897
H17   H     H_    0.850477 0.296689 0.474040 0.125397
H18   H     H_    0.149523 0.296689 0.525960 0.125397
H19   H     H_    0.295877 0.675952 0.484911 0.119289
H20   H     H_    0.704121 0.675954 0.515089 0.119289
H21   H     H_    0.623261 0.172241 0.042956 0.121068
H22   H     H_    0.376739 0.172241 0.957044 0.121067
H23   H     H_    0.123260 0.672243 0.042961 0.121969
H24   H     H_    0.876740 0.672243 0.957039 0.121969
H25   H     H_    0.446254 0.989889 0.043528 0.130980
H26   H     H_    0.553746 0.989888 0.956472 0.130980
H27   H     H_    0.946252 0.489890 0.043525 0.130847
H28   H     H_    0.053748 0.489890 0.956474 0.130847
O1    O     O_R   0.783230 0.287800 0.346510 -0.518513
O2    O     O_R   0.216770 0.287800 0.653490 -0.518513
O3    O     O_R   0.283230 0.787800 0.346510 -0.519088
O4    O     O_R   0.716770 0.787800 0.653490 -0.519088
O5    O     O_R   0.554500 0.081650 0.170370 -0.497337
O6    O     O_R   0.445500 0.081650 0.829630 -0.497337
O7    O     O_R   0.054500 0.581650 0.170370 -0.496415
O8    O     O_R   0.945500 0.581650 0.829630 -0.496416
O9    O     O_R   0.545430 0.285140 0.163100 -0.529833
O10   O     O_R   0.454570 0.285140 0.836900 -0.529833
O11   O     O_R   0.045430 0.785140 0.163100 -0.528976
O12   O     O_R   0.954570 0.785140 0.836900 -0.528976
O13   O     O_R   0.677850 0.374730 0.185500 -0.502804
O14   O     O_R   0.322150 0.374730 0.814500 -0.502803
O15   O     O_R   0.177850 0.874730 0.185500 -0.507164
O16   O     O_R   0.822150 0.874730 0.814500 -0.507164
O17   O     O_3   0.664630 0.164620 0.255130 -0.276309
O18   O     O_3   0.335370 0.164620 0.744870 -0.276309
O19   O     O_3   0.164630 0.664620 0.255130 -0.273337
O20   O     O_3   0.835370 0.664620 0.744870 -0.273337
O21   O     O_R   0.760130 0.037060 0.338610 -0.531643
O22   O     O_R   0.239870 0.037060 0.661390 -0.531643
O23   O     O_R   0.260130 0.537060 0.338610 -0.527149
O24   O     O_R   0.739870 0.537060 0.661390 -0.527149
O25   O     O_R   0.666620 0.921370 0.332440 -0.517755
O26   O     O_R   0.333380 0.921370 0.667560 -0.517755
O27   O     O_R   0.166620 0.421370 0.332440 -0.517296
O28   O     O_R   0.833380 0.421370 0.667560 -0.517296
O29   O     O_R   0.557170 0.082420 0.312350 -0.498744
O30   O     O_R   0.442830 0.082420 0.687650 -0.498744
O31   O     O_R   0.057170 0.582420 0.312350 -0.492685
O32   O     O_R   0.942830 0.582420 0.687650 -0.492685
O33   O     O_R   0.548310 0.285980 0.316250 -0.514658
O34   O     O_R   0.451690 0.285980 0.683750 -0.514658
O35   O     O_R   0.048310 0.785980 0.316250 -0.523761
O36   O     O_R   0.951690 0.785980 0.683750 -0.523761
O37   O     O_R   0.680520 0.375500 0.327470 -0.499324
O38   O     O_R   0.319480 0.375500 0.672530 -0.499324
O39   O     O_R   0.180520 0.875500 0.327470 -0.507639
O40   O     O_R   0.819480 0.875500 0.672530 -0.507639
O41   O     O_R   0.780350 0.286970 0.193350 -0.500623
O42   O     O_R   0.219650 0.286970 0.806650 -0.500623
O43   O     O_R   0.280350 0.786970 0.193350 -0.500483
O44   O     O_R   0.719650 0.786970 0.806650 -0.500483
O45   O     O_R   0.757460 0.036290 0.196640 -0.497983
O46   O     O_R   0.242540 0.036290 0.803360 -0.497984
O47   O     O_R   0.257460 0.536290 0.196640 -0.494026
O48   O     O_R   0.742540 0.536290 0.803360 -0.494026
O49   O     O_R   0.663740 0.920540 0.179290 -0.508396
O50   O     O_R   0.336260 0.920540 0.820710 -0.508396
O51   O     O_R   0.163740 0.420540 0.179290 -0.515810
O52   O     O_R   0.836260 0.420540 0.820710 -0.515810
N1    N     N_2   0.791039 0.183690 0.595888 -0.527733
H29   H     H_    0.843732 0.184365 0.608074 0.264039
C97   C     C_3   0.754937 0.167522 0.655784 -0.293793
H30   H     H_    0.762599 0.073801 0.675856 0.183462
H31   H     H_    0.698854 0.182967 0.641899 0.134251
H32   H     H_    0.775250 0.229672 0.698558 0.162452
N2    N     N_2   0.208962 0.183690 0.404112 -0.527733
H33   H     H_    0.156268 0.184365 0.391925 0.264039
C98   C     C_3   0.245064 0.167522 0.344216 -0.293793
H34   H     H_    0.237401 0.073801 0.324143 0.183462
H35   H     H_    0.301147 0.182965 0.358102 0.134250
H36   H     H_    0.224751 0.229673 0.301442 0.162451
N3    N     N_2   0.186187 0.702412 0.587625 -0.527524
H37   H     H_    0.222415 0.643242 0.611756 0.258642
C99   C     C_3   0.143884 0.752959 0.635846 -0.283081
H38   H     H_    0.117152 0.677902 0.659386 0.152228
H39   H     H_    0.105301 0.816840 0.608924 0.158367
H40   H     H_    0.176018 0.801360 0.678632 0.144352
N4    N     N_2   0.813811 0.702411 0.412374 -0.527522
H41   H     H_    0.777581 0.643247 0.388239 0.258641
C100  C     C_3   0.856118 0.752958 0.364156 -0.283080
H42   H     H_    0.882848 0.677899 0.340616 0.152229
H43   H     H_    0.894703 0.816832 0.391082 0.158366
H44   H     H_    0.823987 0.801366 0.321371 0.144352
N5    N     N_2   0.561422 0.377927 0.952954 -0.514030
H45   H     H_    0.532846 0.421744 0.912002 0.272753
C101  C     C_3   0.591663 0.461034 0.006225 -0.292183
H46   H     H_    0.630006 0.519124 0.985032 0.157605
H47   H     H_    0.615998 0.410333 0.052177 0.180414
H48   H     H_    0.552821 0.522088 0.023742 0.132241
N6    N     N_2   0.438578 0.377927 0.047046 -0.514030
H49   H     H_    0.467155 0.421745 0.087998 0.272753
C102  C     C_3   0.408337 0.461034 0.993775 -0.292182
H50   H     H_    0.369994 0.519124 0.014968 0.157605
H51   H     H_    0.384001 0.410332 0.947823 0.180413
H52   H     H_    0.447179 0.522087 0.976256 0.132241
N7    N     N_2   0.061427 0.877927 0.952957 -0.514176
H53   H     H_    0.032855 0.921743 0.912002 0.272226
C103  C     C_3   0.091664 0.961032 0.006230 -0.292963
H54   H     H_    0.129998 0.019142 0.985036 0.157011
H55   H     H_    0.116012 0.910327 0.052177 0.181031
H56   H     H_    0.052819 0.022065 0.023759 0.131757
N8    N     N_2   0.938574 0.877927 0.047043 -0.514176
H57   H     H_    0.967146 0.921744 0.087998 0.272226
C104  C     C_3   0.908335 0.961032 0.993769 -0.292963
H58   H     H_    0.870002 0.019142 0.014963 0.157010
H59   H     H_    0.883987 0.910326 0.947823 0.181030
H60   H     H_    0.947181 0.022064 0.976240 0.131757

loop_
_geom_bond_atom_site_label_1
_geom_bond_atom_site_label_2
_ccdc_geom_bond_type
C58   C62   S    
Cr9   O17   S    
C99   H38   S    
Cr2   O18   S    
C67   C83   S    
Cr10  O14   S    
Cr3   O23   S    
C98   H36   S    
C17   C29   S    
N3    H37   S    
C14   C18   S    
C19   C23   S    
C35   C36   S    
C8    C96   S    
C44   C80   S    
C75   O47   A    
C2    O26   A    
C94   H6    S    
C49   C50   S    
C38   C49   S    
Cr11  O35   S    
N5    H45   S    
C10   C22   S    
C15   C19   S    
C99   H39   S    
Cr6   O50   S    
Cr9   O33   S    
Cr2   O2    S    
C33   C42   S    
C38   H22   S    
C9    C69   S    
C38   C42   S    
C102  H52   S    
C78   O6    A    
C15   C95   S    
C11   C71   S    
C13   H9    S    
C22   H18   S    
N6    C102  S    
Cr12  O12   S    
C43   C79   S    
C71   O39   A    
C13   C93   S    
C100  H44   S    
C7    C27   S    
N4    C100  S    
C98   H35   S    
C41   C49   S    
C57   C61   S    
N1    C97   S    
C9    C13   S    
C7    C11   S    
C49   H25   S    
Cr4   O4    S    
C59   C67   T    
Cr12  O16   S    
C55   C74   S    
C53   C61   T    
C17   H15   S    
C79   O7    A    
C12   C16   S    
C15   H11   S    
C80   O8    A    
C55   C63   T    
Cr4   O48   S    
C56   C64   T    
C18   C30   S    
Cr1   O17   S    
Cr2   O42   S    
C18   C22   S    
Cr10  O18   S    
C104  H58   S    
Cr6   O18   S    
C20   H14   S    
C4    C29   S    
C76   O52   A    
Cr6   O6    S    
C16   C20   S    
C46   C85   S    
Cr11  O15   S    
C19   C31   S    
C44   C52   S    
C11   C15   S    
C72   O40   A    
C39   C52   S    
C40   H24   S    
C1    O25   A    
Cr5   O25   S    
Cr6   O30   S    
C48   O36   A    
C87   C92   T    
C69   O1    A    
C47   O35   A    
C6    H2    S    
Cr3   O3    S    
C51   C52   S    
N1    H29   S    
C34   C41   S    
C51   H27   S    
N3    C99   S    
Cr5   O49   S    
C26   N2    S    
Cr1   O1    S    
C73   O49   A    
C29   C93   S    
C58   C66   T    
C33   C34   S    
C83   O15   A    
N5    C101  S    
C25   C29   S    
Cr8   O52   S    
C99   H40   S    
C16   C96   S    
C35   N7    S    
C27   C31   S    
N4    H41   S    
C68   C84   S    
C20   C24   S    
C36   C40   S    
Cr7   O51   S    
C10   C14   S    
C101  H48   S    
C95   H7    S    
N6    H49   S    
C33   N5    S    
C34   N6    S    
C34   C38   S    
C71   O3    A    
N2    H33   S    
C54   C62   T    
C6    C94   S    
Cr11  O11   S    
C69   O37   A    
C33   C37   S    
C46   O34   A    
Cr3   O19   S    
C2    C31   S    
Cr1   O21   S    
Cr3   O43   S    
Cr2   O46   S    
C3    C30   S    
C35   C39   S    
C101  H46   S    
C97   H31   S    
C5    C9    S    
C102  H50   S    
C66   C82   S    
C47   O31   A    
C84   O44   A    
Cr4   O24   S    
Cr1   O41   S    
C103  H54   S    
Cr12  O20   S    
C88   C91   T    
C28   C32   S    
C8    C12   S    
Cr9   O9    S    
C82   O42   A    
C4    O28   A    
C100  H42   S    
Cr10  O38   S    
C48   C87   S    
C1    O21   A    
N8    C104  S    
C93   H5    S    
Cr7   O31   S    
Cr8   O20   S    
Cr5   O29   S    
C35   C44   S    
C70   O38   A    
C60   C68   T    
C82   O14   A    
C42   C50   S    
C79   O11   A    
C10   C70   S    
Cr7   O19   S    
C32   C96   S    
C80   O12   A    
C70   O2    A    
C23   C27   S    
Cr12  O36   S    
C50   H26   S    
C52   H28   S    
Cr10  O10   S    
C5    C25   S    
C59   C63   S    
C53   C76   S    
C9    C21   S    
Cr5   O17   S    
C21   H17   S    
Cr4   O44   S    
C77   O9    A    
C91   C92   S    
C7    C95   S    
Cr6   O26   S    
C42   C78   S    
C23   H19   S    
C20   C32   S    
C97   H30   S    
C21   C25   S    
C19   H13   S    
C56   C73   S    
C46   O30   A    
N7    H53   S    
C27   N3    S    
Cr3   O47   S    
C84   O16   A    
C75   O51   A    
C24   C28   S    
C57   C65   T    
C86   C89   T    
Cr7   O7    S    
C6    C10   S    
C5    C93   S    
C85   C90   T    
Cr1   O45   S    
C6    C26   S    
C74   O46   A    
C3    O27   A    
C7    H3    S    
C40   C51   S    
Cr9   O13   S    
C12   C24   S    
Cr7   O27   S    
C73   O45   A    
Cr8   O32   S    
C13   C17   S    
C60   C64   S    
C47   C88   S    
C16   H12   S    
C45   C86   S    
C14   H10   S    
C81   O41   A    
C72   O4    A    
C30   C94   S    
C103  H55   S    
C25   N1    S    
C41   C77   S    
C37   C50   S    
C83   O43   A    
Cr4   O20   S    
Cr8   O28   S    
C4    O24   A    
Cr11  O39   S    
C43   C51   S    
C36   N8    S    
C81   O13   A    
Cr12  O40   S    
C11   C23   S    
N7    C103  S    
C8    H4    S    
C37   H21   S    
C1    C32   S    
C37   C41   S    
C98   H34   S    
C12   C72   S    
C104  H60   S    
C77   O5    A    
C39   H23   S    
C97   H32   S    
C101  H47   S    
C31   C95   S    
C78   O10   A    
C3    O23   A    
C22   C26   S    
C54   C75   S    
Cr2   O22   S    
C40   C44   S    
C103  H56   S    
C2    O22   A    
C39   C43   S    
C8    C28   S    
C102  H51   S    
Cr5   O5    S    
Cr10  O34   S    
C104  H59   S    
N8    H57   S    
C24   H20   S    
C28   N4    S    
C100  H43   S    
C65   C81   S    
C96   H8    S    
C36   C43   S    
Cr9   O37   S    
C5    H1    S    
N2    C98   S    
C89   C90   S    
C76   O48   A    
Cr8   O8    S    
C45   O29   A    
C48   O32   A    
C14   C94   S    
Cr11  O19   S    
C45   O33   A    
C18   H16   S    
C74   O50   A    
C26   C30   S    
C17   C21   S    
