data_mof_unit_3473.cif
_audit_creation_date              2012-12-10T17:27:51-0500
_audit_creation_method            fapswitch 2.2
_symmetry_space_group_name_H-M    P1
_symmetry_Int_Tables_number       1
_space_group_crystal_system       triclinic
_cell_length_a                    10.820014
_cell_length_b                    11.997411
_cell_length_c                    12.931474
_cell_angle_alpha                 92.341306
_cell_angle_beta                  90.591679
_cell_angle_gamma                 85.973984
_cell_volume                      1673.0752986

loop_
_atom_site_label
_atom_site_type_symbol
_atom_type_description
_atom_site_fract_x
_atom_site_fract_y
_atom_site_fract_z
_atom_type_partial_charge
C1    C     C_R   0.496448 0.521648 0.700324 0.886827
C2    C     C_R   0.939717 0.411481 0.573886 0.047117
C3    C     C_R   0.870053 0.504071 0.534203 -0.121729
C4    C     C_R   0.926207 0.599860 0.511351 -0.228153
C5    C     C_R   0.052443 0.601528 0.513351 -0.020924
C6    C     C_R   0.127249 0.501490 0.531504 -0.163472
C7    C     C_R   0.515911 0.467780 0.188855 -0.106992
C8    C     C_R   0.499084 0.535819 0.811233 -0.041109
C9    C     C_R   0.544942 0.646404 0.964149 -0.198556
C10   C     C_R   0.526940 0.638120 0.858294 -0.175561
C11   C     C_R   0.482276 0.443891 0.870247 -0.237178
C12   C     C_R   0.739158 0.501165 0.510720 0.896619
C13   C     C_R   0.495831 0.451910 0.976001 0.165153
C14   C     C_R   0.530913 0.553051 0.024190 0.130256
C15   C     C_R   0.548785 0.558488 0.131007 -0.082695
C16   C     C_R   0.483009 0.367897 0.139824 -0.204009
C17   C     C_R   0.475523 0.359241 0.033480 -0.198015
C18   C     C_R   0.395997 0.955252 0.394526 -0.078311
C19   C     C_R   0.404020 0.839374 0.406015 0.003948
C20   C     C_R   0.546125 0.855822 0.546165 0.057134
C21   C     C_R   0.538161 0.975106 0.541574 -0.010170
C22   C     C_R   0.463539 0.024459 0.462255 0.012700
C23   C     C_R   0.507290 0.479047 0.299916 0.902102
C24   C     C_R   0.458923 0.142055 0.452868 -0.035526
C25   C     C_R   0.590493 0.163143 0.597977 -0.004515
C26   C     C_R   0.600290 0.047949 0.611738 -0.093132
C27   C     C_R   0.259808 0.500448 0.509516 0.873169
C28   C     C_R   0.882580 0.327124 0.624844 0.020908
C29   C     C_R   0.938797 0.219738 0.624473 -0.233320
C30   C     C_R   0.064025 0.204034 0.602961 -0.014774
C31   C     C_R   0.132300 0.299243 0.594786 -0.031267
C32   C     C_R   0.070130 0.404067 0.566143 0.010897
H1    H     H_    0.890546 0.152099 0.655052 0.157540
N1    N     N_R   0.523130 0.207800 0.519340 -0.110661
N2    N     N_R   0.476870 0.792180 0.480660 -0.130540
O1    O     O_R   0.506170 0.421690 0.658830 -0.619813
O2    O     O_R   0.491330 0.609320 0.646410 -0.633496
O3    O     O_R   0.690660 0.406170 0.506210 -0.619142
O4    O     O_R   0.675810 0.593790 0.493790 -0.624024
O5    O     O_R   0.508670 0.390680 0.353590 -0.624765
O6    O     O_R   0.493830 0.578310 0.341170 -0.618356
O7    O     O_R   0.324190 0.406210 0.506210 -0.621469
O8    O     O_R   0.309340 0.593830 0.493790 -0.614253
Zn1   Zn    Zn3+2 0.509910 0.374720 0.508290 0.965563
Zn2   Zn    Zn3+2 0.490090 0.625280 0.491710 0.974502
H2    H     H_    0.871192 0.673869 0.487759 0.179314
H3    H     H_    0.449239 0.281608 0.996427 0.154217
H4    H     H_    0.538555 0.710699 0.813354 0.176847
H5    H     H_    0.462830 0.364407 0.834154 0.177411
H6    H     H_    0.403400 0.182243 0.393144 0.138631
H7    H     H_    0.634226 0.218443 0.652303 0.144403
C33   C     C_1   0.317409 0.000367 0.313136 0.143893
N3    N     N_1   0.254422 0.036496 0.247958 -0.191935
C34   C     C_1   0.669321 0.011835 0.702057 0.127488
N4    N     N_1   0.724708 0.984311 0.774847 -0.183008
H8    H     H_    0.352996 0.785831 0.354237 0.148346
C35   C     C_1   0.633255 0.797903 0.613797 0.240446
N5    N     N_1   0.704179 0.751696 0.667606 -0.205728
C36   C     C_1   0.797428 0.357845 0.707431 0.158070
N6    N     N_1   0.732891 0.381564 0.776611 -0.202422
C37   C     C_1   0.124553 0.093425 0.613295 0.184384
N7    N     N_1   0.173267 0.005226 0.621659 -0.179793
C38   C     C_1   0.246957 0.291272 0.652215 0.223235
N8    N     N_1   0.336945 0.278997 0.700176 -0.208980
C39   C     C_1   0.098345 0.708049 0.489685 0.232783
N9    N     N_1   0.133189 0.793852 0.470837 -0.192520
C40   C     C_1   0.603853 0.654825 0.179865 0.187392
N10   N     N_1   0.647752 0.731416 0.218648 -0.193218
H9    H     H_    0.459780 0.297353 0.183763 0.173110
H10   H     H_    0.568630 0.726132 0.998173 0.159123

loop_
_geom_bond_atom_site_label_1
_geom_bond_atom_site_label_2
_ccdc_geom_bond_type
C19   H8    S    
C6    C32   A    
C9    C14   A    
C25   H7    S    
O3    Zn1   S    
C29   C30   A    
C11   H5    S    
C1    O2    A    
C1    C8    S    
C11   C13   A    
C9    C10   A    
C34   N4    T    
C23   O5    A    
C6    C27   S    
C23   O6    A    
C13   C17   A    
C25   N1    A    
O4    Zn2   S    
C15   C40   S    
C12   O4    A    
C7    C15   A    
C2    C3    A    
C20   C35   S    
C18   C33   S    
C36   N6    T    
C14   C15   A    
C4    H2    S    
C13   C14   A    
C20   C21   A    
C40   N10   T    
C10   H4    S    
O8    Zn2   S    
C27   O7    A    
C35   N5    T    
C5    C6    A    
O7    Zn1   S    
C8    C11   A    
C7    C23   S    
C26   C34   S    
C2    C32   A    
C21   C22   A    
C7    C16   A    
C21   C26   A    
C18   C19   A    
C24   H6    S    
C37   N7    T    
C16   C17   A    
C22   C24   A    
O1    Zn1   S    
C5    C39   S    
C2    C28   A    
C30   C37   S    
O2    Zn2   S    
C38   N8    T    
N2    Zn2   S    
C12   O3    A    
C31   C38   S    
O5    Zn1   S    
N1    Zn1   S    
C33   N3    T    
C1    O1    A    
C8    C10   A    
C39   N9    T    
C16   H9    S    
C28   C36   S    
C27   O8    A    
O6    Zn2   S    
C30   C31   A    
C28   C29   A    
C19   N2    A    
C3    C12   S    
C25   C26   A    
C18   C22   A    
C20   N2    A    
C9    H10   S    
C31   C32   A    
C24   N1    A    
C3    C4    A    
C17   H3    S    
C29   H1    S    
C4    C5    A    
