data_mof_unit_1115.cif
_audit_creation_date              2012-12-10T18:55:16-0500
_audit_creation_method            fapswitch 2.2
_symmetry_space_group_name_H-M    P1
_symmetry_Int_Tables_number       1
_space_group_crystal_system       triclinic
_cell_length_a                    10.713541
_cell_length_b                    9.821779
_cell_length_c                    27.746214
_cell_angle_alpha                 90.005005
_cell_angle_beta                  90.096182
_cell_angle_gamma                 90.014381
_cell_volume                      2919.61978553

loop_
_atom_site_label
_atom_site_type_symbol
_atom_type_description
_atom_site_fract_x
_atom_site_fract_y
_atom_site_fract_z
_atom_type_partial_charge
C1    C     C_R   0.259821 0.499992 0.499976 0.876609
C2    C     C_R   0.387766 0.515437 0.872434 -0.022254
C3    C     C_R   0.499577 0.499962 0.353326 -0.042970
C4    C     C_R   0.500409 0.500027 0.646660 -0.042579
C5    C     C_R   0.386193 0.520223 0.974302 0.046519
C6    C     C_R   0.612491 0.472562 0.025555 0.045950
C7    C     C_R   0.613929 0.479677 0.974563 0.046557
C8    C     C_R   0.387270 0.527282 0.025298 0.045989
C9    C     C_R   0.500150 0.499964 0.949216 0.070943
C10   C     C_R   0.499792 0.499910 0.050643 0.071196
C11   C     C_R   0.274498 0.531648 0.947305 -0.215246
C12   C     C_R   0.740179 0.500007 0.500025 0.876616
C13   C     C_R   0.720039 0.437773 0.052544 -0.216167
C14   C     C_R   0.275607 0.529696 0.897360 -0.135254
C15   C     C_R   0.718248 0.436021 0.102487 -0.135499
C16   C     C_R   0.499906 0.499992 0.405978 0.878076
C17   C     C_R   0.500091 0.500007 0.594017 0.877852
C18   C     C_R   0.279532 0.562038 0.052043 -0.216265
C19   C     C_R   0.725812 0.468281 0.947825 -0.215334
C20   C     C_R   0.063847 0.378537 0.490755 -0.184357
C21   C     C_R   0.936153 0.621462 0.509247 -0.184256
C22   C     C_R   0.936013 0.378533 0.490794 -0.185600
C23   C     C_R   0.499614 0.499887 0.101704 -0.051488
C24   C     C_R   0.063987 0.621466 0.509209 -0.185587
C25   C     C_R   0.872587 0.500001 0.500030 -0.015052
C26   C     C_R   0.127414 0.499998 0.499972 -0.014963
C27   C     C_R   0.577912 0.072046 0.529885 -0.073618
C28   C     C_R   0.422088 0.927955 0.470115 -0.073932
C29   C     C_R   0.422085 0.071992 0.470116 -0.073688
C30   C     C_R   0.577917 0.928008 0.529884 -0.073802
C31   C     C_R   0.391742 0.531144 0.177575 0.504547
C32   C     C_R   0.611111 0.485001 0.822292 0.504610
C33   C     C_R   0.606972 0.468595 0.177815 0.505326
C34   C     C_R   0.500330 0.499991 0.898157 -0.051698
C35   C     C_R   0.390074 0.515052 0.822041 0.505410
C36   C     C_R   0.494167 0.623335 0.277892 -0.099407
C37   C     C_R   0.511572 0.377062 0.722086 -0.101033
C38   C     C_R   0.494465 0.623571 0.327954 -0.212525
C39   C     C_R   0.511170 0.376821 0.672023 -0.211057
C40   C     C_R   0.504308 0.376311 0.327967 -0.214478
C41   C     C_R   0.490013 0.623261 0.672021 -0.213535
C42   C     C_R   0.504203 0.376474 0.277907 -0.099548
C43   C     C_R   0.489991 0.623047 0.722083 -0.101314
C44   C     C_R   0.499143 0.499889 0.252924 0.319675
C45   C     C_R   0.389807 0.531628 0.127173 -0.021591
C46   C     C_R   0.500821 0.500057 0.747018 0.323455
C47   C     C_R   0.613073 0.484568 0.872692 -0.021762
C48   C     C_R   0.280976 0.563748 0.101991 -0.135768
C49   C     C_R   0.725055 0.470284 0.897877 -0.135519
C50   C     C_R   0.609245 0.468128 0.127421 -0.022057
H1    H     H_    0.508257 0.279688 0.346716 0.162189
H2    H     H_    0.813166 0.460738 0.879057 0.191075
H3    H     H_    0.519581 0.280546 0.653270 0.160651
H4    H     H_    0.490608 0.720214 0.346693 0.161539
H5    H     H_    0.519870 0.281971 0.741582 0.137741
H6    H     H_    0.490442 0.718807 0.258420 0.140144
H7    H     H_    0.187628 0.539260 0.878336 0.191267
H8    H     H_    0.803151 0.409103 0.121502 0.192247
H9    H     H_    0.183648 0.539375 0.963596 0.139249
H10   H     H_    0.807050 0.408288 0.036247 0.142035
H11   H     H_    0.192633 0.591532 0.035549 0.141995
H12   H     H_    0.481512 0.719532 0.653269 0.162305
H13   H     H_    0.816548 0.460539 0.964326 0.139228
H14   H     H_    0.112492 0.284177 0.483249 0.154874
H15   H     H_    0.887508 0.715822 0.516753 0.154913
H16   H     H_    0.887258 0.284157 0.483325 0.158937
H17   H     H_    0.112742 0.715842 0.516678 0.158865
H18   H     H_    0.640127 0.126794 0.553755 0.128744
H19   H     H_    0.359872 0.873207 0.446246 0.129259
H20   H     H_    0.359856 0.126699 0.446252 0.126102
H21   H     H_    0.640148 0.873302 0.553746 0.126611
H22   H     H_    0.507829 0.280977 0.258446 0.140178
H23   H     H_    0.481780 0.718143 0.741577 0.137938
H24   H     H_    0.195942 0.590647 0.120814 0.192128
N1    N     N_R   0.499277 0.499864 0.201600 -0.358206
N2    N     N_R   0.500675 0.500041 0.798299 -0.359159
N3    N     N_R   0.500000 0.857200 0.500000 -0.081155
N4    N     N_R   0.500000 0.142800 0.500000 -0.080977
O1    O     O_R   0.316770 0.614620 0.500000 -0.627734
O2    O     O_2   0.718444 0.471052 0.797351 -0.549815
O3    O     O_2   0.282907 0.529013 0.796857 -0.548639
O4    O     O_2   0.711514 0.439053 0.202956 -0.550975
O5    O     O_R   0.683230 0.385380 0.500000 -0.627707
O6    O     O_R   0.683230 0.614620 0.500000 -0.626051
O7    O     O_R   0.316770 0.385380 0.500000 -0.626001
O8    O     O_R   0.500030 0.614650 0.428760 -0.621337
O9    O     O_R   0.499970 0.385350 0.571240 -0.621125
O10   O     O_R   0.499970 0.614650 0.571240 -0.623784
O11   O     O_R   0.500030 0.385350 0.428760 -0.623757
O12   O     O_2   0.287042 0.560690 0.202481 -0.552110
Zn1   Zn    Zn3+2 0.500000 0.653120 0.500000 0.954002
Zn2   Zn    Zn3+2 0.500000 0.346880 0.500000 0.954187

loop_
_geom_bond_atom_site_label_1
_geom_bond_atom_site_label_2
_ccdc_geom_bond_type
C2    C35   A    
C43   H23   S    
C23   C45   A    
C17   O10   A    
C28   H19   S    
C27   N4    A    
C46   N2    S    
C30   H21   S    
C35   O3    S    
C47   C49   A    
C13   H10   S    
C39   H3    S    
O5    Zn2   S    
C28   C29   A    
C24   C26   A    
C5    C11   A    
O8    Zn1   S    
C11   C14   A    
C4    C41   A    
C12   O6    A    
C15   C50   A    
C22   H16   S    
C27   H18   S    
C24   H17   S    
C30   N3    A    
C33   N1    A    
C29   N4    A    
C3    C38   A    
C19   H13   S    
C22   C25   A    
O10   Zn1   S    
O6    Zn1   S    
C33   O4    S    
O1    Zn1   S    
C2    C34   A    
C40   C42   A    
C16   O11   A    
O9    Zn2   S    
C27   C30   A    
C16   O8    A    
C41   C43   A    
C42   C44   A    
C41   H12   S    
C11   H9    S    
O7    Zn2   S    
C1    O7    A    
C35   N2    A    
C48   H24   S    
C23   C50   A    
N4    Zn2   S    
C33   C50   A    
C8    C18   A    
C12   O5    A    
C20   H14   S    
C44   N1    S    
C5    C9    A    
C36   H6    S    
C32   O2    S    
C19   C49   A    
C31   N1    A    
C38   H4    S    
C4    C39   A    
C31   O12   S    
C42   H22   S    
O11   Zn2   S    
C28   N3    A    
C4    C17   S    
C20   C22   A    
C3    C40   A    
C7    C19   A    
C13   C15   A    
C9    C34   A    
C1    O1    A    
C32   C47   A    
C36   C44   A    
C29   H20   S    
C45   C48   A    
C7    C9    A    
C14   H7    S    
C21   C25   A    
N3    Zn1   S    
C21   H15   S    
C17   O9    A    
C49   H2    S    
C18   C48   A    
C32   N2    A    
C5    C8    A    
C18   H11   S    
C6    C7    A    
C10   C23   A    
C40   H1    S    
C12   C25   S    
C36   C38   A    
C37   C39   A    
C6    C13   A    
C1    C26   S    
C20   C26   A    
C15   H8    S    
C2    C14   A    
C43   C46   A    
C6    C10   A    
C37   H5    S    
C8    C10   A    
C31   C45   A    
C21   C24   A    
C34   C47   A    
C37   C46   A    
C3    C16   S    
