data_mof_unit_1581.cif
_audit_creation_date              2013-03-05T15:53:42-0500
_audit_creation_method            fapswitch 2.2
_symmetry_space_group_name_H-M    P1
_symmetry_Int_Tables_number       1
_space_group_crystal_system       triclinic
_cell_length_a                    14.901703
_cell_length_b                    14.834491
_cell_length_c                    16.965319
_cell_angle_alpha                 109.338183
_cell_angle_beta                  106.090375
_cell_angle_gamma                 108.246669
_cell_volume                      3042.21797306

loop_
_atom_site_label
_atom_site_type_symbol
_atom_site_description
_atom_site_fract_x
_atom_site_fract_y
_atom_site_fract_z
_atom_type_partial_charge
C1    C     C_R   0.088350 0.276338 0.055929 -0.198827
H1    H     H_    0.167520 0.294490 0.096243 0.123270
N1    N     N_R   0.055640 0.348550 0.045600 -0.059050
C2    C     C_R   0.935045 0.521116 0.747806 -0.139241
H2    H     H_    0.856122 0.501818 0.705543 0.085389
N2    N     N_R   0.960830 0.507850 0.823710 -0.040152
C3    C     C_R   0.775332 0.201448 0.810043 -0.127966
H3    H     H_    0.763040 0.135676 0.824965 0.162963
N3    N     N_R   0.811290 0.303400 0.871650 -0.037798
C4    C     C_R   0.253724 0.530157 0.944718 -0.141661
H4    H     H_    0.260547 0.560094 0.895894 0.110910
N4    N     N_R   0.205180 0.552990 0.997660 -0.040462
C5    C     C_R   0.782230 0.298480 0.734497 -0.118888
H5    H     H_    0.778246 0.325589 0.682637 0.095398
N5    N     N_R   0.814810 0.361830 0.823710 -0.044884
C6    C     C_R   0.255475 0.439318 0.026347 -0.123706
H6    H     H_    0.271808 0.390112 0.057027 0.088398
N6    N     N_R   0.201660 0.494570 0.045600 -0.037769
C7    C     C_R   0.107470 0.605684 0.824613 -0.150183
H7    H     H_    0.187321 0.664937 0.853097 0.088640
N7    N     N_R   0.068420 0.560530 0.871650 -0.038585
C8    C     C_R   0.915033 0.193699 0.982603 0.316184
N8    N     N_R   0.948050 0.295860 0.997660 -0.082742
C9    C     C_R   0.002473 0.176054 0.012705 -0.063723
C10   C     C_R   0.025608 0.582795 0.746337 0.072856
C11   C     C_R   0.759403 0.196190 0.723767 0.036337
C12   C     C_R   0.286691 0.458420 0.960912 0.066331
C13   C     C_R   0.273986 0.689772 0.252911 -0.137799
H8    H     H_    0.297209 0.653548 0.295477 0.087614
N9    N     N_R   0.185190 0.638170 0.176290 -0.039949
C14   C     C_R   0.704684 0.500314 0.918068 -0.157482
H9    H     H_    0.682027 0.522517 0.863869 0.103461
N10   N     N_R   0.798340 0.505430 0.954400 -0.043625
C15   C     C_R   0.889551 0.463219 0.187851 -0.068314
H10   H     H_    0.806908 0.434295 0.168938 0.094331
N11   N     N_R   0.931580 0.439470 0.128350 -0.030590
C16   C     C_R   0.079732 0.807643 0.053447 -0.119888
H11   H     H_    0.158740 0.868326 0.099061 0.100576
N12   N     N_R   0.051950 0.704140 0.002340 -0.041989
C17   C     C_R   0.907173 0.722900 0.978125 -0.122492
H12   H     H_    0.825531 0.704781 0.953795 0.099761
N13   N     N_R   0.944360 0.651450 0.954400 -0.042825
C18   C     C_R   0.063681 0.548170 0.265465 -0.125854
H13   H     H_    0.142417 0.597320 0.318401 0.098615
N14   N     N_R   0.039170 0.492150 0.176290 -0.045404
C19   C     C_R   0.279805 0.784916 0.175971 -0.144541
H14   H     H_    0.309466 0.836646 0.147559 0.088812
N15   N     N_R   0.188710 0.696600 0.128350 -0.039045
C20   C     C_R   0.697929 0.406739 0.996357 -0.121615
H15   H     H_    0.668782 0.345414 0.016250 0.119403
N16   N     N_R   0.794820 0.447010 0.002340 -0.040457
Ni1   Ni    Ni4+2 0.119330 0.493420 0.109950 0.208859
Ni2   Ni    Ni4+2 0.880670 0.506580 0.890050 0.203314
Ni3   Ni    Ni4+2 0.872590 0.372590 0.000000 0.291379
Ni4   Ni    Ni4+2 0.127410 0.627410 0.000000 0.206539
C21   C     C_R   0.336187 0.782522 0.254475 0.069589
C22   C     C_R   0.639376 0.438956 0.943133 0.066876
C23   C     C_R   0.970890 0.533355 0.274988 0.030299
C24   C     C_R   0.990339 0.822849 0.041342 0.054765
C25   C     C_R   0.393063 0.461037 0.871057 0.158168
C26   C     C_R   0.347677 0.416350 0.919584 0.033999
C27   C     C_R   0.376708 0.342654 0.940341 -0.196364
H16   H     H_    0.339885 0.301254 0.972583 0.129985
C28   C     C_R   0.466495 0.336431 0.934862 -0.192943
H17   H     H_    0.494439 0.289411 0.962438 0.134106
C29   C     C_R   0.527398 0.405055 0.909440 0.036028
C30   C     C_R   0.482007 0.455315 0.865963 0.155782
C31   C     C_3   0.527211 0.565505 0.874672 -0.507935
C32   C     C_3   0.430260 0.572003 0.880506 -0.508298
H18   H     H_    0.598562 0.623205 0.939845 0.203274
H19   H     H_    0.533561 0.565060 0.810791 0.191547
H20   H     H_    0.447231 0.633323 0.949101 0.203046
H21   H     H_    0.381003 0.575656 0.820108 0.192955
C33   C     C_R   0.961112 0.577291 0.361867 0.133253
C34   C     C_R   0.032565 0.624422 0.679629 0.126415
C35   C     C_R   0.136388 0.696583 0.608124 -0.220209
C36   C     C_R   0.130227 0.681049 0.683261 -0.175227
C37   C     C_R   0.941133 0.596359 0.605141 -0.279051
C38   C     C_R   0.946734 0.606402 0.527829 0.189206
C39   C     C_R   0.045217 0.652443 0.527905 0.183223
C40   C     C_R   0.051383 0.641618 0.445237 -0.271569
C41   C     C_R   0.862760 0.543463 0.363761 -0.165807
C42   C     C_R   0.855648 0.559438 0.446867 -0.223598
H22   H     H_    0.127646 0.673295 0.445807 0.119415
H23   H     H_    0.791276 0.497929 0.301085 0.116935
H24   H     H_    0.212519 0.733913 0.609667 0.132704
H25   H     H_    0.779390 0.525958 0.446264 0.126534
H26   H     H_    0.202325 0.707007 0.740878 0.119181
H27   H     H_    0.865040 0.556276 0.602161 0.115752
C43   C     C_R   0.719299 0.100142 0.636617 0.127867
C44   C     C_R   0.445201 0.856260 0.320122 0.126767
C45   C     C_R   0.589129 0.032885 0.392525 -0.217618
C46   C     C_R   0.496816 0.951961 0.317906 -0.170247
C47   C     C_R   0.494267 0.837150 0.392048 -0.277267
C48   C     C_R   0.582878 0.919879 0.469279 0.185982
C49   C     C_R   0.627683 0.019975 0.471023 0.183986
C50   C     C_R   0.700048 0.108692 0.554303 -0.269756
C51   C     C_R   0.685692 0.998484 0.632932 -0.164569
C52   C     C_R   0.618847 0.908137 0.548915 -0.220753
H28   H     H_    0.730272 0.185588 0.555123 0.118472
H29   H     H_    0.703873 0.988507 0.694810 0.146771
H30   H     H_    0.623960 0.108889 0.392473 0.129598
H31   H     H_    0.587034 0.831139 0.548009 0.131371
H32   H     H_    0.462883 0.968008 0.262103 0.117533
H33   H     H_    0.458343 0.762513 0.393525 0.116322
C53   C     C_R   0.093369 0.063218 0.969854 0.154202
C54   C     C_R   0.007545 0.071965 0.984462 0.030735
C55   C     C_R   0.919956 0.974711 0.952722 -0.143829
H34   H     H_    0.858460 0.972728 0.974565 0.192399
C56   C     C_R   0.908350 0.878558 0.887045 -0.196618
H35   H     H_    0.835623 0.806831 0.854849 0.135899
C57   C     C_R   0.989184 0.875947 0.860747 0.033016
C58   C     C_R   0.084523 0.967082 0.910291 0.147586
C59   C     C_3   0.158349 0.019519 0.877585 -0.469310
C60   C     C_3   0.168741 0.125163 0.943086 -0.517466
H36   H     H_    0.231280 0.010327 0.898186 0.192451
H37   H     H_    0.120017 0.998982 0.803545 0.202188
H38   H     H_    0.246923 0.175353 0.002220 0.179868
H39   H     H_    0.137785 0.166798 0.907179 0.209307
N17   N     N_R   0.813597 0.133339 0.974537 0.212329
O1    O     O_R   0.753565 0.036788 0.908070 -0.465420
O2    O     O_R   0.772183 0.183404 0.019712 -0.425665

loop_
_geom_bond_atom_site_label_1
_geom_bond_atom_site_label_2
_geom_bond_distance
_ccdc_geom_bond_type
C4    C12   1.376768 A    
N15   Ni4   1.859980 S    
C42   H25   1.083930 S    
C47   H33   1.080629 S    
N1    N8    1.383597 A    
C48   C49   1.410905 A    
C22   C29   1.455839 S    
C50   H28   1.081016 S    
C59   C60   1.521225 S    
C13   C21   1.384380 A    
N6    Ni1   1.854446 S    
C3    H3    1.061591 S    
C8    N17   1.435947 S    
C16   H11   1.079481 S    
C3    C11   1.387462 A    
N5    Ni2   1.818855 S    
N9    N15   1.370258 A    
C13   H8    1.079327 S    
C7    N7    1.338431 A    
C15   H10   1.078233 S    
N13   Ni2   1.818151 S    
C48   C52   1.398534 A    
C53   C54   1.404366 A    
C45   C49   1.397866 A    
C20   C22   1.383952 A    
C55   H34   1.075418 S    
C1    H1    1.078869 S    
C20   H15   1.080414 S    
C56   H35   1.081606 S    
C27   C28   1.395681 A    
C12   C26   1.457935 S    
C18   C23   1.394074 A    
C21   C44   1.467455 S    
N12   Ni4   1.832482 S    
C7    H7    1.080293 S    
C25   C30   1.378581 A    
C6    H6    1.074996 S    
C20   N16   1.338027 A    
C54   C55   1.411272 A    
C14   N10   1.326401 A    
C32   H21   1.111945 S    
C43   C50   1.402328 A    
C45   H30   1.083990 S    
C6    C12   1.393241 A    
C17   N13   1.342178 A    
C29   C30   1.400343 A    
C17   C24   1.394243 A    
C5    H5    1.076866 S    
C47   C48   1.388418 A    
C33   C41   1.406098 A    
C46   H32   1.080701 S    
C57   C58   1.391178 A    
N17   O2    1.300801 A    
C2    C10   1.385485 A    
N12   N13   1.383598 A    
C37   H27   1.080728 S    
N10   Ni2   1.854449 S    
C19   N15   1.337630 A    
C53   C58   1.387921 A    
C30   C31   1.497632 S    
N4    Ni4   1.833325 S    
C35   C36   1.390189 A    
C36   H26   1.080548 S    
C2    N2    1.336239 A    
C52   H31   1.083926 S    
N7    Ni4   1.860274 S    
C37   C38   1.389901 A    
C31   C32   1.505488 S    
N14   Ni1   1.854483 S    
N2    N7    1.383596 A    
C25   C26   1.401403 A    
C1    N1    1.348997 A    
C28   C29   1.405414 A    
C32   H20   1.112391 S    
C18   H13   1.077650 S    
C27   H16   1.074864 S    
C44   C46   1.405724 A    
C18   N14   1.335587 A    
C14   H9    1.079857 S    
C60   H38   1.110129 S    
C49   C50   1.387932 A    
N11   N14   1.383596 A    
C9    C54   1.490883 S    
C34   C36   1.406370 A    
C16   C24   1.390961 A    
C4    N4    1.325463 A    
C6    N6    1.342044 A    
C17   H12   1.079885 S    
C41   C42   1.390145 A    
C60   H39   1.112292 S    
C5    N5    1.332142 A    
C8    C9    1.400144 A    
C5    C11   1.382368 A    
C11   C43   1.468025 S    
N2    Ni2   1.854480 S    
N4    N6    1.370139 A    
C41   H23   1.080514 S    
C35   H24   1.083938 S    
C40   H22   1.081158 S    
N17   O1    1.300798 A    
C23   C33   1.469957 S    
N8    Ni3   1.832482 S    
C58   C59   1.487131 S    
C3    N3    1.342414 A    
N9    Ni1   1.818853 S    
C19   H14   1.080400 S    
C35   C39   1.398049 A    
C39   C40   1.390217 A    
C59   H36   1.111626 S    
N1    Ni1   1.818152 S    
N10   N16   1.370138 A    
C51   H29   1.080603 S    
C53   C60   1.491617 S    
N16   Ni3   1.833324 S    
C28   H17   1.081124 S    
C14   C22   1.373844 A    
C13   N9    1.334113 A    
N3    N5    1.370259 A    
C16   N12   1.342361 A    
C44   C47   1.402958 A    
C38   C42   1.398213 A    
C25   C32   1.499090 S    
C31   H19   1.111782 S    
C45   C46   1.389294 A    
C55   C56   1.411428 A    
C15   N11   1.337329 A    
C26   C27   1.404653 A    
C7    C10   1.382372 A    
C34   C37   1.403071 A    
C56   C57   1.402565 A    
C59   H37   1.112111 S    
N11   Ni3   1.860271 S    
C4    H4    1.075037 S    
C38   C39   1.411011 A    
C2    H2    1.079372 S    
C1    C9    1.397738 A    
C31   H18   1.112353 S    
C51   C52   1.389948 A    
C19   C21   1.382288 A    
C15   C23   1.391211 A    
C8    N8    1.345765 A    
N3    Ni3   1.859983 S    
C33   C40   1.402957 A    
C10   C34   1.469919 S    
C43   C51   1.405774 A    
