data_mof_unit_2824.cif
_audit_creation_date              2013-03-05T15:41:15-0500
_audit_creation_method            fapswitch 2.2
_symmetry_space_group_name_H-M    P1
_symmetry_Int_Tables_number       1
_space_group_crystal_system       triclinic
_cell_length_a                    8.004696
_cell_length_b                    8.626758
_cell_length_c                    13.560995
_cell_angle_alpha                 94.95547
_cell_angle_beta                  78.620405
_cell_angle_gamma                 91.069326
_cell_volume                      914.606812368

loop_
_atom_site_label
_atom_site_type_symbol
_atom_site_description
_atom_site_fract_x
_atom_site_fract_y
_atom_site_fract_z
_atom_type_partial_charge
O1    O     O_R   0.388300 0.738660 0.506400 -0.582056
O2    O     O_R   0.611700 0.261340 0.493600 -0.594332
O3    O     O_R   0.679920 0.711490 0.489690 -0.591699
O4    O     O_R   0.320080 0.288510 0.510310 -0.544134
C1    C     C_R   0.541999 0.792591 0.495961 0.909140
C2    C     C_R   0.458186 0.207396 0.503450 0.915657
O5    O     O_R   0.333200 0.515510 0.649910 -0.551450
O6    O     O_R   0.666800 0.484490 0.350090 -0.575561
O7    O     O_R   0.624820 0.488340 0.633200 -0.566060
O8    O     O_R   0.375180 0.511660 0.366800 -0.569245
C3    C     C_R   0.470410 0.505440 0.686585 0.936530
C4    C     C_R   0.529604 0.494698 0.313417 0.904211
Zn1   Zn    Zn3+2 0.305280 0.518140 0.511160 1.211196
Zn2   Zn    Zn3+2 0.694720 0.481860 0.488840 1.197635
C5    C     C_1   0.550324 0.483069 0.208550 0.030526
C6    C     C_1   0.449652 0.517205 0.791454 0.036477
C7    C     C_2   0.564487 0.466392 0.015456 0.169164
C8    C     C_2   0.435284 0.534086 0.984569 0.166219
C9    C     C_1   0.436863 0.526812 0.880139 0.077069
C10   C     C_1   0.562997 0.473571 0.119872 0.091650
C11   C     C_2   0.558107 0.948347 0.473436 0.062659
C12   C     C_2   0.442365 0.051768 0.525662 0.109732
N1    N     N_2   0.954190 0.457600 0.473930 0.102125
N2    N     N_2   0.045810 0.542400 0.526070 0.110765
N3    N     N_R   0.299632 0.619338 0.052472 0.231526
O9    O     O_R   0.150284 0.625590 0.028675 -0.281284
O10   O     O_R   0.331512 0.712104 0.127477 -0.316402
N4    N     N_R   0.700108 0.381198 0.947504 0.229242
O11   O     O_R   0.849778 0.375716 0.970952 -0.281747
O12   O     O_R   0.668000 0.287787 0.872854 -0.320906
S1    S     S_3+6 0.706289 0.981325 0.360541 0.106691
O13   O     O_2   0.640993 0.101261 0.303515 -0.251513
O14   O     O_2   0.871426 0.035624 0.388752 -0.204931
O15   O     O_3   0.741018 0.815325 0.284655 -0.517902
H1    H     H_    0.849523 0.773288 0.295743 0.405339
S2    S     S_3+6 0.295528 0.019583 0.638960 0.093697
O16   O     O_2   0.131183 0.962531 0.611038 -0.190341
O17   O     O_2   0.364593 0.903036 0.696820 -0.277311
O18   O     O_3   0.257791 0.187271 0.712596 -0.543074
H2    H     H_    0.163975 0.163124 0.768644 0.418886
S3    S     S_3+6 0.046246 0.390924 0.351345 0.197420
O19   O     O_2   0.916659 0.306737 0.300776 -0.177284
O20   O     O_2   0.109332 0.527024 0.292123 -0.274894
O21   O     O_3   0.202932 0.262471 0.347292 -0.513078
H3    H     H_    0.244860 0.232197 0.274568 0.378765
S4    S     S_3+6 0.952877 0.608695 0.648531 0.201812
O22   O     O_2   0.812545 0.722260 0.649984 -0.265620
O23   O     O_2   0.888718 0.472251 0.707209 -0.253920
O24   O     O_3   0.093789 0.703192 0.708118 -0.442368
H4    H     H_    0.032613 0.725170 0.778811 0.392979

loop_
_geom_bond_atom_site_label_1
_geom_bond_atom_site_label_2
_geom_bond_distance
_ccdc_geom_bond_type
Zn2   N1    2.059542 S    
O7    Zn2   1.923191 S    
S1    O14   1.502869 D    
N3    O10   1.301662 A    
S3    O20   1.503083 D    
C3    C6    1.393853 S    
S1    O13   1.503214 D    
N1    S3    1.733364 S    
C4    C5    1.393862 S    
O6    C4    1.299178 A    
N1    N2    1.291596 D    
N2    S4    1.732821 S    
C11   S1    1.782641 S    
N4    O12   1.301633 A    
C7    C8    1.349765 D    
S1    O15   1.683566 S    
C8    N3    1.444340 S    
C11   C12   1.348593 D    
O5    C3    1.299152 A    
O7    C3    1.307219 A    
S4    O24   1.673723 S    
O2    C2    1.291917 A    
O3    Zn2   1.985611 S    
O8    C4    1.307205 A    
C6    C9    1.182479 T    
O1    C1    1.292844 A    
S2    O17   1.503458 D    
N4    O11   1.301439 A    
C8    C9    1.409696 S    
C5    C10   1.182495 T    
O2    Zn2   2.005472 S    
S3    O21   1.678742 S    
S4    O23   1.503469 D    
O1    Zn1   2.005473 S    
C2    C12   1.399190 S    
O5    Zn1   1.940193 S    
C7    C10   1.409678 S    
C1    C11   1.401527 S    
O21   H3    0.990763 S    
O4    C2    1.302870 A    
O15   H1    0.990561 S    
S3    O19   1.496764 D    
O18   H2    0.990611 S    
O24   H4    0.990767 S    
S4    O22   1.500349 D    
S2    O16   1.502148 D    
O6    Zn2   1.940191 S    
N3    O9    1.301495 A    
C7    N4    1.444249 S    
S2    O18   1.681897 S    
C12   S2    1.779923 S    
O4    Zn1   1.985611 S    
Zn1   N2    2.059542 S    
O3    C1    1.302725 A    
O8    Zn1   1.923190 S    
