data_mof_unit_1186.cif
_audit_creation_date              2012-12-11T14:13:13-0500
_audit_creation_method            fapswitch 2.2
_symmetry_space_group_name_H-M    P1
_symmetry_Int_Tables_number       1
_space_group_crystal_system       triclinic
_cell_length_a                    11.604248
_cell_length_b                    18.498633
_cell_length_c                    9.910315
_cell_angle_alpha                 90.192612
_cell_angle_beta                  110.547929
_cell_angle_gamma                 89.819494
_cell_volume                      1992.01361856

loop_
_atom_site_label
_atom_site_type_symbol
_atom_type_description
_atom_site_fract_x
_atom_site_fract_y
_atom_site_fract_z
_atom_type_partial_charge
C1    C     C_R   0.071935 0.646583 0.139914 0.567132
C2    C     C_R   0.924576 0.354759 0.858878 0.557398
C3    C     C_R   0.928615 0.146406 0.859629 0.557972
C4    C     C_R   0.127638 0.862564 0.157810 0.577445
C5    C     C_R   0.394615 0.459113 0.485615 0.010093
C6    C     C_R   0.606858 0.541889 0.518341 0.013380
C7    C     C_R   0.605747 0.958623 0.515445 0.012208
C8    C     C_R   0.393421 0.041917 0.482847 0.015464
C9    C     C_2   0.407151 0.922215 0.908754 -0.119119
C10   C     C_2   0.596164 0.075910 0.086998 -0.100596
C11   C     C_2   0.594714 0.422960 0.091288 -0.119051
C12   C     C_2   0.404193 0.575743 0.912583 -0.098754
C13   C     C_2   0.506881 0.959658 0.987306 0.017411
C14   C     C_2   0.494118 0.039054 0.012742 0.022483
C15   C     C_2   0.494944 0.460199 0.013090 0.019196
C16   C     C_2   0.506973 0.539206 0.985853 0.024155
C17   C     C_2   0.088306 0.937626 0.142947 -0.111815
C18   C     C_2   0.006246 0.082071 0.886865 -0.127112
C19   C     C_2   0.976907 0.426256 0.881068 -0.116874
C20   C     C_2   0.002845 0.579826 0.111350 -0.124897
C21   C     C_2   0.092007 0.977242 0.032833 -0.171289
C22   C     C_2   0.040661 0.049982 0.014975 -0.174235
C23   C     C_2   0.954837 0.468658 0.978167 -0.159048
C24   C     C_2   0.995462 0.542620 0.993451 -0.171179
C25   C     C_R   0.470402 0.647417 0.444750 0.530065
C26   C     C_R   0.529877 0.352856 0.555807 0.530937
C27   C     C_R   0.529662 0.147346 0.555109 0.528442
C28   C     C_R   0.470150 0.852817 0.444539 0.523877
C29   C     C_R   0.377522 0.646236 0.959926 0.533928
C30   C     C_R   0.622390 0.353447 0.040787 0.531858
C31   C     C_R   0.622592 0.146281 0.039900 0.533379
C32   C     C_R   0.377930 0.853253 0.959252 0.523476
C33   C     C_R   0.504157 0.424925 0.488393 -0.048605
C34   C     C_R   0.497093 0.575954 0.514494 -0.050489
C35   C     C_R   0.496279 0.924795 0.512905 -0.046017
C36   C     C_R   0.502946 0.075673 0.485525 -0.048852
C37   C     C_R   0.284289 0.419740 0.457344 -0.084494
C38   C     C_R   0.716900 0.581560 0.546943 -0.083944
C39   C     C_R   0.716088 0.918948 0.543572 -0.084403
C40   C     C_R   0.283545 0.081873 0.456161 -0.086341
C41   C     C_R   0.182191 0.451397 0.476808 -0.128009
C42   C     C_R   0.819739 0.549995 0.529212 -0.128151
C43   C     C_R   0.818074 0.950137 0.523803 -0.126968
C44   C     C_R   0.182297 0.051134 0.478314 -0.139039
C45   C     C_R   0.188994 0.522168 0.526418 -0.126165
C46   C     C_R   0.813777 0.479104 0.480523 -0.125383
C47   C     C_R   0.811146 0.020732 0.474022 -0.127157
C48   C     C_R   0.189002 0.980408 0.527305 -0.137681
C49   C     C_R   0.294892 0.562808 0.547141 -0.066485
C50   C     C_R   0.707884 0.438293 0.458842 -0.066892
C51   C     C_R   0.705188 0.061671 0.453217 -0.068765
C52   C     C_R   0.293840 0.938922 0.544927 -0.077311
C53   C     C_R   0.396024 0.533377 0.516749 0.015070
C54   C     C_R   0.605856 0.467564 0.487656 0.014581
C55   C     C_R   0.604109 0.032727 0.483655 0.014641
C56   C     C_R   0.394856 0.967751 0.514183 0.012411
Cr1   Cr    Cr6+3 0.187610 0.750000 0.979860 0.997593
Cr2   Cr    Cr6+3 0.812390 0.250000 0.020140 0.998103
Cr3   Cr    Cr6+3 0.245810 0.750000 0.341640 1.001400
Cr4   Cr    Cr6+3 0.754190 0.250000 0.658360 1.006543
Cr5   Cr    Cr6+3 0.485760 0.750000 0.219910 0.999814
Cr6   Cr    Cr6+3 0.514240 0.250000 0.780090 1.004423
H1    H     H_    0.099116 0.420263 0.457366 0.102042
H2    H     H_    0.902737 0.581282 0.549187 0.101290
H3    H     H_    0.901183 0.918777 0.543153 0.105929
H4    H     H_    0.099807 0.082824 0.460845 0.101970
H5    H     H_    0.111916 0.545847 0.548129 0.101508
H6    H     H_    0.891439 0.455492 0.459995 0.101107
H7    H     H_    0.888175 0.044035 0.452194 0.102375
H8    H     H_    0.112446 0.957331 0.550465 0.104871
H9    H     H_    0.277287 0.364078 0.421080 0.114598
H10   H     H_    0.723081 0.637371 0.582223 0.114773
H11   H     H_    0.723129 0.863389 0.579857 0.116741
H12   H     H_    0.276615 0.137464 0.420070 0.113730
H13   H     H_    0.297864 0.616688 0.590897 0.133929
H14   H     H_    0.705658 0.384512 0.414986 0.134271
H15   H     H_    0.702120 0.115389 0.409364 0.133300
H16   H     H_    0.296479 0.885082 0.588026 0.137659
H17   H     H_    0.677137 0.047647 0.155972 0.097783
H18   H     H_    0.328802 0.949466 0.832674 0.089619
H19   H     H_    0.323130 0.547079 0.845092 0.095352
H20   H     H_    0.673712 0.450363 0.166103 0.088789
H21   H     H_    0.018732 0.074137 0.103342 0.154703
H22   H     H_    0.124204 0.954180 0.951271 0.151749
H23   H     H_    0.030903 0.564249 0.913701 0.159225
H24   H     H_    0.906936 0.448712 0.047344 0.160251
H25   H     H_    0.025162 0.056859 0.797466 0.105816
H26   H     H_    0.055090 0.960988 0.223357 0.116475
H27   H     H_    0.972883 0.556595 0.194218 0.099471
H28   H     H_    0.020632 0.447046 0.808383 0.097033
O1    O     O_R   0.267710 0.668200 0.902110 -0.533974
O2    O     O_R   0.732290 0.331800 0.097890 -0.532531
O3    O     O_R   0.732290 0.168200 0.097890 -0.532682
O4    O     O_R   0.267710 0.831800 0.902110 -0.538316
O5    O     O_R   0.099480 0.674460 0.038850 -0.499212
O6    O     O_R   0.900520 0.325540 0.961150 -0.502876
O7    O     O_R   0.900520 0.174460 0.961150 -0.501393
O8    O     O_R   0.099480 0.825540 0.038850 -0.497540
O9    O     O_R   0.116720 0.669210 0.267660 -0.510173
O10   O     O_R   0.883280 0.330790 0.732340 -0.515703
O11   O     O_R   0.883280 0.169210 0.732340 -0.515590
O12   O     O_R   0.116720 0.830790 0.267660 -0.520801
O13   O     O_R   0.366710 0.675440 0.427590 -0.507549
O14   O     O_R   0.633290 0.324560 0.572410 -0.509971
O15   O     O_R   0.633290 0.175440 0.572410 -0.508590
O16   O     O_R   0.366710 0.824560 0.427590 -0.524082
O17   O     O_R   0.534870 0.669390 0.371760 -0.513840
O18   O     O_R   0.465130 0.330610 0.628240 -0.510980
O19   O     O_R   0.465130 0.169390 0.628240 -0.515293
O20   O     O_R   0.534870 0.830610 0.371760 -0.510486
O21   O     O_R   0.453080 0.674480 0.075160 -0.490969
O22   O     O_R   0.546920 0.325520 0.924840 -0.493751
O23   O     O_R   0.546920 0.174480 0.924840 -0.493870
O24   O     O_R   0.453080 0.825520 0.075160 -0.497176
O25   O     O_3   0.306390 0.750000 0.180470 -0.249442
O26   O     O_3   0.693610 0.250000 0.819530 -0.230937
C57   C     C_3   0.368485 0.077681 0.963620 -0.247812
C58   C     C_3   0.351337 0.125712 0.081513 -0.435088
H29   H     H_    0.362477 0.093010 0.179011 0.155642
H30   H     H_    0.418022 0.170998 0.110542 0.145794
H31   H     H_    0.257321 0.149335 0.042571 0.136871
H32   H     H_    0.354737 0.109736 0.864776 0.179581
H33   H     H_    0.291145 0.039209 0.936721 0.126510
C59   C     C_3   0.632644 0.921653 0.035398 -0.256932
C60   C     C_3   0.711462 0.947525 0.949248 -0.445096
H34   H     H_    0.661328 0.938996 0.832300 0.157774
H35   H     H_    0.736102 0.005408 0.968044 0.165705
H36   H     H_    0.798334 0.915832 0.981334 0.150334
H37   H     H_    0.681919 0.928587 0.152959 0.152832
H38   H     H_    0.623464 0.862516 0.015884 0.161992
C61   C     C_3   0.632466 0.577619 0.033416 -0.250115
C62   C     C_3   0.647837 0.626092 0.915846 -0.434563
H39   H     H_    0.633108 0.594078 0.816342 0.155923
H40   H     H_    0.582609 0.672266 0.891103 0.147700
H41   H     H_    0.742699 0.648308 0.952725 0.137644
H42   H     H_    0.647455 0.609319 0.133355 0.177610
H43   H     H_    0.709641 0.538792 0.057448 0.126508
C63   C     C_3   0.369616 0.422930 0.974145 -0.261019
C64   C     C_3   0.298736 0.451261 0.067789 -0.447003
H44   H     H_    0.220899 0.414555 0.058279 0.140244
H45   H     H_    0.359604 0.452715 0.182645 0.163796
H46   H     H_    0.261296 0.506176 0.034810 0.162760
H47   H     H_    0.314792 0.428688 0.857731 0.147217
H48   H     H_    0.379692 0.363925 0.995223 0.156794

loop_
_geom_bond_atom_site_label_1
_geom_bond_atom_site_label_2
_ccdc_geom_bond_type
C32   O4    A    
C5    C37   A    
C12   C29   S    
C17   H26   S    
Cr3   O9    S    
C44   H4    S    
C7    C55   A    
C1    O9    A    
Cr1   O25   S    
Cr4   O14   S    
Cr6   O26   S    
C50   C54   A    
C5    C53   A    
Cr2   O3    S    
C38   C42   A    
C4    O8    A    
C63   H47   S    
C42   C46   A    
C64   H46   S    
Cr6   O18   S    
C27   O15   A    
C15   C16   S    
C3    C18   S    
C8    C36   A    
C12   H19   S    
C16   C61   S    
Cr2   O6    S    
C58   H29   S    
C47   H7    S    
C9    C13   D    
C9    C32   S    
C26   O14   A    
C11   C15   D    
C10   C31   S    
C20   C24   D    
C11   C30   S    
C28   O16   A    
C62   H39   S    
C23   H24   S    
C4    O12   A    
Cr5   O25   S    
C60   H36   S    
C23   C24   S    
C6    C38   A    
C24   H23   S    
C40   C44   A    
C43   H3    S    
C25   C34   S    
C15   C63   S    
C3    O11   A    
C35   C56   A    
C2    O10   A    
C13   C14   S    
Cr2   O26   S    
C8    C56   A    
Cr2   O7    S    
C6    C54   A    
C52   H16   S    
Cr5   O20   S    
C11   H20   S    
C64   H44   S    
C38   H10   S    
Cr3   O16   S    
C12   C16   D    
C31   O23   A    
C28   C35   S    
Cr6   O23   S    
C30   O2    A    
C61   H42   S    
C10   C14   D    
C26   O18   A    
C13   C59   S    
C25   O13   A    
C39   C43   A    
C28   O20   A    
C31   O3    A    
C17   C21   D    
C6    C34   A    
C30   O22   A    
C58   H31   S    
C19   C23   D    
C57   H32   S    
C51   H15   S    
C46   H6    S    
C61   H43   S    
C50   H14   S    
C3    O7    A    
C26   C33   S    
C21   H22   S    
C45   C49   A    
C1    O5    A    
C14   C57   S    
C49   H13   S    
C59   H38   S    
C44   C48   A    
C4    C17   S    
Cr3   O25   S    
Cr1   O4    S    
C37   H9    S    
C60   H34   S    
Cr4   O26   S    
C41   H1    S    
Cr4   O11   S    
Cr5   O21   S    
C42   H2    S    
C29   O1    A    
C25   O17   A    
C60   H35   S    
C33   C54   A    
C1    C20   S    
C7    C39   A    
Cr1   O1    S    
C2    C19   S    
C18   C22   D    
Cr3   O12   S    
C7    C35   A    
C29   O21   A    
C48   H8    S    
Cr4   O10   S    
C47   C51   A    
C10   H17   S    
C45   H5    S    
C27   C36   S    
C20   H27   S    
C46   C50   A    
C18   H25   S    
Cr3   O13   S    
C22   H21   S    
C2    O6    A    
C57   H33   S    
C36   C55   A    
C63   H48   S    
C57   C58   S    
C64   H45   S    
Cr6   O19   S    
Cr2   O2    S    
C62   H41   S    
C49   C53   A    
Cr1   O8    S    
C40   H12   S    
C59   H37   S    
C51   C55   A    
C5    C33   A    
C39   H11   S    
C37   C41   A    
Cr5   O17   S    
C58   H30   S    
C63   C64   S    
C52   C56   A    
C48   C52   A    
Cr6   O22   S    
C27   O19   A    
C34   C53   A    
C62   H40   S    
Cr1   O5    S    
Cr5   O24   S    
C19   H28   S    
C41   C45   A    
C8    C40   A    
C32   O24   A    
C21   C22   S    
C43   C47   A    
C9    H18   S    
Cr4   O15   S    
C61   C62   S    
C59   C60   S    
