data_mof_unit_3929.cif
_audit_creation_date              2013-03-05T16:42:13-0500
_audit_creation_method            fapswitch 2.2
_symmetry_space_group_name_H-M    P1
_symmetry_Int_Tables_number       1
_space_group_crystal_system       triclinic
_cell_length_a                    14.928449
_cell_length_b                    10.670518
_cell_length_c                    9.868126
_cell_angle_alpha                 90.224071
_cell_angle_beta                  89.669597
_cell_angle_gamma                 89.712683
_cell_volume                      1571.87796338

loop_
_atom_site_label
_atom_site_type_symbol
_atom_site_description
_atom_site_fract_x
_atom_site_fract_y
_atom_site_fract_z
_atom_type_partial_charge
O1    O     O_R   0.500010 0.316790 0.614690 -0.632380
O2    O     O_R   0.500000 0.316760 0.385350 -0.630123
C1    C     C_R   0.497755 0.259989 0.499748 0.897802
O3    O     O_R   0.367850 0.499990 0.614680 -0.563395
O4    O     O_R   0.367840 0.499950 0.385340 -0.606952
C2    C     C_R   0.327185 0.500157 0.500212 0.996067
Zn1   Zn    Zn3+2 0.500010 0.500020 0.653130 1.034644
Zn2   Zn    Zn3+2 0.499990 0.499980 0.346870 1.029254
O5    O     O_R   0.500000 0.683240 0.614650 -0.618444
O6    O     O_R   0.499990 0.683210 0.385310 -0.596251
O7    O     O_R   0.632160 0.500050 0.614660 -0.630688
O8    O     O_R   0.632150 0.500010 0.385320 -0.595977
C3    C     C_R   0.497642 0.740145 0.500203 0.974318
C4    C     C_R   0.672707 0.501309 0.499603 0.928397
C5    C     C_R   0.811145 0.619453 0.470916 0.299624
C6    C     C_R   0.767708 0.506497 0.498241 -0.161778
C7    C     C_R   0.813777 0.397590 0.527680 -0.243416
C8    C     C_R   0.906030 0.398476 0.530520 0.099292
C9    C     C_R   0.952907 0.509538 0.499424 0.034148
C10   C     C_R   0.905608 0.621048 0.465762 -0.137154
C11   C     C_R   0.951082 0.289769 0.568013 -0.216924
C12   C     C_R   0.043820 0.287172 0.573988 0.334059
C13   C     C_R   0.092774 0.393803 0.531698 -0.009852
C14   C     C_R   0.046708 0.507999 0.501842 -0.060138
C15   C     C_R   0.094417 0.619682 0.472802 -0.096734
C16   C     C_R   0.047624 0.727175 0.426282 0.250549
C17   C     C_R   0.953877 0.728240 0.424539 0.247441
C18   C     C_R   0.185820 0.389890 0.513422 0.220947
C19   C     C_R   0.231734 0.502519 0.500023 -0.223771
C20   C     C_R   0.187822 0.617751 0.487208 0.276420
H1    H     H_    0.777153 0.312411 0.550448 0.159739
H2    H     H_    0.913649 0.207711 0.598962 0.206362
C21   C     C_R   0.475597 0.064936 0.621177 0.109075
C22   C     C_R   0.483548 0.128790 0.499118 -0.087618
C23   C     C_R   0.473464 0.064411 0.376117 -0.149741
H3    H     H_    0.472252 0.112635 0.279723 0.183208
C24   C     C_R   0.473566 0.935081 0.376549 -0.048705
H4    H     H_    0.472609 0.885905 0.280332 0.218466
C25   C     C_R   0.483079 0.871681 0.500054 -0.123433
C26   C     C_R   0.474184 0.937051 0.621928 0.148192
C27   C     C_3   0.528157 0.930873 0.749692 0.099388
C28   C     C_3   0.530238 0.073234 0.747288 -0.514785
H5    H     H_    0.594756 0.884916 0.737067 0.142043
H6    H     H_    0.492585 0.119215 0.831589 0.226633
H7    H     H_    0.598332 0.111437 0.728359 0.199252
C29   C     C_R   0.460948 0.404202 0.071601 0.137221
N1    N     N_R   0.499390 0.499140 0.142800 -0.107396
C30   C     C_R   0.547050 0.586632 0.071883 -0.015961
H8    H     H_    0.583464 0.658240 0.126106 0.188008
C31   C     C_R   0.547604 0.586028 0.927880 0.006619
H9    H     H_    0.584874 0.656653 0.873497 0.153062
N2    N     N_R   0.499390 0.499180 0.857150 -0.102850
C32   C     C_R   0.459027 0.405921 0.929251 0.066418
C33   C     C_3   0.361863 0.369582 0.929620 0.098914
C34   C     C_3   0.366161 0.362963 0.083515 -0.477893
H10   H     H_    0.349186 0.277579 0.880032 0.155094
H11   H     H_    0.322809 0.432271 0.137331 0.257528
H12   H     H_    0.361249 0.265736 0.122804 0.201832
N3    N     N_R   0.758760 0.732218 0.460701 0.207303
O9    O     O_R   0.704737 0.748303 0.359191 -0.371663
O10   O     O_R   0.756661 0.811081 0.561537 -0.376853
N4    N     N_R   0.477191 0.883697 0.865762 0.229509
O11   O     O_R   0.510299 0.893869 0.986927 -0.411376
O12   O     O_R   0.400068 0.829265 0.849646 -0.263578
N5    N     N_R   0.301491 0.469483 0.884498 0.262190
O13   O     O_R   0.313788 0.585237 0.921966 -0.286091
O14   O     O_R   0.227912 0.440125 0.822436 -0.326687
N6    N     N_R   0.085436 0.181873 0.638818 0.250117
O15   O     O_R   0.137595 0.200270 0.742148 -0.282483
O16   O     O_R   0.057530 0.068873 0.613568 -0.268446
Br1   Br    Br    0.251635 0.234335 0.485787 -0.378341
N7    N     N_R   0.238490 0.731254 0.497661 0.218888
O17   O     O_R   0.224801 0.807400 0.599071 -0.250694
O18   O     O_R   0.299039 0.757834 0.407085 -0.375300
Br2   Br    Br    0.106595 0.866332 0.337162 -0.180502
N8    N     N_R   0.908973 0.834927 0.368185 0.259479
O19   O     O_R   0.877610 0.829064 0.245607 -0.300801
O20   O     O_R   0.910614 0.942246 0.431167 -0.282331

loop_
_geom_bond_atom_site_label_1
_geom_bond_atom_site_label_2
_geom_bond_distance
_ccdc_geom_bond_type
C8    C11   1.390373 A    
C27   C28   1.519806 S    
C23   H3    1.083458 S    
C33   N5    1.464780 S    
C32   C33   1.503309 S    
Zn1   O7    2.006839 S    
C16   C17   1.399695 A    
N4    O11   1.300785 A    
C21   C28   1.494489 S    
C18   C19   1.392870 A    
C23   C24   1.380032 A    
N8    O20   1.301206 A    
Zn1   N2    2.013319 S    
C8    C9    1.413153 A    
O4    C2    1.282721 A    
O7    C4    1.283733 A    
C5    C6    1.397959 A    
C22   C23   1.401603 A    
O5    C3    1.284929 A    
N4    O12   1.302413 A    
C29   N1    1.361672 A    
C9    C10   1.421997 A    
N6    O15   1.301426 A    
N5    O14   1.299779 A    
C29   C34   1.488109 S    
C31   N2    1.368008 A    
C13   C14   1.428746 A    
C19   C20   1.397031 A    
C30   C31   1.421011 A    
N3    O9    1.300985 A    
C11   C12   1.386169 A    
C27   H5    1.112511 S    
C28   H6    1.112376 S    
C27   N4    1.463733 S    
O3    Zn1   2.011248 S    
C7    C8    1.377726 A    
C5    C10   1.410994 A    
C11   H2    1.085015 S    
C33   H10   1.112754 S    
N3    O10   1.300804 A    
C21   C26   1.364918 A    
N8    O19   1.300974 A    
O3    C2    1.285457 A    
C25   C26   1.393298 A    
C6    C7    1.380135 A    
C1    C22   1.416983 S    
C31   H9    1.081389 S    
C15   C16   1.419200 A    
O1    C1    1.284640 A    
C28   H7    1.112198 S    
C24   H4    1.083235 S    
N1    C30   1.368788 A    
Zn2   O8    2.011247 S    
C16   Br2   1.941054 S    
C13   C18   1.400052 A    
C14   C15   1.420703 A    
C12   N6    1.435588 S    
N7    O18   1.300627 A    
C26   C27   1.501658 S    
O8    C4    1.283141 A    
C34   H11   1.111745 S    
C7    H1    1.086588 S    
C4    C6    1.419565 S    
C18   Br1   1.942120 S    
C17   N8    1.433934 S    
N2    C32   1.366081 A    
C15   C20   1.402489 A    
Zn1   O5    1.993043 S    
C33   C34   1.522280 S    
C30   H8    1.081647 S    
O1    Zn1   1.990160 S    
C5    N3    1.435962 S    
O2    Zn2   1.993043 S    
N7    O17   1.301156 A    
O6    C3    1.284409 A    
O4    Zn2   2.006839 S    
C20   N7    1.434824 S    
C10   C17   1.414753 A    
C9    C14   1.400652 A    
Zn2   N1    2.013845 S    
C24   C25   1.403820 A    
C29   C32   1.405369 A    
C21   C22   1.390944 A    
O2    C1    1.283589 A    
C3    C25   1.419222 S    
C2    C19   1.425051 S    
Zn2   O6    1.990161 S    
N5    O13   1.302115 A    
C34   H12   1.111574 S    
N6    O16   1.301306 A    
C12   C13   1.418226 A    
