data_mof_unit_458.cif
_audit_creation_date              2012-12-11T14:23:05-0500
_audit_creation_method            fapswitch 2.2
_symmetry_space_group_name_H-M    P1
_symmetry_Int_Tables_number       1
_space_group_crystal_system       triclinic
_cell_length_a                    11.084704
_cell_length_b                    10.947924
_cell_length_c                    18.846502
_cell_angle_alpha                 89.587308
_cell_angle_beta                  89.200176
_cell_angle_gamma                 59.624802
_cell_volume                      1972.97024175

loop_
_atom_site_label
_atom_site_type_symbol
_atom_type_description
_atom_site_fract_x
_atom_site_fract_y
_atom_site_fract_z
_atom_type_partial_charge
C1    C     C_R   0.237902 0.645229 0.610645 0.558641
C2    C     C_3   0.767974 0.509799 0.794914 -0.250754
C3    C     C_3   0.699275 0.668571 0.814146 0.012853
C4    C     C_3   0.669045 0.642270 0.678684 0.062667
C5    C     C_3   0.742435 0.728860 0.688270 0.223450
C6    C     C_3   0.756586 0.494395 0.715254 -0.208084
C7    C     C_R   0.694485 0.143863 0.819627 -0.067189
C8    C     C_R   0.807946 0.131629 0.777211 -0.006877
C9    C     C_R   0.798263 0.130055 0.701984 -0.047526
C10   C     C_R   0.568615 0.155979 0.713322 0.330433
C11   C     C_R   0.574913 0.161250 0.785300 -0.125168
C12   C     C_R   0.651966 0.619820 0.602441 0.595311
C13   C     C_R   0.929198 0.123019 0.805782 -0.118705
C14   C     C_R   0.038631 0.106719 0.761314 -0.107878
C15   C     C_R   0.031049 0.096984 0.687863 0.078894
C16   C     C_R   0.913876 0.103186 0.659085 -0.061544
C17   C     C_R   0.672746 0.155613 0.670807 0.004664
C18   C     C_R   0.190809 0.661086 0.836813 -0.010205
C19   C     C_R   0.198611 0.545396 0.800079 0.007292
C20   C     C_R   0.187200 0.551080 0.724943 0.039606
C21   C     C_R   0.210342 0.759333 0.725921 -0.160502
C22   C     C_R   0.206159 0.761853 0.798971 -0.157707
C23   C     C_R   0.629647 0.223510 0.601095 0.544910
C24   C     C_R   0.213730 0.425914 0.836686 -0.096903
C25   C     C_R   0.195580 0.325690 0.801849 -0.121788
C26   C     C_R   0.164606 0.342120 0.730124 -0.067594
C27   C     C_R   0.162600 0.451518 0.691335 0.006120
C28   C     C_R   0.198984 0.657112 0.686992 0.018654
C29   C     C_R   0.709060 0.691612 0.180524 0.037848
C30   C     C_R   0.825669 0.612685 0.226734 -0.035299
C31   C     C_R   0.801752 0.624799 0.300574 -0.046172
C32   C     C_R   0.554709 0.724705 0.278441 -0.138982
C33   C     C_R   0.573005 0.740600 0.206698 0.079149
C34   C     C_R   0.293517 0.620432 0.393181 0.559848
C35   C     C_R   0.962103 0.509217 0.203472 -0.161616
C36   C     C_R   0.066547 0.428468 0.251896 -0.117144
C37   C     C_R   0.046633 0.461462 0.323364 0.383436
C38   C     C_R   0.916263 0.565600 0.347387 -0.040237
C39   C     C_R   0.665563 0.673862 0.325771 -0.018501
C40   C     C_R   0.623351 0.181952 0.171905 0.013292
C41   C     C_R   0.544297 0.143825 0.217272 0.022450
C42   C     C_R   0.578617 0.122288 0.289448 -0.037737
C43   C     C_R   0.688844 0.263982 0.274237 -0.164437
C44   C     C_R   0.684279 0.253955 0.200668 -0.191909
C45   C     C_R   0.644070 0.626811 0.394436 0.525791
C46   C     C_R   0.428839 0.132253 0.194879 0.400099
C47   C     C_R   0.367406 0.079209 0.240895 -0.074818
C48   C     C_R   0.418514 0.037519 0.309060 -0.138307
C49   C     C_R   0.528522 0.051385 0.332055 -0.085275
C50   C     C_R   0.643694 0.191008 0.319147 0.007170
C51   C     C_R   0.137168 0.682608 0.186627 -0.000091
C52   C     C_R   0.101285 0.799720 0.231877 0.022345
C53   C     C_R   0.185349 0.780276 0.289299 0.026546
C54   C     C_R   0.295717 0.524690 0.274289 -0.137216
C55   C     C_R   0.242285 0.547043 0.206000 -0.170981
C56   C     C_R   0.616035 0.233378 0.393634 0.519175
C57   C     C_R   0.993181 0.938873 0.217212 -0.063374
C58   C     C_R   0.001084 0.054644 0.240981 -0.106350
C59   C     C_R   0.095341 0.036358 0.292148 -0.149491
C60   C     C_R   0.185796 0.901410 0.316460 -0.099303
C61   C     C_R   0.261823 0.641005 0.317782 -0.002229
C62   C     C_R   0.704431 0.098943 0.894743 0.534553
C63   C     C_R   0.721908 0.685323 0.889557 0.547615
C64   C     C_R   0.121771 0.703599 0.906782 0.545136
C65   C     C_R   0.669773 0.112395 0.102339 0.533217
C66   C     C_R   0.731440 0.714225 0.105844 0.560250
C67   C     C_3   0.542053 0.742422 0.796502 -0.269639
C68   C     C_R   0.086868 0.712504 0.114434 0.532329
C69   C     C_3   0.525020 0.720271 0.717457 -0.289615
C70   C     C_3   0.768411 0.736359 0.768090 -0.166545
Cr1   Cr    Cr6+3 0.392940 0.397950 0.502230 1.109695
Cr2   Cr    Cr6+3 0.398400 0.708500 0.501260 0.996535
Cr3   Cr    Cr6+3 0.708640 0.393530 0.496460 1.017992
Cr4   Cr    Cr6+3 0.937880 0.938320 0.007620 1.008977
Cr5   Cr    Cr6+3 0.625560 0.937220 0.994510 1.070456
Cr6   Cr    Cr6+3 0.938080 0.625010 0.001190 1.010196
H1    H     H_    0.490253 0.857963 0.807616 0.150899
H2    H     H_    0.863972 0.435780 0.691871 0.181141
H3    H     H_    0.882846 0.680504 0.778049 0.172467
H4    H     H_    0.939975 0.133861 0.861747 0.147879
H5    H     H_    0.486181 0.169211 0.814114 0.175331
H6    H     H_    0.131588 0.097048 0.784336 0.113109
H7    H     H_    0.915557 0.084743 0.602665 0.141303
H8    H     H_    0.230897 0.834608 0.700175 0.166241
H9    H     H_    0.489726 0.698388 0.830092 0.127851
H10   H     H_    0.240460 0.408794 0.892302 0.139982
H11   H     H_    0.209731 0.846901 0.825933 0.141839
H12   H     H_    0.204635 0.236272 0.831072 0.103308
H13   H     H_    0.145488 0.268178 0.703845 0.167802
H14   H     H_    0.136635 0.459117 0.635872 0.185230
H15   H     H_    0.454575 0.744493 0.296836 0.111255
H16   H     H_    0.991490 0.477795 0.149410 0.196596
H17   H     H_    0.166003 0.344732 0.233102 0.159109
H18   H     H_    0.476221 0.653770 0.713071 0.136677
H19   H     H_    0.901918 0.587717 0.403773 0.160923
H20   H     H_    0.729744 0.327065 0.295839 0.155727
H21   H     H_    0.731916 0.298002 0.166338 0.129199
H22   H     H_    0.278311 0.073636 0.223298 0.139329
H23   H     H_    0.371263 0.999367 0.346019 0.120186
H24   H     H_    0.565285 0.018170 0.385616 0.146624
H25   H     H_    0.362068 0.417906 0.293243 0.169096
H26   H     H_    0.909195 0.956355 0.183669 0.156560
H27   H     H_    0.276471 0.458673 0.170022 0.176301
H28   H     H_    0.455356 0.824800 0.692321 0.163368
H29   H     H_    0.939314 0.158073 0.218541 0.125405
H30   H     H_    0.099799 0.126374 0.312321 0.138761
H31   H     H_    0.259523 0.894840 0.354370 0.146285
H32   H     H_    0.725444 0.848967 0.783386 0.101436
H33   H     H_    0.674676 0.837866 0.667343 0.158863
H34   H     H_    0.880604 0.450669 0.809075 0.153052
H35   H     H_    0.715642 0.460892 0.824746 0.124061
H36   H     H_    0.707044 0.429200 0.706472 0.124638
O1    O     O_R   0.507340 0.255690 0.581430 -0.430229
O2    O     O_R   0.524510 0.695820 0.424050 -0.534936
O3    O     O_R   0.736370 0.504260 0.414810 -0.513858
O4    O     O_R   0.691220 0.277270 0.422180 -0.508234
O5    O     O_3   0.499990 0.499990 0.499980 -0.297770
O6    O     O_R   0.089570 0.825450 0.930590 -0.516296
O7    O     O_R   0.818700 0.054260 0.929860 -0.503847
O8    O     O_R   0.606310 0.077010 0.915520 -0.529014
O9    O     O_R   0.646730 0.806540 0.917560 -0.504211
O10   O     O_R   0.837290 0.593240 0.915240 -0.522906
O11   O     O_R   0.065320 0.635310 0.931580 -0.506346
O12   O     O_R   0.280360 0.527380 0.578910 -0.494385
O13   O     O_R   0.068470 0.828620 0.091850 -0.517801
O14   O     O_R   0.799150 0.057200 0.079350 -0.534510
O15   O     O_R   0.585220 0.080180 0.076770 -0.432806
O16   O     O_R   0.627170 0.809480 0.067050 -0.447456
O17   O     O_R   0.816200 0.596410 0.076500 -0.546216
O18   O     O_R   0.045770 0.638240 0.081070 -0.525309
O19   O     O_3   0.833840 0.833520 0.001110 -0.283668
O20   O     O_R   0.260600 0.739610 0.584580 -0.541824
O21   O     O_R   0.532370 0.695050 0.573830 -0.516631
O22   O     O_R   0.744850 0.503430 0.576380 -0.494544
O23   O     O_R   0.699080 0.276500 0.571950 -0.537705
O24   O     O_R   0.498860 0.256520 0.419860 -0.500819
O25   O     O_R   0.272490 0.528150 0.429140 -0.416936
O26   O     O_R   0.252110 0.740440 0.423010 -0.535846
F1    F     F_    0.867752 0.668307 0.650722 -0.671105
F2    F     F_    0.455942 0.156473 0.685573 -0.638244
N1    N     N_3   0.142856 0.080140 0.642116 -0.642942
H37   H     H_    0.102369 0.167388 0.607942 0.232017
H38   H     H_    0.173788 0.992063 0.609820 0.256556
N2    N     N_3   0.456544 0.790411 0.159395 -0.572970
H39   H     H_    0.470937 0.703529 0.129777 0.239721
H40   H     H_    0.362926 0.826537 0.187745 0.227350
F3    F     F_    0.151203 0.386810 0.369764 -0.631658
F4    F     F_    0.360178 0.192391 0.133798 -0.646361

loop_
_geom_bond_atom_site_label_1
_geom_bond_atom_site_label_2
_ccdc_geom_bond_type
C8    C13   A    
C55   H27   S    
C41   C42   A    
C54   C55   A    
C54   H25   S    
C35   C36   A    
C67   H1    S    
C1    O20   A    
C57   C58   A    
C7    C8    A    
Cr1   O25   S    
C11   H5    S    
C26   H13   S    
C7    C11   A    
Cr4   O7    S    
C26   C27   A    
C29   C30   A    
Cr3   O4    S    
C30   C35   A    
C65   O15   A    
C36   C37   A    
C9    C16   A    
C18   C19   A    
N1    H38   S    
C30   C31   A    
Cr6   O19   S    
C6    H2    S    
C32   H15   S    
C10   C17   A    
C15   C16   A    
Cr2   O2    S    
C64   O6    A    
Cr1   O1    S    
C27   H14   S    
Cr5   O16   S    
C44   H21   S    
C32   C39   A    
C56   O24   A    
C15   N1    S    
Cr6   O18   S    
C45   O2    A    
C46   F4    S    
Cr3   O23   S    
C29   C33   A    
C66   O16   A    
C8    C9    A    
Cr2   O5    S    
C1    C28   S    
C41   C46   A    
C5    F1    S    
C13   C14   A    
C4    C12   S    
C62   O8    A    
C39   C45   S    
C66   O17   A    
C35   H16   S    
Cr2   O26   S    
C13   H4    S    
C59   C60   A    
C12   O22   A    
C21   C22   A    
C2    C6    S    
C10   F2    S    
C36   H17   S    
C4    C69   S    
C63   O9    A    
C53   C60   A    
Cr5   O19   S    
Cr2   O20   S    
C33   N2    S    
Cr4   O6    S    
C2    H35   S    
C67   H9    S    
C59   H30   S    
Cr3   O5    S    
Cr1   O5    S    
C51   C52   A    
Cr1   O12   S    
C3    C70   S    
C24   C25   A    
C4    C6    S    
C69   H18   S    
C10   C11   A    
Cr1   O24   S    
N2    H39   S    
C20   C28   A    
C58   C59   A    
C34   O26   A    
C16   H7    S    
C50   C56   S    
C67   C69   S    
C38   H19   S    
C43   C44   A    
C7    C62   S    
C37   C38   A    
C57   H26   S    
C23   O1    A    
Cr6   O17   S    
C45   O3    A    
C47   C48   A    
C21   H8    S    
C43   H20   S    
C56   O4    A    
C17   C23   S    
C22   H11   S    
C37   F3    S    
C68   O18   A    
C47   H22   S    
C62   O7    A    
C60   H31   S    
C42   C50   A    
N2    H40   S    
C40   C41   A    
C54   C61   A    
C21   C28   A    
C40   C65   S    
C14   H6    S    
C53   C61   A    
C63   O10   A    
C52   C53   A    
C69   H28   S    
C9    C17   A    
C48   H23   S    
C46   C47   A    
C48   C49   A    
C70   H3    S    
Cr5   O9    S    
Cr6   O11   S    
C6    H36   S    
C3    C67   S    
Cr5   O8    S    
C4    C5    S    
C5    C70   S    
C43   C50   A    
C20   C27   A    
C3    C63   S    
C64   O11   A    
C34   O25   A    
Cr3   O3    S    
C31   C38   A    
C23   O23   A    
C12   O21   A    
C58   H29   S    
Cr6   O10   S    
C32   C33   A    
C19   C20   A    
C18   C22   A    
C19   C24   A    
C25   C26   A    
C1    O12   A    
C70   H32   S    
N1    H37   S    
C65   O14   A    
C49   H24   S    
C18   C64   S    
Cr2   O21   S    
Cr4   O14   S    
C5    H33   S    
C31   C39   A    
C2    C3    S    
C51   C55   A    
C51   C68   S    
C25   H12   S    
C52   C57   A    
C42   C49   A    
C29   C66   S    
Cr4   O13   S    
C40   C44   A    
Cr3   O22   S    
C34   C61   S    
C14   C15   A    
Cr4   O19   S    
C24   H10   S    
C68   O13   A    
Cr5   O15   S    
C2    H34   S    
