data_mof_unit_1733.cif
_audit_creation_date              2012-10-26T20:22:29-0400
_audit_creation_method            fapswitch 2.2
_symmetry_space_group_name_H-M    P1
_symmetry_Int_Tables_number       1
_space_group_crystal_system       triclinic
_cell_length_a                    9.582663
_cell_length_b                    10.894083
_cell_length_c                    16.768163
_cell_angle_alpha                 94.22571
_cell_angle_beta                  85.581255
_cell_angle_gamma                 89.480206
_cell_volume                      1740.36181816

loop_
_atom_site_label
_atom_site_type_symbol
_atom_type_description
_atom_site_fract_x
_atom_site_fract_y
_atom_site_fract_z
_atom_type_partial_charge
C1    C     C_R   0.501109 0.737536 0.496989 0.565989
C2    C     C_R   0.083578 0.430399 0.442435 0.342221
C3    C     C_R   0.066483 0.574453 0.555257 0.316653
C4    C     C_R   0.934307 0.431766 0.441664 0.315190
C5    C     C_R   0.480481 0.493444 0.651499 0.578434
C6    C     C_R   0.519379 0.507140 0.348739 0.583638
C7    C     C_R   0.464044 0.492930 0.740707 -0.070993
C8    C     C_R   0.537405 0.534735 0.262666 -0.054470
C9    C     C_R   0.572431 0.452732 0.785273 0.198965
C10   C     C_R   0.445382 0.490241 0.206049 0.199595
C11   C     C_R   0.569477 0.490855 0.868767 0.181213
C12   C     C_R   0.499482 0.262867 0.503879 0.541718
C13   C     C_R   0.474008 0.509251 0.123310 0.179452
C14   C     C_R   0.456819 0.566821 0.904874 -0.011636
C15   C     C_R   0.578743 0.593915 0.099806 -0.037162
C16   C     C_R   0.333627 0.570594 0.864300 0.285960
C17   C     C_R   0.674395 0.634018 0.156688 0.254818
C18   C     C_R   0.336729 0.532988 0.782931 0.225505
C19   C     C_R   0.650470 0.608877 0.237840 0.211312
C20   C     C_2   0.463043 0.649056 0.980560 0.356738
C21   C     C_2   0.581289 0.652536 0.020229 0.341181
C22   C     C_3   0.797177 0.380344 0.744746 -0.096946
C23   C     C_R   0.631554 0.937548 0.491190 0.245093
C24   C     C_3   0.208565 0.505307 0.227703 -0.073226
C25   C     C_3   0.862521 0.640650 0.292443 -0.008395
C26   C     C_3   0.157499 0.420711 0.736970 -0.064609
C27   C     C_3   0.722849 0.764727 0.935989 -0.094051
C28   C     C_3   0.326515 0.790323 0.061582 -0.083641
C29   C     C_3   0.145542 0.522692 0.947141 -0.099066
C30   C     C_3   0.891955 0.636460 0.092736 -0.107665
C31   C     C_3   0.386025 0.327161 0.068338 -0.100506
C32   C     C_3   0.672026 0.335049 0.930161 -0.081555
C33   C     C_3   0.840129 0.656280 0.685324 -0.104468
C34   C     C_R   0.373573 0.063447 0.515177 0.199643
C35   C     C_3   0.175119 0.251996 0.373111 -0.032578
C36   C     C_3   0.113379 0.773795 0.599731 -0.022254
C37   C     C_3   0.846963 0.261223 0.373144 -0.078181
C38   C     C_R   0.626673 0.064957 0.497439 -0.139330
C39   C     C_R   0.377852 0.936792 0.501607 -0.153630
C40   C     C_R   0.498963 0.129295 0.507057 -0.013774
C41   C     C_R   0.504746 0.871639 0.494643 -0.006762
C42   C     C_R   0.915581 0.573234 0.556339 0.338471
Cl1   Cl    Cl    0.800349 0.869560 0.475321 -0.586484
Cl2   Cl    Cl    0.211408 0.130510 0.553161 -0.679490
Cu1   Cu    Cu3+1 0.359340 0.499980 0.500000 1.078358
Cu2   Cu    Cu3+1 0.640660 0.500020 0.500000 1.077920
H1    H     H_    0.724069 0.113423 0.495737 0.159547
H2    H     H_    0.897039 0.648188 0.354185 0.179743
H3    H     H_    0.927011 0.705341 0.257750 0.137523
H4    H     H_    0.237120 0.347503 0.716653 0.146259
H5    H     H_    0.081335 0.419171 0.690556 0.133142
H6    H     H_    0.101245 0.398089 0.794236 0.084869
H7    H     H_    0.786178 0.680557 0.915783 0.134842
H8    H     H_    0.795155 0.843634 0.935716 0.146985
H9    H     H_    0.643301 0.781312 0.892960 0.127191
H10   H     H_    0.271319 0.712179 0.088490 0.096093
H11   H     H_    0.248195 0.865339 0.059383 0.140070
H12   H     H_    0.280730 0.889454 0.498658 0.147452
H13   H     H_    0.408408 0.825947 0.100323 0.141730
H14   H     H_    0.159454 0.543261 0.011699 0.146516
H15   H     H_    0.185135 0.427149 0.929028 0.091798
H16   H     H_    0.031999 0.523263 0.938723 0.120872
H17   H     H_    0.855229 0.588193 0.037754 0.144464
H18   H     H_    0.935130 0.567362 0.130045 0.048877
H19   H     H_    0.978371 0.697727 0.074072 0.146559
H20   H     H_    0.294265 0.300728 0.107436 0.169888
H21   H     H_    0.483858 0.285898 0.087356 0.115153
H22   H     H_    0.370160 0.286400 0.007232 0.108234
H23   H     H_    0.857705 0.296721 0.755516 0.131809
H24   H     H_    0.760802 0.283658 0.896367 0.139972
H25   H     H_    0.572755 0.288450 0.916116 0.133721
H26   H     H_    0.685266 0.328620 0.994830 0.116386
H27   H     H_    0.843668 0.750943 0.714164 0.128745
H28   H     H_    0.930918 0.603529 0.702966 0.135099
H29   H     H_    0.742022 0.618263 0.711241 0.128283
H30   H     H_    0.143654 0.213280 0.314300 0.111650
H31   H     H_    0.111526 0.209160 0.421308 0.144433
H32   H     H_    0.286202 0.224522 0.375486 0.166394
H33   H     H_    0.208992 0.822552 0.616327 0.153298
H34   H     H_    0.829354 0.455919 0.787388 0.128100
H35   H     H_    0.091078 0.791926 0.537368 0.145050
H36   H     H_    0.028850 0.815296 0.641730 0.158623
H37   H     H_    0.733881 0.247319 0.366657 0.151996
H38   H     H_    0.876965 0.218091 0.427440 0.105394
H39   H     H_    0.902313 0.211923 0.319578 0.113859
H40   H     H_    0.826606 0.401522 0.682090 0.134169
H41   H     H_    0.200539 0.539827 0.167528 0.103238
H42   H     H_    0.208107 0.584033 0.273919 0.126418
H43   H     H_    0.113108 0.450977 0.239801 0.162537
H44   H     H_    0.883274 0.544183 0.267470 0.113051
N1    N     N_R   0.147930 0.499970 0.499980 -0.252612
N2    N     N_R   0.852070 0.500030 0.500020 -0.253185
O1    O     O_R   0.381260 0.680340 0.500000 -0.523341
O2    O     O_3   0.326981 0.428106 0.231526 -0.532109
O3    O     O_3   0.719949 0.675816 0.296087 -0.505638
O4    O     O_3   0.214347 0.539899 0.744972 -0.485829
O5    O     O_3   0.660456 0.758676 0.014703 -0.523342
O6    O     O_3   0.383878 0.757398 0.982725 -0.528942
O7    O     O_3   0.208818 0.615574 0.902719 -0.495819
O8    O     O_3   0.784869 0.709221 0.136050 -0.493869
O9    O     O_3   0.390961 0.456494 0.065987 -0.604642
O10   O     O_3   0.678286 0.460330 0.913698 -0.611290
O11   O     O_3   0.833156 0.662489 0.601787 -0.498050
O12   O     O_R   0.618740 0.319660 0.500000 -0.532937
O13   O     O_3   0.164627 0.381426 0.375776 -0.518909
O14   O     O_3   0.133274 0.647942 0.610964 -0.514872
O15   O     O_3   0.875619 0.387819 0.372500 -0.566662
O16   O     O_R   0.618830 0.680370 0.500010 -0.387770
O17   O     O_R   0.381170 0.319630 0.499990 -0.455272
O18   O     O_R   0.367440 0.500000 0.613600 -0.420410
O19   O     O_R   0.632560 0.500000 0.386400 -0.441207
O20   O     O_R   0.605010 0.500030 0.613600 -0.480980
O21   O     O_R   0.394990 0.499970 0.386400 -0.440508
O22   O     O_3   0.653778 0.352845 0.752324 -0.549035

loop_
_geom_bond_atom_site_label_1
_geom_bond_atom_site_label_2
_ccdc_geom_bond_type
C31   H20   S    
C3    C42   A    
C30   H18   S    
C18   O4    S    
C6    O19   A    
Cu1   O1    S    
C42   O11   S    
C28   H10   S    
C27   H8    S    
C32   H26   S    
C28   H11   S    
C31   H21   S    
C25   H44   S    
C34   C40   A    
C9    O22   S    
C31   O9    S    
C37   H39   S    
C12   O12   A    
C24   O2    S    
C26   H4    S    
C11   C14   A    
C27   H9    S    
Cu2   N2    S    
C5    O18   A    
C10   O2    S    
C30   O8    S    
C23   Cl1   S    
C3    N1    A    
C33   H29   S    
C36   H36   S    
Cu2   O16   S    
C10   C13   A    
C37   H38   S    
Cu2   O20   S    
C22   H23   S    
C42   N2    A    
C30   H17   S    
C24   H43   S    
C12   O17   A    
C24   H41   S    
C32   H25   S    
C3    O14   S    
C26   O4    S    
C31   H22   S    
C4    O15   S    
C29   H15   S    
C35   H30   S    
C8    C19   A    
C29   O7    S    
C36   O14   S    
C34   C39   A    
C14   C20   S    
C34   Cl2   S    
C39   C41   A    
C5    C7    S    
Cu1   O18   S    
C6    C8    S    
Cu1   Cu2   S    
C39   H12   S    
Cu2   O12   S    
C35   H31   S    
C12   C40   S    
C2    C4    A    
C6    O21   A    
C35   O13   S    
C26   H6    S    
C21   O5    S    
C29   H14   S    
C22   O22   S    
C36   H35   S    
C7    C18   A    
C16   C18   A    
C9    C11   A    
C25   H2    S    
C38   H1    S    
C33   H27   S    
C5    O20   A    
C25   O3    S    
C13   C15   A    
C14   C16   A    
C13   O9    S    
C19   O3    S    
C28   H13   S    
C28   O6    S    
C7    C9    A    
C29   H16   S    
C27   O5    S    
C35   H32   S    
C33   O11   S    
C24   H42   S    
C8    C10   A    
C1    C41   S    
C36   H33   S    
C32   H24   S    
C27   H7    S    
C16   O7    S    
C15   C17   A    
C32   O10   S    
C23   C38   A    
C2    O13   S    
C23   C41   A    
C22   H34   S    
C26   H5    S    
C38   C40   A    
C17   C19   A    
C11   O10   S    
Cu1   O17   S    
C22   H40   S    
C2    N1    A    
Cu1   N1    S    
C17   O8    S    
C25   H3    S    
C30   H19   S    
C1    O16   A    
Cu1   O21   S    
C33   H28   S    
C15   C21   S    
C20   O6    S    
C20   C21   D    
C1    O1    A    
C37   O15   S    
C37   H37   S    
Cu2   O19   S    
C4    N2    A    
