data_mof_unit_2554.cif
_audit_creation_date              2013-03-05T16:11:55-0500
_audit_creation_method            fapswitch 2.2
_symmetry_space_group_name_H-M    P1
_symmetry_Int_Tables_number       1
_space_group_crystal_system       triclinic
_cell_length_a                    15.758313
_cell_length_b                    10.623136
_cell_length_c                    9.906389
_cell_angle_alpha                 89.375002
_cell_angle_beta                  89.506285
_cell_angle_gamma                 90.357465
_cell_volume                      1658.1628015

loop_
_atom_site_label
_atom_site_type_symbol
_atom_site_description
_atom_site_fract_x
_atom_site_fract_y
_atom_site_fract_z
_atom_type_partial_charge
O1    O     O_R   0.499990 0.316750 0.614620 -0.598250
O2    O     O_R   0.500010 0.683250 0.385380 -0.598235
O3    O     O_R   0.500000 0.316780 0.385290 -0.575512
O4    O     O_R   0.500000 0.683220 0.614710 -0.575535
C1    C     C_R   0.502112 0.260495 0.500536 0.943590
C2    C     C_R   0.497892 0.739504 0.499464 0.943461
O5    O     O_R   0.376780 0.499970 0.614640 -0.566751
O6    O     O_R   0.623220 0.500030 0.385360 -0.566730
O7    O     O_R   0.376780 0.500000 0.385310 -0.596761
O8    O     O_R   0.623220 0.500000 0.614690 -0.596765
C3    C     C_R   0.338226 0.498788 0.500529 0.926574
C4    C     C_R   0.661774 0.501221 0.499471 0.926656
Zn1   Zn    Zn3+2 0.500000 0.499980 0.653120 1.102777
Zn2   Zn    Zn3+2 0.500000 0.500020 0.346880 1.102781
C5    C     C_3   0.971195 0.384507 0.527181 0.233572
C6    C     C_3   0.028805 0.615516 0.472818 0.233574
C7    C     C_3   0.029484 0.419347 0.406051 -0.133498
C8    C     C_3   0.970515 0.580677 0.593948 -0.133496
C9    C     C_1   0.249741 0.498658 0.501923 0.003316
C10   C     C_1   0.750259 0.501359 0.498076 0.003330
C11   C     C_3   0.025696 0.463686 0.621829 0.241245
C12   C     C_3   0.974303 0.536337 0.378169 0.241250
C13   C     C_3   0.084225 0.499625 0.502054 -0.150527
C14   C     C_3   0.915774 0.500398 0.497945 -0.150527
C15   C     C_1   0.174760 0.499026 0.502726 0.152369
C16   C     C_1   0.825240 0.500995 0.497273 0.152363
C17   C     C_R   0.565265 0.063092 0.426624 0.338062
C18   C     C_R   0.434774 0.936904 0.573402 0.338094
C19   C     C_R   0.560150 0.933648 0.425202 -0.193694
C20   C     C_R   0.439878 0.066345 0.574815 -0.193756
H1    H     H_    0.608371 0.880444 0.372435 0.224732
H2    H     H_    0.391656 0.119534 0.627597 0.224682
C21   C     C_R   0.495956 0.871956 0.497856 -0.183302
C22   C     C_R   0.504065 0.128042 0.502146 -0.183297
C23   C     C_R   0.546448 0.587149 0.070063 0.231554
C24   C     C_R   0.453551 0.412852 0.929937 0.231556
C25   C     C_R   0.546636 0.586889 0.926331 0.242080
C26   C     C_R   0.453363 0.413111 0.073669 0.242054
N1    N     N_R   0.499980 0.499970 0.857200 -0.223529
N2    N     N_R   0.500020 0.500030 0.142800 -0.223532
C27   C     C_3   0.065848 0.329072 0.301328 -0.331006
C28   C     C_3   0.995813 0.264162 0.220638 -0.310430
C29   C     C_3   0.033356 0.172887 0.118660 -0.636128
H3    H     H_    0.076283 0.223711 0.046826 0.300879
H4    H     H_    0.069453 0.097853 0.171461 0.272364
H5    H     H_    0.981448 0.128206 0.060695 0.262126
H6    H     H_    0.952573 0.211044 0.289987 0.270669
H7    H     H_    0.957979 0.335626 0.165433 0.278331
H8    H     H_    0.108267 0.383231 0.231488 0.255887
H9    H     H_    0.104408 0.257113 0.354628 0.243251
C30   C     C_3   0.934151 0.670951 0.698670 -0.330996
C31   C     C_3   0.004186 0.735862 0.779360 -0.310450
C32   C     C_3   0.966642 0.827133 0.881341 -0.636126
H10   H     H_    0.930543 0.902167 0.828542 0.272363
H11   H     H_    0.923717 0.776306 0.953175 0.300886
H12   H     H_    0.018551 0.871816 0.939306 0.262122
H13   H     H_    0.042022 0.664399 0.834563 0.278334
H14   H     H_    0.047424 0.788983 0.710011 0.270658
H15   H     H_    0.895591 0.742909 0.645371 0.243253
H16   H     H_    0.891733 0.616791 0.768511 0.255883
N3    N     N_R   0.941282 0.257554 0.559942 0.234976
O9    O     O_R   0.995766 0.169057 0.584919 -0.321113
O10   O     O_R   0.860529 0.231852 0.564518 -0.320853
N4    N     N_R   0.058718 0.742469 0.440055 0.234972
O11   O     O_R   0.004233 0.830966 0.415081 -0.321100
O12   O     O_R   0.139470 0.768170 0.435474 -0.320850
N5    N     N_R   0.947967 0.578911 0.244630 0.231463
O13   O     O_R   0.004946 0.607776 0.153554 -0.347212
O14   O     O_R   0.867944 0.587627 0.215354 -0.319989
N6    N     N_R   0.052032 0.421112 0.755369 0.231461
O15   O     O_R   0.995053 0.392247 0.846445 -0.347215
O16   O     O_R   0.132056 0.412397 0.784645 -0.319996
N7    N     N_R   0.633629 0.126101 0.355610 0.229983
O17   O     O_R   0.672611 0.220970 0.409819 -0.378885
O18   O     O_R   0.664802 0.078170 0.245605 -0.280614
N8    N     N_R   0.366448 0.873885 0.644485 0.229887
O19   O     O_R   0.327322 0.779188 0.590182 -0.378800
O20   O     O_R   0.335518 0.921584 0.754797 -0.280453
N9    N     N_R   0.594820 0.680282 0.138654 0.245951
O21   O     O_R   0.570326 0.796900 0.133889 -0.303499
O22   O     O_R   0.672307 0.655360 0.173542 -0.303863
N10   N     N_R   0.405176 0.319721 0.861347 0.245942
O23   O     O_R   0.429660 0.203098 0.866133 -0.303496
O24   O     O_R   0.327694 0.344654 0.826445 -0.303871
N11   N     N_R   0.597763 0.676652 0.853832 0.257660
O25   O     O_R   0.571704 0.792131 0.841662 -0.295165
O26   O     O_R   0.677194 0.651780 0.830383 -0.352820
N12   N     N_R   0.402231 0.323354 0.146170 0.257662
O27   O     O_R   0.428292 0.207875 0.158359 -0.295214
O28   O     O_R   0.322795 0.348229 0.169593 -0.352796

loop_
_geom_bond_atom_site_label_1
_geom_bond_atom_site_label_2
_geom_bond_distance
_ccdc_geom_bond_type
C20   H2    1.084001 S    
C17   C19   1.377201 A    
C8    C11   1.545029 S    
C27   C28   1.533029 S    
O7    Zn2   1.975486 S    
C32   H10   1.110956 S    
O5    C3    1.288088 A    
C3    C9    1.394316 S    
C7    C13   1.548724 S    
C8    C14   1.548724 S    
C25   N11   1.428185 S    
C23   C25   1.423879 A    
C14   C16   1.426797 S    
C19   C21   1.392741 A    
N7    O17   1.300457 A    
O4    Zn1   1.979346 S    
N3    O10   1.300127 A    
C24   N10   1.426812 S    
O6    Zn2   1.982022 S    
N6    O15   1.300321 A    
N11   O26   1.300379 A    
N7    O18   1.301590 A    
O2    C2    1.284456 A    
C9    C15   1.181568 T    
O8    C4    1.288298 A    
C27   H8    1.111332 S    
C8    C30   1.530564 S    
C32   H11   1.110969 S    
C17   C22   1.404637 A    
C25   N1    1.369725 A    
C20   C22   1.392765 A    
C30   C31   1.533029 S    
N8    O19   1.300507 A    
O4    C2    1.283759 A    
N9    O22   1.299930 A    
N11   O25   1.300759 A    
N5    O13   1.300320 A    
C26   N12   1.428197 S    
N5    O14   1.300025 A    
N4    O12   1.300124 A    
C29   H3    1.110971 S    
O7    C3    1.288299 A    
C5    C11   1.531779 S    
O6    C4    1.288090 A    
C1    C22   1.407510 S    
C4    C10   1.394315 S    
C5    N3    1.458155 S    
C28   H7    1.110450 S    
C29   H4    1.110957 S    
O3    Zn2   1.979347 S    
C31   H14   1.110564 S    
C5    C14   1.540219 S    
N12   O28   1.300421 A    
C18   C21   1.404560 A    
C6    C13   1.540219 S    
N10   O24   1.299937 A    
C11   C13   1.539862 S    
C12   C14   1.539861 S    
C30   H15   1.111249 S    
C28   C29   1.526098 S    
C24   C26   1.423879 A    
C18   N8    1.439086 S    
C27   H9    1.111250 S    
O1    C1    1.284460 A    
C31   C32   1.526097 S    
C32   H12   1.110553 S    
C5    C7    1.545211 S    
C6    C12   1.531780 S    
C24   N1    1.370730 A    
N8    O20   1.301734 A    
O3    C1    1.283766 A    
O8    Zn1   1.975485 S    
C7    C12   1.545029 S    
C2    C21   1.407491 S    
C11   N6    1.457940 S    
N4    O11   1.300327 A    
C18   C20   1.377146 A    
C23   N2    1.370730 A    
C19   H1    1.083996 S    
C26   N2    1.369724 A    
C10   C16   1.181568 T    
C23   N9    1.426812 S    
C28   H6    1.110564 S    
C13   C15   1.426798 S    
N3    O9    1.300325 A    
O2    Zn2   1.987567 S    
C29   H5    1.110552 S    
C7    C27   1.530565 S    
C12   N5    1.457940 S    
Zn1   N1    2.021692 S    
C31   H13   1.110450 S    
Zn2   N2    2.021692 S    
N9    O21   1.300367 A    
O5    Zn1   1.982025 S    
O1    Zn1   1.987568 S    
N12   O27   1.300790 A    
C6    C8    1.545214 S    
N10   O23   1.300383 A    
N6    O16   1.300025 A    
C30   H16   1.111332 S    
C6    N4    1.458154 S    
C17   N7    1.439153 S    
