data_mof_unit_2946.cif
_audit_creation_date              2013-03-05T15:44:58-0500
_audit_creation_method            fapswitch 2.2
_symmetry_space_group_name_H-M    P1
_symmetry_Int_Tables_number       1
_space_group_crystal_system       triclinic
_cell_length_a                    11.323911
_cell_length_b                    11.240509
_cell_length_c                    19.135918
_cell_angle_alpha                 90.490712
_cell_angle_beta                  88.771468
_cell_angle_gamma                 119.132885
_cell_volume                      2127.1116527

loop_
_atom_site_label
_atom_site_type_symbol
_atom_site_description
_atom_site_fract_x
_atom_site_fract_y
_atom_site_fract_z
_atom_type_partial_charge
O1    O     O_R   0.766500 0.250040 0.579790 -0.539163
O2    O     O_R   0.798570 0.516780 0.574780 -0.511568
C1    C     C_R   0.876680 0.632088 0.607119 0.544589
O3    O     O_R   0.984000 0.732950 0.581090 -0.567627
O4    O     O_R   0.218600 0.700890 0.574760 -0.522851
C2    C     C_R   0.257248 0.622470 0.605471 0.556527
O5    O     O_R   0.249390 0.515350 0.579940 -0.535930
O6    O     O_R   0.982790 0.280900 0.573700 -0.529751
C3    C     C_R   0.867822 0.245271 0.606352 0.557220
O7    O     O_R   0.766600 0.251130 0.419260 -0.520761
O8    O     O_R   0.798660 0.517790 0.425980 -0.508483
C4    C     C_R   0.876760 0.633227 0.394249 0.552412
O9    O     O_R   0.984100 0.734040 0.420570 -0.523012
O10   O     O_R   0.218690 0.701900 0.425960 -0.507816
C5    C     C_R   0.256982 0.624672 0.393740 0.556203
O11   O     O_R   0.249490 0.516440 0.419420 -0.527045
O12   O     O_R   0.982880 0.281910 0.424890 -0.510311
C6    C     C_R   0.869050 0.246246 0.392458 0.557103
Cr1   Cr    Cr6+3 0.791660 0.390250 0.499930 1.008729
Cr2   Cr    Cr6+3 0.098520 0.708290 0.500540 1.009576
Cr3   Cr    Cr6+3 0.109770 0.401430 0.499480 1.008413
O13   O     O_3   0.999980 0.499990 0.499980 -0.287515
C7    C     C_R   0.308749 0.756900 0.710178 -0.081265
H1    H     H_    0.293481 0.832415 0.680238 0.206492
C8    C     C_R   0.342045 0.780123 0.782767 0.146346
C9    C     C_R   0.369676 0.690377 0.820189 0.009516
C10   C     C_R   0.356203 0.574951 0.784409 -0.158429
H2    H     H_    0.374727 0.499047 0.809558 0.151598
C11   C     C_R   0.317238 0.551212 0.714908 -0.143132
H3    H     H_    0.305206 0.460386 0.690646 0.143225
C12   C     C_R   0.298175 0.645902 0.677617 -0.013267
C13   C     C_R   0.818752 0.129217 0.822470 -0.020372
C14   C     C_R   0.044692 0.134415 0.817167 -0.098099
C15   C     C_R   0.163534 0.166650 0.783345 -0.074909
C16   C     C_R   0.183681 0.208690 0.715258 -0.088612
C17   C     C_R   0.082343 0.213735 0.680058 -0.089206
C18   C     C_R   0.958144 0.190208 0.714147 0.005607
C19   C     C_R   0.939136 0.149866 0.785398 -0.005610
H4    H     H_    0.236961 0.154375 0.810616 0.125090
H5    H     H_    0.274148 0.227984 0.685738 0.116589
H6    H     H_    0.046423 0.096373 0.867881 0.167744
C20   C     C_R   0.730524 0.182687 0.718553 -0.020246
C21   C     C_R   0.712875 0.150746 0.789119 0.026362
C22   C     C_R   0.623231 0.197623 0.688241 -0.091808
C23   C     C_R   0.508283 0.179666 0.718838 -0.126013
C24   C     C_R   0.502031 0.184807 0.787785 -0.043771
C25   C     C_R   0.578276 0.139451 0.829668 0.489683
C26   C     C_R   0.852230 0.203167 0.680127 -0.014258
H7    H     H_    0.113825 0.236886 0.626892 0.165859
H8    H     H_    0.430577 0.180052 0.687603 0.143517
H9    H     H_    0.616868 0.241818 0.639965 0.167870
H10   H     H_    0.402309 0.149218 0.812856 0.162442
C27   C     C_R   0.733027 0.542745 0.715189 -0.146274
H11   H     H_    0.657723 0.449736 0.688075 0.118497
C28   C     C_R   0.710936 0.557431 0.786077 -0.138782
H12   H     H_    0.618841 0.477590 0.811665 0.143157
C29   C     C_R   0.808937 0.674480 0.821833 0.011189
C30   C     C_R   0.925309 0.779578 0.786958 -0.107019
H13   H     H_    0.999859 0.872649 0.813509 0.166769
C31   C     C_R   0.953031 0.770469 0.717896 -0.010529
C32   C     C_R   0.851293 0.649551 0.680436 0.009791
C33   C     C_R   0.316964 0.555156 0.283725 -0.128056
H14   H     H_    0.304824 0.462246 0.307779 0.157291
C34   C     C_R   0.356648 0.578247 0.214807 -0.113100
H15   H     H_    0.375864 0.502570 0.189221 0.171385
C35   C     C_R   0.371083 0.695135 0.180000 0.026943
C36   C     C_R   0.349889 0.792030 0.216263 -0.138241
H16   H     H_    0.362806 0.883422 0.190294 0.140535
C37   C     C_R   0.309867 0.768725 0.286792 -0.132681
H17   H     H_    0.291345 0.842721 0.314542 0.136685
C38   C     C_R   0.296643 0.651635 0.320835 0.027218
C39   C     C_R   0.737536 0.181827 0.284180 -0.140984
H18   H     H_    0.656832 0.193751 0.309580 0.149517
C40   C     C_R   0.720994 0.142548 0.215117 -0.165231
H19   H     H_    0.626299 0.124037 0.191023 0.155429
C41   C     C_R   0.824800 0.130526 0.178012 0.007185
C42   C     C_R   0.945141 0.151763 0.213484 0.185160
C43   C     C_R   0.958005 0.193042 0.283913 -0.118734
H20   H     H_    0.048620 0.213966 0.312084 0.174003
C44   C     C_R   0.854934 0.204748 0.319299 -0.014057
C45   C     C_R   0.945121 0.765721 0.284932 -0.128896
H21   H     H_    0.038103 0.846282 0.308907 0.154449
C46   C     C_R   0.924176 0.781961 0.215763 -0.115099
H22   H     H_    0.000514 0.876591 0.190718 0.211917
C47   C     C_R   0.809070 0.678883 0.180468 0.023547
C48   C     C_R   0.711116 0.560878 0.216585 -0.135426
H23   H     H_    0.619647 0.481657 0.191017 0.139319
C49   C     C_R   0.732485 0.544116 0.287016 -0.129168
H24   H     H_    0.658067 0.450143 0.313525 0.132733
C50   C     C_R   0.848011 0.648412 0.321644 0.029577
O14   O     O_R   0.895110 0.806860 0.920430 -0.538056
O15   O     O_R   0.872260 0.046970 0.925000 -0.537836
C51   C     C_R   0.798042 0.089967 0.894294 0.548633
O16   O     O_R   0.691430 0.085060 0.918550 -0.453822
O17   O     O_R   0.451490 0.822460 0.925250 -0.449732
C52   C     C_R   0.411252 0.706733 0.893380 0.547990
O18   O     O_R   0.413330 0.603360 0.920440 -0.525645
O19   O     O_R   0.676110 0.626250 0.926750 -0.490750
C53   C     C_R   0.792675 0.700360 0.894916 0.548972
O20   O     O_R   0.895350 0.809870 0.080950 -0.488096
O21   O     O_R   0.872490 0.049760 0.073800 -0.437824
C54   C     C_R   0.797943 0.092119 0.104999 0.553802
O22   O     O_R   0.691680 0.088070 0.079070 -0.524017
O23   O     O_R   0.451720 0.825250 0.074050 -0.509994
C55   C     C_R   0.412623 0.710663 0.107093 0.544614
O24   O     O_R   0.413580 0.606370 0.080960 -0.514551
O25   O     O_R   0.676340 0.629040 0.075550 -0.504784
C56   C     C_R   0.792305 0.704107 0.107311 0.542003
Cr4   Cr    Cr6+3 0.874790 0.925890 0.000070 1.076391
Cr5   Cr    Cr6+3 0.574120 0.948670 0.999300 1.108875
Cr6   Cr    Cr6+3 0.551420 0.625320 0.000920 1.069301
O26   O     O_3   0.666780 0.833290 0.000090 -0.321048
C57   C     C_2   0.090234 0.887839 0.686698 0.189870
H25   H     H_    0.115143 0.886966 0.636043 0.208414
O27   O     O_2   0.186588 0.982453 0.713230 -0.598936
C58   C     C_2   0.305695 0.869446 0.818313 0.156327
H26   H     H_    0.290705 0.949841 0.800850 0.349594
O28   O     O_2   0.361155 0.953936 0.775464 -0.687062
N1    N     N_R   0.058025 0.136753 0.184196 0.058348
O29   O     O_R   0.065555 0.091753 0.122893 -0.294540
O30   O     O_R   0.159779 0.162957 0.222628 -0.396876
N2    N     N_R   0.509598 0.102287 0.904003 0.109336
O31   O     O_R   0.521222 0.026574 0.854725 -0.434159
O32   O     O_R   0.516690 0.214815 0.921578 -0.432644

loop_
_geom_bond_atom_site_label_1
_geom_bond_atom_site_label_2
_geom_bond_distance
_ccdc_geom_bond_type
C28   H12   1.098682 S    
C51   O16   1.259980 A    
C10   C11   1.392535 A    
C27   C28   1.397060 A    
O17   C52   1.301115 A    
C45   H21   1.106506 S    
O4    Cr2   2.016937 S    
C27   H11   1.109500 S    
O8    Cr1   1.995830 S    
C9    C10   1.404264 A    
O21   C54   1.288657 A    
C40   C41   1.421770 A    
O22   Cr5   2.138389 S    
C4    C50   1.463907 S    
C17   C18   1.440460 A    
C18   C19   1.419128 A    
O4    C2    1.307461 A    
O18   Cr6   2.144496 S    
C48   C49   1.404723 A    
O15   Cr4   1.997495 S    
O21   Cr4   1.982436 S    
C5    O11   1.279335 A    
C29   C53   1.452071 S    
C24   H10   1.097989 S    
C58   H26   1.055502 S    
C15   C16   1.365929 A    
C37   C38   1.413390 A    
C33   C34   1.369474 A    
C27   C32   1.444688 A    
Cr6   O26   2.048874 S    
O6    C3    1.306695 A    
C7    H1    1.110904 S    
C13   C19   1.438309 A    
C47   C56   1.465198 S    
C42   C43   1.408806 A    
N1    O30   1.287428 A    
C13   C51   1.426359 S    
O20   Cr4   2.120382 S    
Cr3   O13   2.028184 S    
C41   C54   1.452938 S    
C31   C57   1.577587 S    
C37   H17   1.084119 S    
C20   C22   1.439204 A    
O23   C55   1.304428 A    
C45   C46   1.378883 A    
O12   C6    1.316926 A    
O24   Cr6   2.099288 S    
C1    C32   1.456878 S    
C9    C52   1.468553 S    
O20   C56   1.289851 A    
O1    Cr1   2.117973 S    
C40   H19   1.099123 S    
C16   H5    1.084702 S    
C36   H16   1.087658 S    
O10   Cr2   1.975812 S    
Cr1   O13   2.062343 S    
O1    C3    1.289586 A    
C41   C42   1.447376 A    
C39   C40   1.377205 A    
Cr4   O26   2.060215 S    
C48   H23   1.105169 S    
C25   N2    1.564980 S    
C8    C9    1.399176 A    
C47   C48   1.420473 A    
O16   Cr5   2.114795 S    
O12   Cr3   2.020491 S    
C15   H4    1.055595 S    
C31   C32   1.477342 A    
C36   C37   1.399921 A    
C16   C17   1.367817 A    
C34   C35   1.413449 A    
C33   H14   1.089581 S    
C46   H22   1.097297 S    
O7    Cr1   2.110516 S    
O25   C56   1.323769 A    
C52   O18   1.286975 A    
C14   C15   1.361294 A    
C20   C26   1.464105 A    
C4    O9    1.300232 A    
C18   C26   1.445243 A    
C45   C50   1.418589 A    
C22   H9    1.072816 S    
C6    C44   1.459066 S    
C46   C47   1.432301 A    
C49   C50   1.433685 A    
O19   C53   1.308026 A    
C28   C29   1.423470 A    
C8    C58   1.420880 S    
C20   C21   1.385332 A    
C35   C55   1.447144 S    
N2    O32   1.270598 A    
C1    O3    1.285515 A    
C22   C23   1.338437 A    
C57   H25   1.005018 S    
C24   C25   1.453616 A    
O19   Cr6   1.976912 S    
O9    Cr2   2.135920 S    
O2    Cr1   1.985461 S    
C43   H20   1.088755 S    
O25   Cr6   2.017501 S    
Cr2   O13   2.045385 S    
C39   H18   1.090172 S    
C42   N1    1.467743 S    
O17   Cr5   2.020066 S    
O6    Cr3   1.992197 S    
O8    C4    1.306775 A    
O11   Cr3   2.111889 S    
C2    O5    1.258520 A    
C5    C38   1.444891 S    
C55   O24   1.275384 A    
C14   C19   1.436536 A    
C14   H6    1.068225 S    
C34   H15   1.085914 S    
O14   Cr4   2.101286 S    
O2    C1    1.318614 A    
C30   H13   1.102109 S    
C39   C44   1.409678 A    
O5    Cr3   2.146948 S    
C35   C36   1.399930 A    
O23   Cr5   1.992119 S    
C29   C30   1.427422 A    
C21   C25   1.644356 A    
C23   H8    1.076033 S    
O7    C6    1.283738 A    
O15   C51   1.306417 A    
C13   C21   1.490403 A    
C58   O28   1.174399 D    
C33   C38   1.398598 A    
C2    C12   1.446560 S    
C43   C44   1.397225 A    
C7    C8    1.435341 A    
C54   O22   1.291552 A    
Cr5   O26   2.027130 S    
C11   H3    1.065620 S    
O3    Cr2   2.095576 S    
C23   C24   1.322037 A    
C49   H24   1.098801 S    
C3    C26   1.472278 S    
C11   C12   1.389971 A    
N1    O29   1.291044 A    
C10   H2    1.090501 S    
O10   C5    1.291359 A    
O14   C53   1.295837 A    
N2    O31   1.311806 A    
C30   C31   1.366295 A    
C17   H7    1.062333 S    
C7    C12   1.343010 A    
C57   O27   1.209958 D    
