data_mof_unit_1679.cif
_audit_creation_date              2012-12-10T19:15:21-0500
_audit_creation_method            fapswitch 2.2
_symmetry_space_group_name_H-M    P1
_symmetry_Int_Tables_number       1
_space_group_crystal_system       triclinic
_cell_length_a                    10.62724
_cell_length_b                    9.698119
_cell_length_c                    23.411788
_cell_angle_alpha                 90.018798
_cell_angle_beta                  89.950726
_cell_angle_gamma                 89.98773
_cell_volume                      2412.9170166

loop_
_atom_site_label
_atom_site_type_symbol
_atom_type_description
_atom_site_fract_x
_atom_site_fract_y
_atom_site_fract_z
_atom_type_partial_charge
C1    C     C_R   0.257620 0.500287 0.500289 0.852483
C2    C     C_R   0.578290 0.432974 0.118598 0.504417
C3    C     C_R   0.471822 0.374850 0.238307 -0.097692
C4    C     C_R   0.499524 0.499950 0.389212 0.862214
C5    C     C_R   0.477295 0.375183 0.297494 -0.228054
C6    C     C_R   0.495753 0.499565 0.326991 -0.040044
C7    C     C_R   0.508830 0.623476 0.296591 -0.231105
C8    C     C_R   0.504001 0.622677 0.237326 -0.097646
C9    C     C_R   0.485487 0.498412 0.208228 0.316020
C10   C     C_R   0.413016 0.395924 0.758583 0.527883
C11   C     C_R   0.424984 0.399222 0.699576 -0.216468
C12   C     C_R   0.280338 0.622796 0.970784 -0.146399
C13   C     C_R   0.499585 0.499378 0.672737 -0.227916
C14   C     C_R   0.564994 0.598681 0.705589 -0.045783
C15   C     C_R   0.550153 0.597170 0.764735 -0.167331
C16   C     C_R   0.742619 0.500267 0.500284 0.869145
C17   C     C_R   0.476309 0.496550 0.791173 0.162626
C18   C     C_3   0.071502 0.651928 0.502021 -0.379911
C19   C     C_3   0.072309 0.423400 0.553810 -0.376065
C20   C     C_3   0.928658 0.651911 0.502105 -0.397736
C21   C     C_3   0.927847 0.423206 0.553770 -0.392697
C22   C     C_3   0.072454 0.429564 0.445665 -0.402514
C23   C     C_R   0.282029 0.623492 0.030266 -0.154457
C24   C     C_3   0.121336 0.501261 0.500459 0.147237
C25   C     C_3   0.878920 0.501234 0.500467 0.166466
C26   C     C_3   0.928047 0.429712 0.445633 -0.403524
C27   C     C_3   0.377128 0.081776 0.519464 0.353967
C28   C     C_3   0.376948 0.918310 0.519231 0.344025
C29   C     C_3   0.519183 0.081411 0.440300 -0.358610
C30   C     C_3   0.519643 0.918467 0.440329 -0.365715
C31   C     C_3   0.603331 0.081089 0.534338 -0.303159
C32   C     C_3   0.603033 0.919089 0.534505 -0.282055
C33   C     C_R   0.502200 0.500024 0.610603 0.965037
C34   C     C_R   0.380680 0.559431 0.060019 -0.014860
C35   C     C_R   0.570064 0.427295 0.879673 0.519237
C36   C     C_R   0.378390 0.556870 0.880409 0.517224
C37   C     C_R   0.377063 0.557664 0.940091 -0.022210
C38   C     C_R   0.475984 0.492158 0.969594 -0.021067
C39   C     C_R   0.573351 0.426027 0.939238 -0.019863
C40   C     C_2   0.654478 0.699707 0.680615 0.917060
C41   C     C_R   0.477961 0.493396 0.029591 -0.019251
C42   C     C_R   0.577546 0.429068 0.059009 -0.015050
C43   C     C_R   0.673881 0.363163 0.028354 -0.155285
C44   C     C_R   0.671686 0.361453 0.968944 -0.146833
C45   C     C_R   0.384908 0.559416 0.119668 0.504542
H1    H     H_    0.203329 0.673568 0.948990 0.197384
H2    H     H_    0.894311 0.710667 0.464313 0.167902
H3    H     H_    0.893393 0.314784 0.553734 0.175055
H4    H     H_    0.107867 0.484286 0.407062 0.165094
H5    H     H_    0.107027 0.321286 0.443506 0.174670
H6    H     H_    0.892940 0.484719 0.407066 0.165457
H7    H     H_    0.893353 0.321516 0.443353 0.174897
H8    H     H_    0.302729 0.114815 0.488910 0.084598
H9    H     H_    0.303003 0.886055 0.488312 0.083069
H10   H     H_    0.206206 0.674722 0.052793 0.194590
H11   H     H_    0.443887 0.118986 0.411230 0.150528
H12   H     H_    0.374334 0.323519 0.674446 0.201572
H13   H     H_    0.445003 0.880276 0.411039 0.155916
H14   H     H_    0.695453 0.117612 0.517562 0.170016
H15   H     H_    0.695267 0.881837 0.518144 0.173899
H16   H     H_    0.598986 0.121465 0.578608 0.164983
H17   H     H_    0.597771 0.879750 0.578839 0.179011
H18   H     H_    0.609436 0.120285 0.422341 0.187212
H19   H     H_    0.610375 0.880105 0.422651 0.183228
H20   H     H_    0.751221 0.312915 0.050115 0.194898
H21   H     H_    0.747432 0.310040 0.946432 0.198140
H22   H     H_    0.457254 0.278747 0.215687 0.143431
H23   H     H_    0.600276 0.670852 0.791084 0.193346
H24   H     H_    0.466362 0.278439 0.320043 0.151100
H25   H     H_    0.523349 0.720577 0.318483 0.151965
H26   H     H_    0.515261 0.718188 0.213921 0.144175
H27   H     H_    0.731725 0.889429 0.685059 0.344240
H28   H     H_    0.402258 0.111851 0.601819 0.334002
H29   H     H_    0.401289 0.885054 0.601475 0.339001
H30   H     H_    0.339969 0.301704 0.824434 0.343768
H31   H     H_    0.105737 0.710443 0.464124 0.169012
H32   H     H_    0.106999 0.315059 0.553895 0.214025
H33   H     H_    0.105958 0.705934 0.540993 0.220472
H34   H     H_    0.107454 0.473827 0.593440 0.182956
H35   H     H_    0.894224 0.705695 0.541166 0.210501
H36   H     H_    0.892438 0.473248 0.593443 0.210151
N1    N     N_R   0.473973 0.492476 0.851884 -0.365456
N2    N     N_R   0.482802 0.497106 0.147423 -0.358660
N3    N     N_3   0.499750 0.138610 0.498760 -0.071316
N4    N     N_3   0.499750 0.861390 0.498760 -0.075169
O1    O     O_R   0.314910 0.616040 0.499990 -0.602756
O2    O     O_2   0.285663 0.619963 0.850979 -0.524659
O3    O     O_2   0.291828 0.620160 0.149817 -0.558022
O4    O     O_2   0.673975 0.374237 0.147663 -0.557146
O5    O     O_2   0.719623 0.668205 0.639551 -0.671333
O6    O     O_R   0.667651 0.829891 0.705602 -0.791696
O7    O     O_3   0.341052 0.139457 0.572220 -0.731431
O8    O     O_3   0.339693 0.859891 0.571672 -0.722330
O9    O     O_3   0.339965 0.292998 0.782337 -0.730005
O10   O     O_R   0.314910 0.383960 0.499990 -0.602627
O11   O     O_R   0.500080 0.616070 0.416130 -0.635170
O12   O     O_R   0.500080 0.383930 0.416130 -0.633038
O13   O     O_R   0.685320 0.616040 0.499970 -0.620467
O14   O     O_R   0.685320 0.383960 0.499970 -0.640594
O15   O     O_R   0.500150 0.616010 0.583820 -0.572239
O16   O     O_R   0.500150 0.383990 0.583820 -0.601224
O17   O     O_2   0.662098 0.364562 0.849540 -0.531704
Zn1   Zn    Zn3+2 0.500150 0.654960 0.499970 0.959440
Zn2   Zn    Zn3+2 0.500150 0.345040 0.499970 0.943055

loop_
_geom_bond_atom_site_label_1
_geom_bond_atom_site_label_2
_ccdc_geom_bond_type
C29   H18   S    
C30   H19   S    
C41   C42   A    
C31   H16   S    
C44   H21   S    
C33   O16   A    
C35   O17   S    
C7    H25   S    
C7    C8    A    
C12   C23   A    
C29   C30   S    
C18   C24   S    
C27   N3    S    
C19   C21   S    
C17   N1    S    
C38   C39   A    
C20   C25   S    
C32   N4    S    
C10   C17   A    
O13   Zn1   S    
C1    O1    A    
C38   C41   A    
C31   H14   S    
C12   C37   A    
C19   H32   S    
C5    H24   S    
C4    O11   A    
C36   N1    A    
C8    C9    A    
N4    Zn1   S    
C43   H20   S    
C22   H5    S    
C21   H3    S    
O14   Zn2   S    
C13   C14   A    
H29   O8    S    
C2    N2    A    
C45   N2    A    
C34   C41   A    
O1    Zn1   S    
C35   N1    A    
C36   O2    S    
C20   H35   S    
C20   H2    S    
C45   O3    S    
C29   N3    S    
C4    C6    S    
H27   O6    S    
C28   H9    S    
C25   C26   S    
O15   Zn1   S    
C31   N3    S    
C28   O8    S    
C2    O4    S    
C35   C39   A    
C43   C44   A    
C13   C33   S    
C37   C38   A    
C3    C9    A    
C26   H7    S    
C31   C32   S    
C1    O10   A    
C23   C34   A    
C27   O7    S    
C34   C45   A    
C30   N4    S    
C19   H34   S    
C6    C7    A    
C9    N2    S    
C22   H4    S    
C12   H1    S    
C18   H33   S    
C21   H36   S    
O16   Zn2   S    
N3    Zn2   S    
C22   C24   S    
C42   C43   A    
C32   H15   S    
C28   N4    S    
O10   Zn2   S    
C16   C25   S    
C15   C17   A    
C21   C25   S    
C36   C37   A    
C8    H26   S    
C18   H31   S    
C3    H22   S    
H28   O7    S    
C3    C5    A    
C27   H8    S    
C16   O14   A    
C23   H10   S    
C39   C44   A    
C29   H11   S    
C33   O15   A    
C19   C24   S    
C32   H17   S    
C11   H12   S    
C26   H6    S    
C11   C13   A    
C16   O13   A    
C5    C6    A    
C2    C42   A    
C15   H23   S    
C30   H13   S    
C18   C20   S    
C40   O6    S    
O12   Zn2   S    
C10   C11   A    
C14   C40   S    
C1    C24   S    
C22   C26   S    
O11   Zn1   S    
C27   C28   S    
C10   O9    S    
C14   C15   A    
C40   O5    D    
C4    O12   A    
H30   O9    S    
