data_mof_unit_3933.cif
_audit_creation_date              2012-12-11T15:47:08-0500
_audit_creation_method            fapswitch 2.2
_symmetry_space_group_name_H-M    P1
_symmetry_Int_Tables_number       1
_space_group_crystal_system       triclinic
_cell_length_a                    20.003568
_cell_length_b                    7.25395
_cell_length_c                    13.979028
_cell_angle_alpha                 90.020058
_cell_angle_beta                  102.97623
_cell_angle_gamma                 89.9812
_cell_volume                      1976.62574829

loop_
_atom_site_label
_atom_site_type_symbol
_atom_type_description
_atom_site_fract_x
_atom_site_fract_y
_atom_site_fract_z
_atom_type_partial_charge
O1    O     O_R   0.449560 0.506810 0.599700 -0.525510
O2    O     O_R   0.550440 0.006810 0.400300 -0.524991
O3    O     O_R   0.587960 0.180060 0.595760 -0.549268
O4    O     O_R   0.412040 0.680060 0.404240 -0.549925
C1    C     C_R   0.615626 0.344542 0.615222 0.757948
C2    C     C_R   0.384384 0.844553 0.384740 0.754297
O5    O     O_R   0.452380 0.177430 0.611700 -0.538309
O6    O     O_R   0.547620 0.677430 0.388300 -0.539590
O7    O     O_R   0.413900 0.001890 0.416350 -0.519588
O8    O     O_R   0.586100 0.501890 0.583650 -0.519662
C3    C     C_R   0.436370 0.345816 0.636667 0.780756
C4    C     C_R   0.563625 0.845659 0.363309 0.774890
O9    O     O_3   0.487530 0.337490 0.435890 -0.380617
O10   O     O_3   0.512470 0.837490 0.564110 -0.380518
V1    V     V_3+5 0.502310 0.064660 0.511890 1.525862
V2    V     V_3+5 0.497690 0.564660 0.488110 1.525813
C5    C     C_R   0.605643 0.802101 0.115709 0.187089
C6    C     C_R   0.394224 0.309779 0.884857 0.198866
H1    H     H_    0.687792 0.844781 0.989532 0.138574
H2    H     H_    0.312898 0.352871 0.010243 0.180017
C7    C     C_R   0.601657 0.851139 0.285500 -0.128028
C8    C     C_R   0.398338 0.352209 0.714458 -0.087170
C9    C     C_R   0.931638 0.829561 0.309109 0.107297
C10   C     C_R   0.068333 0.329003 0.690952 0.105544
C11   C     C_R   0.895182 0.813915 0.382947 0.256104
C12   C     C_R   0.104744 0.313281 0.617067 0.255002
C13   C     C_R   0.823697 0.822362 0.360017 -0.236908
C14   C     C_R   0.176217 0.321911 0.639915 -0.232245
C15   C     C_R   0.785972 0.854828 0.263249 0.014031
C16   C     C_R   0.213964 0.355419 0.736572 0.012213
C17   C     C_R   0.822634 0.864733 0.186997 0.045164
C18   C     C_R   0.177350 0.365868 0.812910 0.048625
C19   C     C_R   0.712410 0.862587 0.239215 0.028918
C20   C     C_R   0.287511 0.364108 0.760449 0.003577
C21   C     C_R   0.677261 0.835711 0.139942 -0.003334
C22   C     C_R   0.322710 0.340478 0.859833 0.056227
C23   C     C_R   0.713865 0.848290 0.066237 -0.204846
C24   C     C_R   0.286285 0.353938 0.933609 -0.162854
C25   C     C_R   0.784571 0.874153 0.088439 0.168067
C26   C     C_R   0.215459 0.377410 0.911441 0.135138
C27   C     C_R   0.671892 0.895542 0.309267 0.109435
C28   C     C_R   0.327991 0.395471 0.690260 0.108379
C29   C     C_R   0.568897 0.801045 0.189572 0.128012
C30   C     C_R   0.431432 0.306821 0.811012 0.049421
C31   C     C_R   0.895884 0.858262 0.211749 -0.168393
C32   C     C_R   0.104112 0.358191 0.788265 -0.164289
H3    H     H_    0.798439 0.793062 0.418636 0.156332
H4    H     H_    0.201436 0.292336 0.581279 0.156302
C33   C     C_R   0.205793 0.017330 0.255216 0.127310
C34   C     C_R   0.794202 0.517306 0.744719 0.126645
C35   C     C_R   0.271831 0.010485 0.318601 0.172852
C36   C     C_R   0.728183 0.510408 0.681275 0.170447
C37   C     C_R   0.313818 0.853081 0.320870 -0.048500
C38   C     C_R   0.686197 0.353083 0.679069 -0.048146
C39   C     C_R   0.286583 0.698808 0.265295 -0.180050
C40   C     C_R   0.713429 0.198905 0.734705 -0.181688
H5    H     H_    0.316366 0.573607 0.267658 0.151093
H6    H     H_    0.683646 0.073765 0.732381 0.149975
C41   C     C_R   0.220663 0.702635 0.205633 -0.163360
C42   C     C_R   0.779346 0.202744 0.794371 -0.164184
H7    H     H_    0.201373 0.578286 0.167749 0.162605
H8    H     H_    0.798658 0.078446 0.832264 0.162778
C43   C     C_R   0.180362 0.862715 0.194773 -0.086042
C44   C     C_R   0.819637 0.362767 0.805208 -0.086327
O11   O     O_R   0.913920 0.203370 0.916260 -0.532569
O12   O     O_R   0.086080 0.703370 0.083740 -0.532595
O13   O     O_R   0.047620 0.535540 0.888290 -0.527860
O14   O     O_R   0.952380 0.035540 0.111710 -0.528200
C45   C     C_R   0.063793 0.367940 0.863355 0.822622
C46   C     C_R   0.936231 0.867982 0.136682 0.821128
O15   O     O_R   0.912040 0.532780 0.904220 -0.530919
O16   O     O_R   0.087960 0.032780 0.095780 -0.530634
O17   O     O_R   0.949550 0.708160 0.099720 -0.536762
O18   O     O_R   0.050450 0.208160 0.900280 -0.536797
C47   C     C_R   0.886687 0.365430 0.879606 0.712769
C48   C     C_R   0.113312 0.865415 0.120391 0.713581
O19   O     O_3   0.012480 0.375300 0.064060 -0.364470
O20   O     O_3   0.987520 0.875300 0.935940 -0.364329
V3    V     V_3+5 0.997690 0.648180 0.988110 1.569553
V4    V     V_3+5 0.002310 0.148180 0.011890 1.569840
I1    I     I_    0.461522 0.740981 0.152061 -0.401049
I2    I     I_    0.539362 0.252419 0.847703 -0.489050
N1    N     N_3   0.295198 0.159832 0.384861 -0.652878
H9    H     H_    0.261039 0.175108 0.430921 0.241239
H10   H     H_    0.296139 0.280600 0.344500 0.239379
N2    N     N_3   0.704829 0.659563 0.614914 -0.653060
H11   H     H_    0.738976 0.674743 0.568844 0.241994
H12   H     H_    0.703842 0.780454 0.655177 0.238615
N3    N     N_3   0.569490 0.762920 0.016971 -0.617201
H13   H     H_    0.592408 0.649544 0.990961 0.253142
H14   H     H_    0.572643 0.877536 0.972995 0.259113
N4    N     N_3   0.428291 0.276935 0.985271 -0.641625
H15   H     H_    0.450995 0.146415 0.990374 0.278485
H16   H     H_    0.466732 0.375944 0.006405 0.287522
N5    N     N_3   0.696939 0.001469 0.397108 -0.655129
H17   H     H_    0.740061 0.079397 0.392727 0.259051
H18   H     H_    0.707437 0.913931 0.457779 0.224673
N6    N     N_3   0.302891 0.500078 0.601995 -0.656798
H19   H     H_    0.259739 0.578242 0.606057 0.260302
H20   H     H_    0.292465 0.411682 0.541681 0.223933
I3    I     I_    0.040820 0.791915 0.342392 -0.254136
I4    I     I_    0.959154 0.291552 0.657733 -0.253634
I5    I     I_    0.945939 0.774937 0.531268 -0.227031
I6    I     I_    0.053928 0.274547 0.468733 -0.227436
N7    N     N_3   0.816412 0.915562 0.009365 -0.666649
H21   H     H_    0.800960 0.818482 0.953413 0.230122
H22   H     H_    0.798413 0.045601 0.984119 0.225016
N8    N     N_3   0.183528 0.418770 0.990443 -0.664999
H23   H     H_    0.199490 0.322692 0.046742 0.230770
H24   H     H_    0.200908 0.549624 0.015155 0.226469
I7    I     I_    0.146628 0.261658 0.263135 -0.350080
I8    I     I_    0.853326 0.761573 0.736852 -0.350691

loop_
_geom_bond_atom_site_label_1
_geom_bond_atom_site_label_2
_ccdc_geom_bond_type
O14   V4    S    
O15   C47   A    
C9    C31   A    
C39   C41   A    
C13   C15   A    
C34   C44   A    
N5    H17   S    
O1    C3    A    
O16   C48   A    
O2    C4    A    
C2    O7    A    
O15   V3    S    
C9    I3    S    
O5    C3    A    
O12   V3    S    
N7    H22   S    
C33   C43   A    
C21   C23   A    
C10   C12   A    
C30   I2    S    
C28   N6    S    
N2    H12   S    
C43   C48   S    
C15   C19   A    
O16   V4    S    
N8    H23   S    
C42   H8    S    
C32   C45   S    
H1    C23   S    
C12   I6    S    
C7    C29   A    
C8    C30   A    
N8    H24   S    
C33   C35   A    
C20   C28   A    
C34   C36   A    
N3    H14   S    
C10   I4    S    
C26   N8    S    
O5    V1    S    
O6    V2    S    
O11   V4    S    
O18   V4    S    
C27   N5    S    
N4    H16   S    
C12   C14   A    
C36   C38   A    
C37   C39   A    
C23   C25   A    
C38   C40   A    
C41   H7    S    
C16   C20   A    
C16   C18   A    
C1    C38   S    
C5    N3    S    
O4    C2    A    
O20   V3    S    
C11   I5    S    
C4    C7    S    
C40   C42   A    
O13   C45   A    
O4    V2    S    
C5    C29   A    
C6    C30   A    
H2    C24   S    
N1    H9    S    
O6    C4    A    
O12   C48   A    
C46   O17   A    
C34   I8    S    
O17   V3    S    
O13   V3    S    
C45   O18   A    
O1    V2    S    
O2    V1    S    
C7    C27   A    
N1    H10   S    
N6    H20   S    
C39   H5    S    
C29   I1    S    
C2    C37   S    
C22   C24   A    
C35   N1    S    
O3    V1    S    
O19   V4    S    
C13   H3    S    
C25   N7    S    
C14   H4    S    
C31   C46   S    
N2    H11   S    
C18   C32   A    
O3    C1    A    
N5    H18   S    
C11   C13   A    
N7    H21   S    
C3    C8    S    
C41   C43   A    
O11   C47   A    
C33   I7    S    
C42   C44   A    
C19   C27   A    
C14   C16   A    
O7    V1    S    
C6    N4    S    
C1    O8    A    
C15   C17   A    
O8    V2    S    
C24   C26   A    
C8    C28   A    
C36   N2    S    
N4    H15   S    
C19   C21   A    
C44   C47   S    
C40   H6    S    
C20   C22   A    
C18   C26   A    
C9    C11   A    
O14   C46   A    
N6    H19   S    
C17   C31   A    
O9    V2    S    
C17   C25   A    
O10   V1    S    
C5    C21   A    
C35   C37   A    
N3    H13   S    
C6    C22   A    
C10   C32   A    
