data_mof_unit_3179.cif
_audit_creation_date              2012-10-26T21:02:55-0400
_audit_creation_method            fapswitch 2.2
_symmetry_space_group_name_H-M    P1
_symmetry_Int_Tables_number       1
_space_group_crystal_system       triclinic
_cell_length_a                    12.312654
_cell_length_b                    13.172831
_cell_length_c                    23.507974
_cell_angle_alpha                 77.796434
_cell_angle_beta                  101.14069
_cell_angle_gamma                 116.513508
_cell_volume                      3313.3530676

loop_
_atom_site_label
_atom_site_type_symbol
_atom_type_description
_atom_site_fract_x
_atom_site_fract_y
_atom_site_fract_z
_atom_type_partial_charge
C1    C     C_R   0.854874 0.286550 0.505099 0.534312
C2    C     C_R   0.017401 0.595896 0.870641 0.404423
C3    C     C_R   0.903507 0.513511 0.749302 -0.043260
C4    C     C_R   0.999128 0.499342 0.608950 0.555860
C5    C     C_R   0.905015 0.514684 0.690010 -0.134346
C6    C     C_R   0.997089 0.497906 0.671526 0.002769
C7    C     C_R   0.087087 0.479378 0.713442 -0.128501
C8    C     C_R   0.085365 0.478300 0.772664 -0.047080
C9    C     C_R   0.993770 0.495521 0.790795 0.235213
C10   C     C_R   0.091896 0.480888 0.250654 -0.058150
C11   C     C_R   0.091768 0.481194 0.309925 -0.145216
C12   C     C_R   0.950193 0.294091 0.049250 -0.120372
C13   C     C_R   0.001096 0.499836 0.328534 0.002822
C14   C     C_R   0.910746 0.518166 0.286790 -0.146986
C15   C     C_R   0.911075 0.517756 0.227604 -0.056799
C16   C     C_R   0.145062 0.713422 0.491583 0.553389
C17   C     C_R   0.001578 0.499163 0.209312 0.240168
C18   C     C_R   0.275110 0.021782 0.423080 -0.115254
C19   C     C_R   0.227845 0.834595 0.479875 0.006932
C20   C     C_R   0.815530 0.085332 0.543478 -0.118398
C21   C     C_R   0.736694 0.970566 0.555233 -0.122452
C22   C     C_R   0.613236 0.932901 0.534927 -0.112516
C23   C     C_R   0.948270 0.293408 0.989796 -0.118292
C24   C     C_R   0.566354 0.009538 0.500089 0.038283
C25   C     C_R   0.649821 0.123790 0.482539 0.026737
C26   C     C_R   0.439644 0.976281 0.481499 0.038099
C27   C     C_R   0.399841 0.053590 0.441736 0.056555
C28   C     C_R   0.000476 0.500116 0.391066 0.546281
C29   C     C_R   0.485043 0.160568 0.419757 -0.131542
C30   C     C_R   0.608244 0.194449 0.438987 -0.116495
C31   C     C_R   0.350864 0.868505 0.501483 -0.116630
C32   C     C_R   0.189411 0.912331 0.441746 -0.120781
C33   C     C_R   0.773004 0.163553 0.508548 -0.002997
C34   C     C_R   0.971214 0.394396 0.949743 0.029875
C35   C     C_R   0.342737 0.324298 0.593144 0.235707
C36   C     C_R   0.759509 0.645788 0.421347 0.050159
C37   C     C_R   0.662826 0.677311 0.404518 -0.156581
C38   C     C_R   0.559330 0.621898 0.434248 -0.131759
C39   C     C_R   0.551202 0.533667 0.481624 0.001742
C40   C     C_R   0.024644 0.598538 0.110249 0.400665
C41   C     C_R   0.652970 0.504804 0.497306 0.180370
C42   C     C_R   0.446659 0.473470 0.513991 -0.050830
C43   C     C_R   0.445406 0.385036 0.561119 0.024330
C44   C     C_R   0.546846 0.359600 0.575373 -0.130657
C45   C     C_R   0.996138 0.496792 0.969945 -0.027651
C46   C     C_R   0.647548 0.418245 0.544656 -0.117270
C47   C     C_R   0.342594 0.497365 0.501577 0.018813
C48   C     C_R   0.244342 0.353767 0.578129 0.062712
C49   C     C_R   0.977081 0.398459 0.129418 0.400815
C50   C     C_R   0.975098 0.395774 0.069878 0.029489
C51   C     C_R   0.998122 0.497490 0.030085 -0.027686
C52   C     C_R   0.023126 0.599906 0.050285 0.028981
C53   C     C_R   0.019193 0.598522 0.930161 0.028915
C54   C     C_R   0.044046 0.700194 0.950781 -0.116232
C55   C     C_R   0.046008 0.700883 0.010231 -0.119254
C56   C     C_R   0.969960 0.395841 0.889788 0.404770
Cu1   Cu    Cu3+1 0.098270 0.475410 0.513370 0.943595
Cu2   Cu    Cu3+1 0.901730 0.524590 0.486630 0.926553
H1    H     H_    0.932117 0.214744 0.078940 0.170337
H2    H     H_    0.557805 0.842757 0.546253 0.109300
H3    H     H_    0.770796 0.910822 0.581853 0.142194
H4    H     H_    0.928842 0.213571 0.975370 0.172583
H5    H     H_    0.670222 0.275650 0.417877 0.152461
H6    H     H_    0.164761 0.309261 0.601651 0.165626
H7    H     H_    0.550842 0.293953 0.610960 0.202602
H8    H     H_    0.335626 0.562588 0.466715 0.129218
H9    H     H_    0.839510 0.689253 0.398067 0.127293
H10   H     H_    0.487506 0.650021 0.419156 0.102244
H11   H     H_    0.668087 0.744931 0.368291 0.114461
H12   H     H_    0.162659 0.467039 0.341054 0.129576
H13   H     H_    0.719657 0.392384 0.560139 0.185329
H14   H     H_    0.062130 0.779544 0.921092 0.177559
H15   H     H_    0.065471 0.780729 0.024657 0.171892
H16   H     H_    0.832183 0.526479 0.763082 0.146683
H17   H     H_    0.834148 0.528633 0.658766 0.140083
H18   H     H_    0.159061 0.466070 0.700549 0.150079
H19   H     H_    0.155605 0.464685 0.804532 0.143841
H20   H     H_    0.162355 0.466801 0.236759 0.131665
H21   H     H_    0.444010 0.193755 0.733030 0.382238
H22   H     H_    0.839632 0.532613 0.299783 0.129866
H23   H     H_    0.840751 0.531541 0.195872 0.134438
H24   H     H_    0.094240 0.887061 0.424520 0.126926
H25   H     H_    0.456408 0.218398 0.387362 0.112945
H26   H     H_    0.244313 0.080421 0.392672 0.116165
H27   H     H_    0.374779 0.807963 0.533469 0.124969
H28   H     H_    0.909608 0.113328 0.563044 0.153737
N1    N     N_R   0.001532 0.498782 0.148348 -0.398614
N2    N     N_R   0.993160 0.495630 0.851716 -0.400811
N3    N     N_R   0.246280 0.438190 0.533650 -0.273596
N4    N     N_R   0.754320 0.561190 0.466710 -0.235415
O1    O     O_R   0.972510 0.318130 0.516820 -0.500271
O2    O     O_R   0.082990 0.479280 0.429170 -0.502207
O3    O     O_R   0.917010 0.520800 0.406580 -0.515568
O4    O     O_2   0.049753 0.696166 0.130444 -0.495140
O5    O     O_2   0.213884 0.163801 0.676877 -0.272725
O6    O     O_2   0.343077 0.117596 0.629088 -0.281028
O7    O     O_3   0.448794 0.262097 0.704296 -0.532454
O8    O     O_2   0.953621 0.301474 0.168032 -0.497912
O9    O     O_2   0.945109 0.298296 0.869582 -0.481768
O10   O     O_2   0.040900 0.692904 0.832038 -0.474545
O11   O     O_R   0.806530 0.359650 0.494230 -0.528470
O12   O     O_R   0.082990 0.479200 0.593420 -0.498215
O13   O     O_R   0.917010 0.520720 0.570830 -0.517009
O14   O     O_R   0.193470 0.640350 0.505770 -0.507412
O15   O     O_R   0.027490 0.681870 0.483180 -0.498688
S1    S     S_3+6 0.333133 0.211500 0.651558 -0.009807

loop_
_geom_bond_atom_site_label_1
_geom_bond_atom_site_label_2
_ccdc_geom_bond_type
C34   C56   A    
C31   H27   S    
Cu1   O2    S    
C37   H11   S    
C27   C29   A    
C49   N1    A    
C19   C31   A    
C10   H20   S    
C11   H12   S    
C1    C33   S    
C7    C8    A    
C15   H23   S    
C53   C54   A    
Cu1   O12   S    
C12   C23   A    
C26   C27   A    
C29   C30   A    
Cu1   N3    S    
C40   N1    A    
C21   C22   A    
C36   C37   A    
Cu2   O3    S    
C24   C26   A    
C29   H25   S    
C9    N2    S    
C22   H2    S    
C38   C39   A    
C56   N2    A    
C35   C48   A    
C10   C17   A    
C4    O13   A    
C3    H16   S    
C49   O8    S    
C12   H1    S    
C16   O14   A    
C23   H4    S    
C8    C9    A    
C20   H28   S    
C18   H26   S    
C41   C46   A    
C13   C28   S    
C2    N2    A    
C14   H22   S    
C35   C43   A    
C47   H8    S    
C21   H3    S    
C52   C55   A    
C41   N4    A    
C2    O10   S    
C26   C31   A    
C1    O1    A    
C13   C14   A    
C47   N3    A    
C44   H7    S    
C19   C32   A    
C44   C46   A    
C39   C42   A    
C36   H9    S    
C51   C52   A    
C24   C25   A    
C4    C6    S    
C34   C45   A    
C40   C52   A    
C4    O12   A    
C28   O3    A    
C5    H17   S    
C43   C44   A    
C37   C38   A    
C3    C9    A    
O5    S1    D    
C23   C34   A    
C50   C51   A    
C28   O2    A    
Cu2   O11   S    
Cu2   N4    S    
C46   H13   S    
C7    H18   S    
C16   O15   A    
O7    S1    S    
C38   H10   S    
C48   N3    A    
C8    H19   S    
C22   C24   A    
C18   C32   A    
C42   C43   A    
C20   C33   A    
C1    O11   A    
C36   N4    A    
C25   C30   A    
C15   C17   A    
Cu1   O14   S    
O6    S1    D    
C54   C55   A    
Cu1   O1    S    
C17   N1    S    
H21   O7    S    
C18   C27   A    
C40   O4    S    
C3    C5    A    
C2    C53   A    
C12   C50   A    
C6    C7    A    
C32   H24   S    
Cu2   O15   S    
C35   S1    S    
C11   C13   A    
Cu1   Cu2   S    
C5    C6    A    
C16   C19   S    
C42   C47   A    
C48   H6    S    
C10   C11   A    
C45   C53   A    
C55   H15   S    
C54   H14   S    
C20   C21   A    
C39   C41   A    
C49   C50   A    
C45   C51   A    
C14   C15   A    
Cu2   O13   S    
C56   O9    S    
C30   H5    S    
C25   C33   A    
