data_mof_unit_3608.cif
_audit_creation_date              2012-12-11T14:43:38-0500
_audit_creation_method            fapswitch 2.2
_symmetry_space_group_name_H-M    P1
_symmetry_Int_Tables_number       1
_space_group_crystal_system       triclinic
_cell_length_a                    20.884068
_cell_length_b                    7.101037
_cell_length_c                    16.396098
_cell_angle_alpha                 89.960938
_cell_angle_beta                  92.705032
_cell_angle_gamma                 90.034497
_cell_volume                      2428.80707123

loop_
_atom_site_label
_atom_site_type_symbol
_atom_type_description
_atom_site_fract_x
_atom_site_fract_y
_atom_site_fract_z
_atom_type_partial_charge
O1    O     O_R   0.564840 0.505290 0.579830 -0.543738
O2    O     O_R   0.435160 0.005290 0.420170 -0.535106
O3    O     O_R   0.556720 0.179930 0.409350 -0.522700
O4    O     O_R   0.443280 0.679930 0.590650 -0.540221
C1    C     C_R   0.570521 0.345132 0.381354 0.775922
C2    C     C_R   0.429458 0.844627 0.618652 0.776262
O5    O     O_R   0.572280 0.175810 0.578530 -0.538666
O6    O     O_R   0.427720 0.675810 0.421470 -0.546905
O7    O     O_R   0.450830 0.001920 0.590540 -0.523571
O8    O     O_R   0.549170 0.501920 0.409460 -0.543215
C3    C     C_R   0.590148 0.342744 0.604948 0.720943
C4    C     C_R   0.409866 0.842773 0.395034 0.721313
O9    O     O_3   0.460130 0.338030 0.503750 -0.367799
O10   O     O_3   0.539870 0.838030 0.496250 -0.373344
V1    V     V_3+5 0.507400 0.064560 0.499310 1.517779
V2    V     V_3+5 0.492600 0.564560 0.500690 1.480729
C5    C     C_R   0.144418 0.926729 0.167266 -0.051192
C6    C     C_R   0.855602 0.426878 0.832715 -0.054341
C7    C     C_R   0.355364 0.839219 0.332956 -0.064940
C8    C     C_R   0.644711 0.339007 0.666945 -0.055487
C9    C     C_R   0.290919 0.656799 0.232406 -0.164145
C10   C     C_R   0.709449 0.155825 0.766966 -0.166083
C11   C     C_R   0.345209 0.676063 0.284878 -0.134777
C12   C     C_R   0.655111 0.175173 0.714601 -0.126116
C13   C     C_R   0.310209 0.985622 0.325803 -0.194594
C14   C     C_R   0.689695 0.485940 0.674407 -0.202277
C15   C     C_R   0.254938 0.966224 0.273381 0.152626
C16   C     C_R   0.745021 0.466464 0.726725 0.157835
C17   C     C_R   0.244985 0.800022 0.226580 0.137228
C18   C     C_R   0.755196 0.299641 0.773117 0.138659
C19   C     C_R   0.189659 0.780509 0.174261 -0.175945
C20   C     C_R   0.810547 0.280098 0.825379 -0.171867
C21   C     C_R   0.154653 0.090038 0.215213 -0.167861
C22   C     C_R   0.845181 0.590760 0.785105 -0.170338
C23   C     C_R   0.209019 0.109475 0.267536 -0.170891
C24   C     C_R   0.790777 0.610263 0.732863 -0.175929
H1    H     H_    0.182968 0.654971 0.137236 0.138564
H2    H     H_    0.817394 0.154058 0.862104 0.142308
H3    H     H_    0.120664 0.205268 0.211559 0.119079
H4    H     H_    0.879041 0.706413 0.788977 0.120082
H5    H     H_    0.284588 0.528712 0.197021 0.135342
H6    H     H_    0.715959 0.027230 0.802022 0.133488
H7    H     H_    0.215384 0.237635 0.302863 0.126711
H8    H     H_    0.784256 0.738892 0.697834 0.126944
H9    H     H_    0.379188 0.560807 0.288559 0.131115
H10   H     H_    0.621291 0.059431 0.710677 0.129629
H11   H     H_    0.316895 0.111156 0.362835 0.145329
H12   H     H_    0.682830 0.612018 0.637711 0.130538
C25   C     C_R   0.380232 0.807785 0.835145 0.331920
C26   C     C_R   0.617628 0.402518 0.164818 0.331808
H13   H     H_    0.466214 0.763933 0.771499 0.152939
H14   H     H_    0.530408 0.411994 0.228408 0.150881
H15   H     H_    0.301061 0.850038 0.958732 0.202769
H16   H     H_    0.698006 0.390528 0.041284 0.202769
C27   C     C_R   0.388485 0.850628 0.689493 -0.131226
C28   C     C_R   0.611426 0.356954 0.310592 -0.131891
C29   C     C_R   0.078650 0.891910 0.733533 -0.199310
C30   C     C_R   0.920333 0.438457 0.266430 -0.200211
C31   C     C_R   0.112707 0.859271 0.664269 -0.104440
C32   C     C_R   0.885093 0.457537 0.335617 -0.101540
C33   C     C_R   0.179304 0.849005 0.669691 -0.055790
C34   C     C_R   0.818625 0.441565 0.330202 -0.052475
C35   C     C_R   0.214250 0.881027 0.744200 0.043290
C36   C     C_R   0.785467 0.395691 0.255839 0.042235
C37   C     C_R   0.178874 0.897573 0.816652 -0.047895
C38   C     C_R   0.821278 0.392879 0.183416 -0.047076
C39   C     C_R   0.283074 0.876508 0.749832 -0.008464
C40   C     C_R   0.717061 0.373018 0.250255 -0.008871
C41   C     C_R   0.313966 0.848109 0.828211 -0.064322
C42   C     C_R   0.685142 0.388593 0.171812 -0.064596
C43   C     C_R   0.278326 0.861803 0.898316 -0.176313
C44   C     C_R   0.721083 0.388431 0.101718 -0.177718
C45   C     C_R   0.212670 0.893958 0.893083 0.547301
C46   C     C_R   0.787623 0.382432 0.107008 0.546976
C47   C     C_R   0.322867 0.898799 0.681495 0.202986
C48   C     C_R   0.678664 0.335362 0.318696 0.200465
C49   C     C_R   0.415857 0.800999 0.765628 -0.226308
C50   C     C_R   0.582017 0.395332 0.234350 -0.227189
C51   C     C_R   0.110491 0.907317 0.810167 -0.075094
C52   C     C_R   0.889480 0.410529 0.189865 -0.075400
H17   H     H_    0.026747 0.896448 0.727876 0.099208
H18   H     H_    0.971973 0.454578 0.272052 0.099407
H19   H     H_    0.202390 0.803518 0.615735 0.161939
H20   H     H_    0.793662 0.477870 0.384004 0.162569
H21   H     H_    0.087168 0.836357 0.606118 0.125306
H22   H     H_    0.909353 0.490522 0.393669 0.125820
O11   O     O_R   0.950790 0.256670 0.090520 -0.533284
O12   O     O_R   0.049210 0.756670 0.909480 -0.538069
O13   O     O_R   0.927720 0.590370 0.921470 -0.541117
O14   O     O_R   0.072280 0.090370 0.078530 -0.537489
C53   C     C_R   0.910215 0.423066 0.894638 0.777956
C54   C     C_R   0.089796 0.923034 0.105352 0.778098
O15   O     O_R   0.943270 0.586180 0.090640 -0.538575
O16   O     O_R   0.056730 0.086180 0.909360 -0.534106
O17   O     O_R   0.064850 0.759970 0.079840 -0.543026
O18   O     O_R   0.935150 0.259970 0.920160 -0.539215
C55   C     C_R   0.930133 0.417643 0.118631 0.802856
C56   C     C_R   0.069884 0.917622 0.881377 0.802676
O19   O     O_3   0.039850 0.428050 0.996240 -0.378593
O20   O     O_3   0.960150 0.928050 0.003760 -0.377455
V3    V     V_3+5 0.992610 0.701540 0.000700 1.481291
V4    V     V_3+5 0.007390 0.201540 0.999300 1.494194
Br1   Br    Br    0.295217 0.033790 0.583274 -0.597494
Br2   Br    Br    0.712309 0.212958 0.417342 -0.592670
F1    F     F_    0.182520 0.910852 0.964174 -0.713986
F2    F     F_    0.818283 0.376610 0.035963 -0.715252
Br3   Br    Br    0.425106 0.753044 0.937601 -0.443971
Br4   Br    Br    0.570642 0.438635 0.062226 -0.443606

loop_
_geom_bond_atom_site_label_1
_geom_bond_atom_site_label_2
_ccdc_geom_bond_type
C48   Br2   S    
C47   Br1   S    
C35   C37   A    
C28   C48   A    
O18   V4    S    
C52   C55   S    
C15   C17   A    
C29   C51   A    
C1    C28   S    
O1    C3    A    
C2    C27   S    
O2    C4    A    
C2    O7    A    
H13   C49   S    
O12   V3    S    
C37   C45   A    
C37   C51   A    
C25   Br3   S    
O5    C3    A    
C21   H3    S    
C11   H9    S    
C6    C53   S    
C36   C40   A    
C30   H18   S    
C27   C49   A    
C29   C31   A    
O16   C56   A    
C30   C32   A    
C38   C46   A    
C28   C50   A    
C32   C34   A    
C41   C43   A    
O14   V4    S    
C34   C36   A    
C51   C56   S    
C53   O18   A    
C45   F1    S    
C8    C12   A    
C20   H2    S    
O13   C53   A    
C23   H7    S    
C13   H11   S    
C22   C24   A    
C14   H12   S    
C27   C47   A    
O5    V1    S    
O6    V2    S    
C25   C41   A    
C26   Br4   S    
C5    C54   S    
C5    C21   A    
H14   C50   S    
C26   C50   A    
C35   C39   A    
C3    C8    S    
C31   C33   A    
C44   C46   A    
C33   H19   S    
O15   V3    S    
C43   C45   A    
C32   H22   S    
C15   C23   A    
C9    C17   A    
C54   O17   A    
C19   H1    S    
C39   C41   A    
C36   C38   A    
O4    V2    S    
C7    C11   A    
C31   H21   S    
C46   F2    S    
O11   V4    S    
O14   C54   A    
O6    C4    A    
O20   V4    S    
H16   C44   S    
O1    V2    S    
C40   C48   A    
O2    V1    S    
C6    C22   A    
O16   V4    S    
C9    H5    S    
O4    C2    A    
O19   V3    S    
C9    C11   A    
C5    C19   A    
C22   H4    S    
C24   H8    S    
C39   C47   A    
H15   C43   S    
O15   C55   A    
O3    V1    S    
C34   H20   S    
C10   C18   A    
O13   V3    S    
C33   C35   A    
O3    C1    A    
C30   C52   A    
C13   C15   A    
C38   C52   A    
C14   C16   A    
C12   H10   S    
C16   C18   A    
C26   C42   A    
C1    O8    A    
C17   C19   A    
O8    V2    S    
C18   C20   A    
C10   H6    S    
C8    C14   A    
C4    C7    S    
O20   V3    S    
C21   C23   A    
C25   C49   A    
C10   C12   A    
O7    V1    S    
C7    C13   A    
C29   H17   S    
O19   V4    S    
C6    C20   A    
C16   C24   A    
C40   C42   A    
O9    V2    S    
O10   V1    S    
C42   C44   A    
O12   C56   A    
O17   V3    S    
O11   C55   A    
