data_mof_unit_870.cif
_audit_creation_date              2012-10-26T20:06:11-0400
_audit_creation_method            fapswitch 2.2
_symmetry_space_group_name_H-M    P1
_symmetry_Int_Tables_number       1
_space_group_crystal_system       triclinic
_cell_length_a                    9.514707
_cell_length_b                    10.812496
_cell_length_c                    13.54279
_cell_angle_alpha                 90.281158
_cell_angle_beta                  72.9734
_cell_angle_gamma                 89.805831
_cell_volume                      1332.15078286

loop_
_atom_site_label
_atom_site_type_symbol
_atom_type_description
_atom_site_fract_x
_atom_site_fract_y
_atom_site_fract_z
_atom_type_partial_charge
C1    C     C_R   0.499631 0.737762 0.500419 0.555873
C2    C     C_R   0.382328 0.467344 0.812283 -0.009508
C3    C     C_R   0.595794 0.934127 0.544310 -0.122040
C4    C     C_R   0.423373 0.488458 0.699330 0.560188
C5    C     C_R   0.599050 0.062921 0.544346 0.250609
C6    C     C_R   0.500097 0.128004 0.503556 0.029170
C7    C     C_R   0.401537 0.064294 0.462720 -0.190085
C8    C     C_R   0.401035 0.936387 0.461743 -0.159368
C9    C     C_R   0.498987 0.871338 0.501737 -0.021865
C10   C     C_R   0.896894 0.571891 0.568355 -0.009570
C11   C     C_R   0.045683 0.571688 0.568454 -0.003309
C12   C     C_R   0.439404 0.479322 0.978334 0.026862
C13   C     C_R   0.103170 0.428286 0.431466 0.009360
C14   C     C_R   0.954393 0.428617 0.431285 0.003922
C15   C     C_R   0.499627 0.262072 0.501822 0.571908
C16   C     C_R   0.577932 0.501974 0.300724 0.542343
C17   C     C_R   0.799465 0.549637 0.024960 -0.140235
C18   C     C_R   0.621408 0.508493 0.188568 -0.014169
C19   C     C_R   0.233409 0.453207 0.865804 -0.190460
C20   C     C_R   0.186781 0.455122 0.972751 -0.122941
C21   C     C_R   0.284870 0.480840 0.028798 0.259661
C22   C     C_3   0.833854 0.111903 0.541816 -0.002403
C23   C     C_R   0.488080 0.467113 0.868786 -0.006667
C24   C     C_3   0.924895 0.178040 0.601246 -0.356609
C25   C     C_3   0.205352 0.641540 0.139414 -0.024393
C26   C     C_3   0.142821 0.678159 0.252431 -0.368488
C27   C     C_R   0.547944 0.493372 0.031345 0.029060
C28   C     C_R   0.696259 0.515573 0.974625 0.045761
C29   C     C_R   0.742413 0.492808 0.869406 -0.153319
C30   C     C_R   0.641369 0.456633 0.819861 -0.115977
C31   C     C_R   0.516726 0.480133 0.138114 -0.115781
C32   C     C_R   0.761893 0.547221 0.132097 -0.140330
Cu1   Cu    Cu3+1 0.359340 0.499980 0.500000 0.920967
Cu2   Cu    Cu3+1 0.640660 0.500020 0.500000 0.937745
H1    H     H_    0.842921 0.572818 0.170357 0.135193
H2    H     H_    0.414442 0.440685 0.183059 0.187918
H3    H     H_    0.151513 0.444835 0.824964 0.131655
H4    H     H_    0.071570 0.444978 0.013161 0.133547
H5    H     H_    0.688242 0.417651 0.744101 0.169860
H6    H     H_    0.665996 0.883156 0.580089 0.123963
H7    H     H_    0.857390 0.154124 0.463847 0.130176
H8    H     H_    0.869096 0.013185 0.533258 0.110192
H9    H     H_    0.909892 0.132788 0.677056 0.153184
H10   H     H_    0.043120 0.174165 0.556613 0.100129
H11   H     H_    0.889963 0.276288 0.614700 0.170595
H12   H     H_    0.325924 0.113436 0.430470 0.124225
H13   H     H_    0.126575 0.672442 0.097620 0.127666
H14   H     H_    0.311921 0.690383 0.107650 0.139438
H15   H     H_    0.219109 0.649065 0.296360 0.184790
H16   H     H_    0.034411 0.633655 0.285825 0.165654
H17   H     H_    0.128174 0.780071 0.259281 0.088219
H18   H     H_    0.325371 0.888409 0.428820 0.132403
H19   H     H_    0.817864 0.629581 0.623099 0.114701
H20   H     H_    0.078778 0.629132 0.623280 0.112798
H21   H     H_    0.182211 0.370684 0.376658 0.121590
H22   H     H_    0.921361 0.371442 0.376289 0.115545
H23   H     H_    0.858247 0.494447 0.826652 0.096954
H24   H     H_    0.909128 0.576832 0.980934 0.099245
N1    N     N_R   0.147940 0.499970 0.499970 -0.232031
N2    N     N_R   0.852060 0.500060 0.499990 -0.234682
O1    O     O_R   0.381250 0.680340 0.500010 -0.503312
O2    O     O_3   0.225307 0.511944 0.131710 -0.593021
O3    O     O_R   0.618820 0.680370 0.500010 -0.507716
O4    O     O_R   0.323240 0.499950 0.650980 -0.505162
O5    O     O_R   0.560810 0.499980 0.650980 -0.514952
O6    O     O_R   0.381180 0.319630 0.499990 -0.519611
O7    O     O_R   0.618750 0.319660 0.499990 -0.468621
O8    O     O_R   0.439190 0.500020 0.349020 -0.515471
O9    O     O_R   0.676760 0.500050 0.349020 -0.507188
O10   O     O_3   0.683289 0.124861 0.596530 -0.543786

loop_
_geom_bond_atom_site_label_1
_geom_bond_atom_site_label_2
_ccdc_geom_bond_type
Cu2   O7    S    
Cu1   O6    S    
C14   H22   S    
C7    H12   S    
C6    C7    A    
C3    C9    A    
C13   C14   A    
C20   H4    S    
C32   H1    S    
C8    H18   S    
C2    C4    S    
C19   C20   A    
C25   H14   S    
C25   H13   S    
C17   H24   S    
C15   O7    A    
C13   N1    A    
Cu1   Cu2   S    
C6    C15   S    
C1    C9    S    
C7    C8    A    
Cu1   N1    S    
C22   H8    S    
C26   H17   S    
Cu2   N2    S    
C15   O6    A    
C12   C23   A    
C21   O2    S    
C29   C30   A    
C11   H20   S    
C4    O5    A    
Cu1   O4    S    
C16   O8    A    
C24   H11   S    
C1    O3    A    
Cu2   O5    S    
Cu1   O1    S    
C28   C29   A    
C25   C26   S    
C29   H23   S    
C3    H6    S    
C22   C24   S    
C25   O2    S    
C26   H16   S    
C5    C6    A    
C24   H10   S    
C11   N1    A    
C22   H7    S    
C18   C32   A    
C10   C11   A    
C12   C27   A    
C27   C31   A    
C23   C30   A    
C3    C5    A    
C2    C23   A    
C14   N2    A    
C20   C21   A    
C10   H19   S    
C16   C18   S    
C26   H15   S    
C30   H5    S    
C17   C32   A    
C24   H9    S    
C4    O4    A    
C10   N2    A    
Cu2   O3    S    
C18   C31   A    
C19   H3    S    
C13   H21   S    
C2    C19   A    
C31   H2    S    
C17   C28   A    
Cu2   O9    S    
C12   C21   A    
C22   O10   S    
C16   O9    A    
Cu1   O8    S    
C8    C9    A    
C27   C28   A    
C5    O10   S    
C1    O1    A    
