data_mof_unit_3041.cif
_audit_creation_date              2012-12-10T17:33:58-0500
_audit_creation_method            fapswitch 2.2
_symmetry_space_group_name_H-M    P1
_symmetry_Int_Tables_number       1
_space_group_crystal_system       triclinic
_cell_length_a                    10.655782
_cell_length_b                    12.01894
_cell_length_c                    12.895201
_cell_angle_alpha                 93.099518
_cell_angle_beta                  91.507043
_cell_angle_gamma                 88.18711
_cell_volume                      1647.76222622

loop_
_atom_site_label
_atom_site_type_symbol
_atom_type_description
_atom_site_fract_x
_atom_site_fract_y
_atom_site_fract_z
_atom_type_partial_charge
C1    C     C_R   0.491794 0.521022 0.700277 0.908894
C2    C     C_R   0.499995 0.445729 0.976017 0.060122
C3    C     C_R   0.507301 0.552392 0.026296 0.149313
C4    C     C_R   0.741668 0.502378 0.502865 0.879254
C5    C     C_R   0.514856 0.561604 0.132970 -0.298096
C6    C     C_R   0.552980 0.360634 0.138287 0.202422
C7    C     C_R   0.525365 0.350594 0.031989 -0.248906
C8    C     C_R   0.347283 0.951827 0.442097 0.379884
C9    C     C_R   0.369524 0.836208 0.438768 -0.129873
C10   C     C_R   0.565384 0.858713 0.527671 -0.067907
C11   C     C_R   0.551318 0.975759 0.527688 -0.013592
C12   C     C_3   0.119801 0.496135 0.508824 -0.047824
C13   C     C_R   0.444705 0.022829 0.478296 -0.040047
C14   C     C_R   0.440565 0.139155 0.464566 0.312874
C15   C     C_R   0.623650 0.162504 0.571770 -0.051117
C16   C     C_R   0.511578 0.478543 0.300306 0.892700
C17   C     C_R   0.641017 0.046434 0.574833 -0.295397
C18   C     C_R   0.257475 0.498755 0.504299 0.859268
C19   C     C_3   0.928984 0.431118 0.592808 -0.514540
C20   C     C_3   0.073302 0.444776 0.611797 0.662659
C21   C     C_3   0.923311 0.458218 0.396521 0.329140
C22   C     C_3   0.925362 0.624404 0.525602 -0.367947
C23   C     C_3   0.066654 0.434176 0.406099 -0.102987
C24   C     C_3   0.877328 0.505003 0.504318 0.001731
C25   C     C_3   0.884233 0.489348 0.220351 0.075464
C26   C     C_3   0.854897 0.579748 0.144508 -0.801647
C27   C     C_3   0.659438 0.172592 0.135022 -0.866140
C28   C     C_3   0.490001 0.244569 0.791698 -0.746673
C29   C     C_3   0.386251 0.133536 0.279001 -0.727642
C30   C     C_3   0.143728 0.974425 0.490936 0.102014
C31   C     C_3   0.011354 0.007583 0.454780 -0.846774
C32   C     C_3   0.082400 0.489048 0.796336 0.101321
C33   C     C_3   0.100353 0.586953 0.874460 -0.846146
C34   C     C_3   0.066566 0.620427 0.508999 -0.391629
C35   C     C_3   0.079958 0.246410 0.674950 -0.925180
C36   C     C_3   0.086089 0.258387 0.298604 -0.843881
C37   C     C_R   0.528296 0.465722 0.189454 -0.145657
C38   C     C_R   0.484702 0.532239 0.812142 -0.096678
C39   C     C_R   0.502997 0.648183 0.969756 -0.218668
C40   C     C_R   0.497523 0.637711 0.862506 -0.268059
C41   C     C_R   0.473485 0.436521 0.869860 0.147029
H1    H     H_    0.907628 0.343628 0.568923 0.185626
H2    H     H_    0.723193 0.012384 0.614581 0.143595
H3    H     H_    0.298218 0.781260 0.406815 0.153736
H4    H     H_    0.646592 0.820437 0.565273 0.131894
H5    H     H_    0.873187 0.379300 0.376381 0.085459
H6    H     H_    0.879946 0.684953 0.472914 0.219426
H7    H     H_    0.904837 0.654570 0.606744 0.185792
H8    H     H_    0.112013 0.674939 0.570707 0.215441
H9    H     H_    0.806363 0.430035 0.215110 0.135148
H10   H     H_    0.973043 0.445632 0.196444 0.144386
H11   H     H_    0.934803 0.636758 0.143232 0.246766
H12   H     H_    0.085404 0.656843 0.433479 0.193638
H13   H     H_    0.838819 0.541303 0.065182 0.207457
H14   H     H_    0.769328 0.628659 0.168257 0.264674
H15   H     H_    0.665352 0.292847 0.255592 0.240233
H16   H     H_    0.704527 0.114141 0.189618 0.245857
H17   H     H_    0.731576 0.197869 0.080960 0.243267
H18   H     H_    0.583476 0.127310 0.091886 0.247371
H19   H     H_    0.336119 0.317768 0.867031 0.207684
H20   H     H_    0.483211 0.175766 0.845153 0.199310
H21   H     H_    0.590040 0.266492 0.785618 0.241255
H22   H     H_    0.452853 0.212677 0.715293 0.258781
H23   H     H_    0.113669 0.469602 0.339545 0.162147
H24   H     H_    0.352684 0.265710 0.383758 0.283999
H25   H     H_    0.381383 0.199877 0.222249 0.237645
H26   H     H_    0.312774 0.073651 0.254870 0.264504
H27   H     H_    0.479728 0.090047 0.274417 0.243200
H28   H     H_    0.167494 0.024380 0.563598 0.146889
H29   H     H_    0.142781 0.884667 0.508314 0.124028
H30   H     H_    0.987628 0.962384 0.379779 0.262512
H31   H     H_    0.943033 0.986052 0.513543 0.201550
H32   H     H_    0.003399 0.098556 0.445013 0.268330
H33   H     H_    0.154617 0.424395 0.815101 0.157866
H34   H     H_    0.508214 0.643903 0.171700 0.176129
H35   H     H_    0.987581 0.456892 0.807170 0.133605
H36   H     H_    0.029224 0.654124 0.859533 0.253897
H37   H     H_    0.089437 0.559496 0.954526 0.207655
H38   H     H_    0.195834 0.620104 0.868032 0.267666
H39   H     H_    0.231443 0.348489 0.660771 0.260101
H40   H     H_    0.151714 0.188104 0.707668 0.246600
H41   H     H_    0.026834 0.198836 0.613359 0.262828
H42   H     H_    0.015918 0.275366 0.737795 0.236048
H43   H     H_    0.159312 0.282346 0.448645 0.293622
H44   H     H_    0.108711 0.168213 0.303893 0.296570
H45   H     H_    0.509478 0.730355 0.008169 0.145736
H46   H     H_    0.156042 0.294127 0.248450 0.238504
H47   H     H_    0.990949 0.266070 0.262393 0.230107
H48   H     H_    0.531196 0.269992 0.992232 0.176590
H49   H     H_    0.503046 0.712056 0.819160 0.177089
H50   H     H_    0.876497 0.452411 0.664713 0.158446
H51   H     H_    0.692071 0.216562 0.609701 0.145054
N1    N     N_R   0.523380 0.207800 0.519350 -0.142256
N2    N     N_R   0.476620 0.792180 0.480650 -0.119396
N3    N     N_2   0.608077 0.269397 0.193094 -0.287313
N4    N     N_2   0.412464 0.339936 0.826025 -0.309987
N5    N     N_2   0.362961 0.181235 0.383011 -0.278422
N6    N     N_2   0.141408 0.338760 0.631172 -0.325802
N7    N     N_2   0.089546 0.313523 0.401453 -0.321476
O1    O     O_R   0.506240 0.421700 0.658830 -0.599435
O2    O     O_3   0.229987 0.994291 0.412867 -0.610059
O3    O     O_3   0.097350 0.525994 0.695059 -0.634350
O4    O     O_R   0.491240 0.609310 0.646410 -0.626840
O5    O     O_R   0.692710 0.406190 0.506230 -0.653429
O6    O     O_R   0.677700 0.593810 0.493810 -0.612422
O7    O     O_R   0.508760 0.390690 0.353590 -0.637154
O8    O     O_R   0.493760 0.578300 0.341170 -0.607649
O9    O     O_R   0.322300 0.406190 0.506190 -0.665776
O10   O     O_R   0.307290 0.593810 0.493770 -0.627277
O11   O     O_3   0.896132 0.539100 0.321713 -0.619172
Zn1   Zn    Zn3+2 0.510020 0.374730 0.508290 0.918486
Zn2   Zn    Zn3+2 0.489980 0.625270 0.491710 0.942939

loop_
_geom_bond_atom_site_label_1
_geom_bond_atom_site_label_2
_ccdc_geom_bond_type
H15   N3    S    
C23   N7    S    
C8    C13   A    
C5    C37   A    
O8    Zn2   S    
C22   H7    S    
C19   C20   S    
C18   O10   A    
C26   H14   S    
C17   H2    S    
C21   O11   S    
C35   H40   S    
C36   H47   S    
C12   C23   S    
C34   H12   S    
C32   H33   S    
C30   C31   S    
C4    C24   S    
C33   H37   S    
C31   H32   S    
C41   N4    S    
C20   O3    S    
C10   N2    A    
C2    C41   A    
C7    H48   S    
C25   H9    S    
C16   O8    A    
C15   H51   S    
C29   H26   S    
C27   N3    S    
C11   C17   A    
C2    C7    A    
C8    C9    A    
C9    H3    S    
C35   N6    S    
C8    O2    S    
C1    O4    A    
C14   N1    A    
C19   H1    S    
C16   O7    A    
C16   C37   S    
C28   H20   S    
C31   H30   S    
C22   H6    S    
C3    C39   A    
C13   C14   A    
C26   H13   S    
C1    O1    A    
C30   H29   S    
C35   H41   S    
O7    Zn1   S    
C36   H46   S    
C22   C34   S    
C38   C41   A    
C27   H16   S    
O10   Zn2   S    
C39   C40   A    
C35   H42   S    
C33   H38   S    
C25   C26   S    
O4    Zn2   S    
C5    H34   S    
C25   H10   S    
C32   H35   S    
C26   H11   S    
C29   H27   S    
C12   C20   S    
C10   H4    S    
C6    C37   A    
C1    C38   S    
N1    Zn1   S    
H19   N4    S    
C23   H23   S    
O6    Zn2   S    
C21   C23   S    
C22   C24   S    
C12   C34   S    
C30   H28   S    
C14   N5    S    
C21   H5    S    
C15   C17   A    
C31   H31   S    
C34   H8    S    
H39   N6    S    
H43   N7    S    
C3    C5    A    
C27   H17   S    
C15   N1    A    
O5    Zn1   S    
C6    C7    A    
C29   N5    S    
C36   H44   S    
C4    O6    A    
O9    Zn1   S    
C25   O11   S    
C28   N4    S    
C32   C33   S    
C2    C3    A    
H24   N5    S    
C27   H18   S    
C38   C40   A    
C11   C13   A    
C33   H36   S    
C4    O5    A    
C30   O2    S    
N2    Zn2   S    
C19   C24   S    
C36   N7    S    
C32   O3    S    
C18   O9    A    
C19   H50   S    
C10   C11   A    
C29   H25   S    
C28   H22   S    
C20   N6    S    
O1    Zn1   S    
C6    N3    S    
C21   C24   S    
C12   C18   S    
C39   H45   S    
C40   H49   S    
C9    N2    A    
C28   H21   S    
