data_mof_unit_2687.cif
_audit_creation_date              2012-12-10T17:58:54-0500
_audit_creation_method            fapswitch 2.2
_symmetry_space_group_name_H-M    P1
_symmetry_Int_Tables_number       1
_space_group_crystal_system       triclinic
_cell_length_a                    9.592313
_cell_length_b                    10.815596
_cell_length_c                    13.860662
_cell_angle_alpha                 91.774718
_cell_angle_beta                  83.512706
_cell_angle_gamma                 89.233139
_cell_volume                      1427.89699597

loop_
_atom_site_label
_atom_site_type_symbol
_atom_type_description
_atom_site_fract_x
_atom_site_fract_y
_atom_site_fract_z
_atom_type_partial_charge
C1    C     C_R   0.499235 0.737720 0.500972 0.777710
C2    C     C_R   0.940461 0.422641 0.436885 0.211073
C3    C     C_1   0.540037 0.499811 0.213128 -0.181359
C4    C     C_1   0.460157 0.500686 0.786823 -0.197630
C5    C     C_2   0.558811 0.500194 0.021791 -0.158946
C6    C     C_2   0.441682 0.501137 0.978117 -0.159476
C7    C     C_1   0.450108 0.500957 0.874063 -0.001346
C8    C     C_1   0.550267 0.499964 0.125870 0.001632
C9    C     C_R   0.614739 0.935642 0.529535 -0.178050
C10   C     C_R   0.382505 0.064503 0.476068 -0.181267
C11   C     C_R   0.615012 0.063649 0.529858 -0.207870
C12   C     C_R   0.500372 0.262307 0.500396 0.776737
C13   C     C_R   0.381498 0.936578 0.476801 -0.191257
C14   C     C_3   0.109081 0.649897 0.648394 -0.384606
C15   C     C_3   0.090562 0.584952 0.746465 -0.330750
C16   C     C_3   0.939799 0.590110 0.796118 -0.854034
C17   C     C_3   0.889576 0.328523 0.365774 -0.376325
C18   C     C_3   0.923575 0.193744 0.390624 -0.375019
C19   C     C_3   0.036613 0.131860 0.317644 -0.856542
C20   C     C_R   0.499847 0.128397 0.501753 -0.014277
C21   C     C_R   0.498202 0.871719 0.502591 -0.014598
C22   C     C_R   0.475991 0.500346 0.683114 0.815948
C23   C     C_R   0.524039 0.499748 0.316869 0.815235
C24   C     C_R   0.912001 0.575018 0.562663 -0.056627
C25   C     C_R   0.088328 0.427667 0.435479 -0.051821
C26   C     C_R   0.059050 0.572043 0.566715 0.234383
Cu1   Cu    Cu3+1 0.359340 0.499980 0.500000 0.924567
Cu2   Cu    Cu3+1 0.640660 0.500020 0.500000 0.927629
H1    H     H_    0.844645 0.635642 0.611717 0.143898
H2    H     H_    0.871910 0.527991 0.757475 0.260488
H3    H     H_    0.938213 0.558053 0.871572 0.237665
H4    H     H_    0.125765 0.486606 0.736859 0.240515
H5    H     H_    0.158324 0.631481 0.796048 0.208123
H6    H     H_    0.218876 0.675743 0.632822 0.223842
H7    H     H_    0.051657 0.740368 0.655452 0.152113
H8    H     H_    0.003000 0.131118 0.243527 0.257385
H9    H     H_    0.137737 0.180270 0.316928 0.243112
H10   H     H_    0.053357 0.034717 0.338007 0.242804
H11   H     H_    0.955866 0.188673 0.465015 0.217683
H12   H     H_    0.156264 0.371342 0.383839 0.148840
H13   H     H_    0.827358 0.138012 0.389313 0.223633
H14   H     H_    0.777061 0.334239 0.361980 0.234870
H15   H     H_    0.937410 0.349483 0.291299 0.175309
H16   H     H_    0.338982 0.501842 0.020235 0.153213
H17   H     H_    0.661523 0.499488 0.979659 0.155168
H18   H     H_    0.705065 0.886900 0.551087 0.143202
H19   H     H_    0.292105 0.113162 0.454574 0.151966
H20   H     H_    0.704680 0.111802 0.552539 0.146372
H21   H     H_    0.290610 0.888604 0.455825 0.149265
H22   H     H_    0.896741 0.686163 0.799210 0.249812
N1    N     N_R   0.147930 0.499970 0.499980 -0.194402
N2    N     N_R   0.852070 0.500030 0.500020 -0.190797
O1    O     O_R   0.381260 0.680340 0.500000 -0.602624
O2    O     O_R   0.618740 0.319660 0.500000 -0.595116
O3    O     O_R   0.618830 0.680370 0.500010 -0.581940
O4    O     O_R   0.381170 0.319630 0.499990 -0.582585
O5    O     O_R   0.364420 0.499960 0.637840 -0.589329
O6    O     O_R   0.635580 0.500040 0.362160 -0.591039
O7    O     O_R   0.601990 0.499990 0.637850 -0.571818
O8    O     O_R   0.398010 0.500010 0.362150 -0.572741

loop_
_geom_bond_atom_site_label_1
_geom_bond_atom_site_label_2
_ccdc_geom_bond_type
C14   H6    S    
C23   O6    A    
C18   H11   S    
Cu1   O1    S    
C1    C21   S    
C6    C7    S    
C19   H10   S    
Cu2   O6    S    
C5    C8    S    
C4    C22   S    
C3    C23   S    
C14   C15   S    
C16   H3    S    
Cu1   O8    S    
C12   C20   S    
C22   O5    A    
C25   N1    A    
C17   C18   S    
C1    O3    A    
C13   C21   A    
C9    H18   S    
C6    H16   S    
C26   N1    A    
C14   C26   S    
C2    C17   S    
C23   O8    A    
Cu2   N2    S    
C9    C21   A    
C11   H20   S    
C12   O4    A    
C2    N2    A    
C4    C7    T    
C13   H21   S    
C17   H15   S    
Cu2   O3    S    
Cu1   N1    S    
C18   C19   S    
C2    C25   A    
C24   N2    A    
C9    C11   A    
C25   H12   S    
C17   H14   S    
C5    C6    D    
C11   C20   A    
Cu2   O7    S    
C16   H2    S    
C15   C16   S    
Cu1   Cu2   S    
C3    C8    T    
Cu1   O5    S    
C18   H13   S    
C10   C20   A    
C22   O7    A    
Cu2   O2    S    
Cu1   O4    S    
C1    O1    A    
C19   H9    S    
C19   H8    S    
C24   H1    S    
C10   H19   S    
C5    H17   S    
C14   H7    S    
C12   O2    A    
C24   C26   A    
C16   H22   S    
C15   H5    S    
C10   C13   A    
C15   H4    S    
