data_mof_unit_2126.cif
_audit_creation_date              2012-10-26T20:00:56-0400
_audit_creation_method            fapswitch 2.2
_symmetry_space_group_name_H-M    P1
_symmetry_Int_Tables_number       1
_space_group_crystal_system       triclinic
_cell_length_a                    11.660027
_cell_length_b                    13.002543
_cell_length_c                    13.428466
_cell_angle_alpha                 91.99136
_cell_angle_beta                  76.373969
_cell_angle_gamma                 100.139005
_cell_volume                      1947.64118093

loop_
_atom_site_label
_atom_site_type_symbol
_atom_type_description
_atom_site_fract_x
_atom_site_fract_y
_atom_site_fract_z
_atom_type_partial_charge
C1    C     C_R   0.521045 0.700918 0.501705 0.557414
C2    C     C_R   0.395817 0.484870 0.808536 -0.013103
C3    C     C_R   0.466546 0.185673 0.497625 -0.063182
C4    C     C_R   0.435541 0.490402 0.696006 0.529524
C5    C     C_R   0.533146 0.814376 0.503301 -0.063581
C6    C     C_R   0.652049 0.985525 0.514149 0.256148
C7    C     C_R   0.641280 0.876965 0.511675 -0.115604
C8    C     C_R   0.435712 0.860262 0.495694 -0.140046
C9    C     C_R   0.444861 0.968401 0.496627 0.008951
C10   C     C_R   0.554000 0.031546 0.505876 0.011958
C11   C     C_R   0.563329 0.139710 0.506643 -0.134429
C12   C     C_R   0.444521 0.483309 0.976182 0.032620
C13   C     C_R   0.359204 0.123221 0.487298 -0.115483
C14   C     C_R   0.346930 0.014621 0.488184 0.260591
C15   C     C_R   0.946966 0.596577 0.594412 -0.177629
C16   C     C_R   0.478934 0.299101 0.498406 0.544710
C17   C     C_R   0.826458 0.588326 0.586641 0.423364
C18   C     C_R   0.856358 0.457005 0.459547 0.006720
C19   C     C_R   0.977156 0.463355 0.465332 -0.001680
C20   C     C_R   0.022146 0.533902 0.534356 -0.075778
C21   C     C_R   0.142607 0.541627 0.540713 0.024776
C22   C     C_R   0.173806 0.412150 0.413630 0.054080
C23   C     C_R   0.469916 0.458450 0.870426 0.019912
C24   C     C_R   0.054887 0.403014 0.402712 0.220260
C25   C     C_R   0.563627 0.502539 0.304011 0.548279
C26   C     C_R   0.718723 0.420002 0.043511 -0.136550
C27   C     C_R   0.598098 0.490320 0.192856 0.000865
C28   C     C_R   0.287519 0.517751 0.855002 -0.138572
C29   C     C_R   0.255713 0.530460 0.960293 -0.148620
C30   C     C_R   0.333870 0.515944 0.020278 -0.124551
C31   C     C_3   0.777835 0.049541 0.616524 -0.024785
C32   C     C_3   0.887586 0.130556 0.621792 -0.362112
C33   C     C_3   0.155210 0.943216 0.564522 -0.028616
C34   C     C_R   0.530291 0.473572 0.033650 0.028503
C35   C     C_3   0.038960 0.881631 0.545265 -0.359683
C36   C     C_3   0.058924 0.374706 0.234236 -0.021009
C37   C     C_3   0.002249 0.304548 0.159515 -0.360855
C38   C     C_3   0.760566 0.671621 0.740730 -0.022233
C39   C     C_3   0.655751 0.721791 0.798066 -0.356348
C40   C     C_R   0.633474 0.429969 0.987580 0.047970
C41   C     C_R   0.649053 0.394490 0.887066 -0.156508
C42   C     C_R   0.567893 0.407265 0.829700 -0.128292
C43   C     C_R   0.517080 0.506436 0.135619 -0.135010
C44   C     C_R   0.700743 0.449468 0.146018 -0.137395
Cu1   Cu    Cu3+1 0.386470 0.492430 0.492410 0.925520
Cu2   Cu    Cu3+1 0.613530 0.507570 0.507590 0.983486
H1    H     H_    0.764115 0.436277 0.189591 0.120161
H2    H     H_    0.797537 0.386620 0.008763 0.100500
H3    H     H_    0.443239 0.543749 0.173493 0.117963
H4    H     H_    0.228501 0.536569 0.809543 0.123908
H5    H     H_    0.303491 0.528759 0.101138 0.091828
H6    H     H_    0.171502 0.555208 0.995419 0.110527
H7    H     H_    0.582008 0.374276 0.753743 0.143414
H8    H     H_    0.646280 0.188480 0.514289 0.182857
H9    H     H_    0.792705 0.972120 0.638729 0.125497
H10   H     H_    0.699266 0.072122 0.672466 0.120163
H11   H     H_    0.873436 0.209260 0.603050 0.165164
H12   H     H_    0.284624 0.158275 0.478009 0.143748
H13   H     H_    0.903521 0.131804 0.700188 0.083904
H14   H     H_    0.967721 0.111267 0.566294 0.169421
H15   H     H_    0.137262 0.020539 0.596611 0.120376
H16   H     H_    0.183838 0.899607 0.621764 0.120228
H17   H     H_    0.054278 0.804723 0.511344 0.167201
H18   H     H_    0.970144 0.868930 0.618547 0.090629
H19   H     H_    0.005527 0.925334 0.491577 0.183347
H20   H     H_    0.157788 0.378897 0.210316 0.127741
H21   H     H_    0.036851 0.454189 0.229338 0.119743
H22   H     H_    0.903332 0.298776 0.181222 0.152976
H23   H     H_    0.717943 0.842082 0.515583 0.161955
H24   H     H_    0.036461 0.337608 0.080797 0.094717
H25   H     H_    0.024918 0.225175 0.160388 0.172725
H26   H     H_    0.843722 0.726379 0.745342 0.105094
H27   H     H_    0.757166 0.596373 0.779430 0.137148
H28   H     H_    0.569710 0.672223 0.793009 0.174995
H29   H     H_    0.658551 0.731410 0.880001 0.102276
H30   H     H_    0.660740 0.799706 0.764278 0.133796
H31   H     H_    0.352459 0.811484 0.488846 0.177871
H32   H     H_    0.178040 0.595887 0.593554 0.122183
H33   H     H_    0.232854 0.364108 0.367590 0.135020
H34   H     H_    0.983784 0.653289 0.644403 0.071225
H35   H     H_    0.724738 0.357030 0.852307 0.101797
H36   H     H_    0.819895 0.403435 0.406784 0.166055
N1    N     N_R   0.215880 0.481050 0.481000 -0.259019
N2    N     N_R   0.784100 0.518950 0.519000 -0.232132
O1    O     O_R   0.419710 0.645650 0.494620 -0.513056
O2    O     O_3   0.243044 0.954444 0.471350 -0.558744
O3    O     O_3   0.013763 0.332521 0.334159 -0.567376
O4    O     O_3   0.752752 0.656167 0.637673 -0.522188
O5    O     O_R   0.611450 0.658430 0.507430 -0.446036
O6    O     O_R   0.357340 0.490460 0.641450 -0.508099
O7    O     O_R   0.549080 0.503250 0.654260 -0.472114
O8    O     O_R   0.388550 0.341570 0.492570 -0.508158
O9    O     O_R   0.580290 0.354350 0.505380 -0.523448
O10   O     O_R   0.450920 0.496750 0.345740 -0.510022
O11   O     O_R   0.642660 0.509540 0.358550 -0.508406
O12   O     O_3   0.761391 0.046853 0.515604 -0.553352

loop_
_geom_bond_atom_site_label_1
_geom_bond_atom_site_label_2
_ccdc_geom_bond_type
C8    C9    A    
C30   H5    S    
C17   O4    S    
C41   C42   A    
Cu1   O1    S    
C19   C20   A    
C33   O2    S    
C36   H21   S    
C26   C44   A    
Cu2   O5    S    
Cu1   Cu2   S    
C12   C23   A    
C16   O9    A    
C23   C42   A    
C1    C5    S    
C36   C37   S    
C22   H33   S    
C42   H7    S    
C38   C39   S    
C36   H20   S    
C35   H19   S    
C31   O12   S    
C37   H22   S    
C18   C19   A    
C39   H28   S    
Cu1   O8    S    
C33   C35   S    
C28   H4    S    
C27   C44   A    
Cu2   O11   S    
C31   C32   S    
C33   H16   S    
C21   H32   S    
C18   N2    A    
C35   H18   S    
C39   H29   S    
C31   H10   S    
C9    C10   A    
C3    C13   A    
C44   H1    S    
C26   H2    S    
C4    O7    A    
C25   O10   A    
C13   C14   A    
Cu1   N1    S    
C32   H11   S    
Cu1   O10   S    
C4    O6    A    
C36   O3    S    
C1    O1    A    
C15   C20   A    
C38   H26   S    
C21   N1    A    
C14   O2    S    
C5    C7    A    
C43   H3    S    
C13   H12   S    
C38   O4    S    
C2    C4    S    
C9    C14   A    
C6    C10   A    
C29   C30   A    
C15   H34   S    
C41   H35   S    
C39   H30   S    
Cu1   O6    S    
C11   H8    S    
Cu2   N2    S    
C40   C41   A    
C25   O11   A    
C6    O12   S    
C37   H25   S    
C8    H31   S    
C22   C24   A    
C32   H14   S    
C12   C34   A    
C15   C17   A    
C28   C29   A    
C1    O5    A    
C12   C30   A    
C34   C43   A    
C7    H23   S    
C5    C8    A    
C35   H17   S    
C16   O8    A    
C6    C7    A    
Cu2   O7    S    
C25   C27   S    
C17   N2    A    
C22   N1    A    
C19   C24   A    
C26   C40   A    
Cu2   O9    S    
C18   H36   S    
C24   O3    S    
C3    C11   A    
C10   C11   A    
C27   C43   A    
C20   C21   A    
C33   H15   S    
C2    C23   A    
C34   C40   A    
C2    C28   A    
C32   H13   S    
C31   H9    S    
C37   H24   S    
C38   H27   S    
C3    C16   S    
C29   H6    S    
