data_mof_unit_1047.cif
_audit_creation_date              2012-12-11T21:14:46-0500
_audit_creation_method            fapswitch 2.2
_symmetry_space_group_name_H-M    P1
_symmetry_Int_Tables_number       1
_space_group_crystal_system       triclinic
_cell_length_a                    8.219119
_cell_length_b                    18.742249
_cell_length_c                    27.02501
_cell_angle_alpha                 99.294461
_cell_angle_beta                  92.729586
_cell_angle_gamma                 88.296918
_cell_volume                      4102.7200004

loop_
_atom_site_label
_atom_site_type_symbol
_atom_type_description
_atom_site_fract_x
_atom_site_fract_y
_atom_site_fract_z
_atom_type_partial_charge
Ba1   Ba    Ba6+2 0.160810 0.465630 0.521640 1.640091
Ba2   Ba    Ba6+2 0.649380 0.534380 0.478400 1.640133
C1    C     C_3   0.413637 0.289753 0.700984 -0.252548
C2    C     C_R   0.073742 0.095098 0.450858 0.032598
C3    C     C_R   0.221047 0.071686 0.428654 -0.082626
C4    C     C_3   0.946453 0.269900 0.627205 0.347081
C5    C     C_R   0.282624 0.001752 0.430193 -0.088912
C6    C     C_R   0.196657 0.953431 0.453244 0.031450
C7    C     C_R   0.048989 0.976328 0.475870 0.014808
C8    C     C_R   0.255454 0.882474 0.453305 -0.108305
C9    C     C_R   0.166778 0.832426 0.474466 -0.038148
C10   C     C_R   0.020291 0.855858 0.498523 -0.005359
C11   C     C_R   0.962418 0.928084 0.499231 -0.006391
C12   C     C_3   0.421048 0.311009 0.648974 0.330694
C13   C     C_R   0.218653 0.759311 0.471786 -0.008596
C14   C     C_R   0.122166 0.710648 0.490679 -0.298661
C15   C     C_R   0.983963 0.733592 0.517491 0.045807
C16   C     C_3   0.992734 0.195483 0.639771 -0.348941
C17   C     C_R   0.932285 0.807487 0.522225 -0.050591
C18   C     C_R   0.841538 0.071248 0.498111 -0.006246
C19   C     C_R   0.783118 0.143344 0.498580 -0.004223
C20   C     C_R   0.872618 0.191988 0.475590 -0.044184
C21   C     C_R   0.012615 0.165486 0.449648 -0.042559
C22   C     C_R   0.794051 0.834440 0.548936 -0.039447
C23   C     C_3   0.465026 0.314159 0.394113 0.317088
C24   C     C_R   0.732078 0.904653 0.547355 0.033823
C25   C     C_R   0.816374 0.951808 0.522520 0.006893
C26   C     C_R   0.755113 0.023034 0.521526 0.014059
C27   C     C_R   0.585134 0.928175 0.569723 -0.076557
C28   C     C_3   0.842153 0.621365 0.631636 0.299751
C29   C     C_R   0.522475 0.997818 0.567644 -0.082263
C30   C     C_R   0.607369 0.045904 0.544101 0.032226
C31   C     C_R   0.635527 0.166538 0.522096 -0.043850
C32   C     C_R   0.547444 0.116594 0.543499 -0.101004
C33   C     C_R   0.582258 0.239368 0.524150 0.000051
C34   C     C_3   0.463543 0.232862 0.376744 -0.392916
C35   C     C_R   0.677511 0.287876 0.504598 -0.304872
C36   C     C_R   0.820444 0.265691 0.480064 0.039801
C37   C     C_R   0.307053 0.458521 0.175900 0.594178
C38   C     C_R   0.188397 0.576483 0.174631 0.579143
C39   C     C_2   0.056566 0.556767 0.272851 -0.087547
C40   C     C_3   0.846897 0.638587 0.688522 -0.358772
C41   C     C_3   0.049236 0.581160 0.328723 -0.050214
C42   C     C_1   0.283080 0.499406 0.337526 0.004808
C43   C     C_2   0.321225 0.500650 0.290508 -0.095535
C44   C     C_2   0.196653 0.525770 0.254006 0.193047
C45   C     C_3   0.840120 0.733375 0.376700 0.383646
C46   C     C_R   0.307212 0.511341 0.098899 -0.080668
C47   C     C_R   0.351666 0.454720 0.125629 -0.034217
C48   C     C_R   0.440826 0.395498 0.101741 -0.060349
C49   C     C_R   0.221937 0.571864 0.123459 -0.024731
C50   C     C_2   0.158801 0.536803 0.358908 -0.286870
C51   C     C_2   0.649870 0.471905 0.637096 -0.289630
C52   C     C_3   0.965454 0.382960 0.369623 0.297934
C53   C     C_R   0.477632 0.442382 0.972469 0.020637
C54   C     C_R   0.344647 0.562175 0.970300 0.020870
C55   C     C_R   0.432138 0.500554 0.946158 0.048469
C56   C     C_3   0.809871 0.806546 0.360032 -0.365429
C57   C     C_R   0.561344 0.381456 0.946195 -0.101091
C58   C     C_R   0.598252 0.377969 0.896240 -0.057810
C59   C     C_R   0.555579 0.435196 0.870087 -0.024466
C60   C     C_R   0.474375 0.496927 0.895030 -0.081340
C61   C     C_R   0.434901 0.554819 0.868784 -0.033774
C62   C     C_R   0.481349 0.551075 0.818643 0.595895
C63   C     C_R   0.591474 0.431100 0.819207 0.574862
C64   C     C_3   0.972147 0.366934 0.312679 -0.363583
C65   C     C_2   0.738709 0.452498 0.724187 -0.086500
C66   C     C_3   0.751594 0.426964 0.668831 -0.048567
C67   C     C_3   0.367058 0.698385 0.350826 0.347078
C68   C     C_1   0.520239 0.508366 0.655917 0.034282
C69   C     C_2   0.478530 0.509849 0.703113 -0.106587
C70   C     C_2   0.597050 0.484064 0.741103 0.185874
C71   C     C_R   0.437717 0.446579 0.023728 0.020759
C72   C     C_R   0.348564 0.507631 0.047685 0.049231
C73   C     C_R   0.300597 0.565124 0.021104 0.020458
C74   C     C_R   0.484187 0.391722 0.052252 -0.099711
C75   C     C_R   0.172807 0.627310 0.096603 -0.060042
C76   C     C_3   0.331111 0.685877 0.591803 0.317109
C77   C     C_R   0.305053 0.619076 0.942543 -0.099118
C78   C     C_3   0.374949 0.724871 0.300799 -0.363689
C79   C     C_R   0.350051 0.615500 0.893185 -0.059529
C80   C     C_R   0.209646 0.623859 0.046595 -0.101903
C81   C     C_3   0.323730 0.767218 0.608827 -0.391698
C82   C     C_1   0.543879 0.236583 0.709146 0.342679
C83   C     C_R   0.988213 0.047664 0.475114 0.007485
H1    H     H_    0.340857 0.359495 0.647859 0.095874
H2    H     H_    0.206470 0.666652 0.581384 0.004257
H3    H     H_    0.408720 0.674160 0.558852 0.066188
H4    H     H_    0.427992 0.338822 0.729852 0.091570
H5    H     H_    0.237436 0.780790 0.639475 0.130461
H6    H     H_    0.282469 0.795352 0.577207 0.057043
H7    H     H_    0.446329 0.786499 0.622825 0.120663
H8    H     H_    0.547604 0.324496 0.642505 -0.072459
H9    H     H_    0.593685 0.330539 0.402145 0.016666
H10   H     H_    0.396117 0.326204 0.429011 0.055125
H11   H     H_    0.535526 0.218408 0.342674 0.132750
H12   H     H_    0.756840 0.682481 0.700855 0.135080
H13   H     H_    0.517925 0.204445 0.406811 0.053068
H14   H     H_    0.336133 0.215072 0.367952 0.119236
H15   H     H_    0.293305 0.266117 0.705371 0.121418
H16   H     H_    0.914731 0.154109 0.616801 0.074804
H17   H     H_    0.795665 0.735996 0.415122 0.082167
H18   H     H_    0.973994 0.723292 0.377836 -0.082947
H19   H     H_    0.678145 0.821278 0.360359 0.150236
H20   H     H_    0.877788 0.848731 0.385881 0.069045
H21   H     H_    0.852734 0.804726 0.321467 0.118835
H22   H     H_    0.237103 0.697115 0.359681 -0.058045
H23   H     H_    0.817577 0.589900 0.704562 0.070197
H24   H     H_    0.422746 0.643141 0.347260 0.073903
H25   H     H_    0.311180 0.686703 0.271146 0.129646
H26   H     H_    0.503383 0.728283 0.290735 0.151520
H27   H     H_    0.972901 0.270212 0.587262 0.061385
H28   H     H_    0.315048 0.779082 0.302982 0.114034
H29   H     H_    0.289464 0.107653 0.410363 0.063768
H30   H     H_    0.396889 0.985215 0.412873 0.071174
H31   H     H_    0.161132 0.654446 0.487175 0.068242
H32   H     H_    0.369373 0.866729 0.435860 0.108937
H33   H     H_    0.078092 0.199343 0.429048 0.096007
H34   H     H_    0.970055 0.656351 0.702793 0.134668
H35   H     H_    0.729882 0.800918 0.570111 0.099823
H36   H     H_    0.517616 0.892490 0.588485 0.064562
H37   H     H_    0.408307 0.014353 0.585004 0.073374
H38   H     H_    0.432859 0.132168 0.560589 0.110648
H39   H     H_    0.813470 0.278407 0.632233 -0.048168
H40   H     H_    0.637127 0.343783 0.507281 0.075224
H41   H     H_    0.442912 0.484767 0.278653 0.130895
H42   H     H_    0.479639 0.351714 0.121547 0.123141
H43   H     H_    0.832524 0.435743 0.749787 0.123244
H44   H     H_    0.661969 0.329738 0.878137 0.125869
H45   H     H_    0.084642 0.402375 0.385954 0.011166
H46   H     H_    0.599284 0.334437 0.962751 0.069918
H47   H     H_    0.555552 0.344827 0.037787 0.070353
H48   H     H_    0.958333 0.572893 0.248485 0.123248
H49   H     H_    0.103943 0.673973 0.114178 0.122464
H50   H     H_    0.240090 0.668068 0.957789 0.069408
H51   H     H_    0.121720 0.181761 0.631606 0.145593
H52   H     H_    0.316565 0.660801 0.873974 0.122465
H53   H     H_    0.357021 0.527853 0.714093 0.138394
H54   H     H_    0.164020 0.668542 0.029140 0.069592
H55   H     H_    0.153157 0.547706 0.399367 0.078817
H56   H     H_    0.872113 0.425962 0.379576 0.088884
H57   H     H_    0.663771 0.460673 0.596845 0.086512
H58   H     H_    0.974979 0.194415 0.680048 0.141006
H59   H     H_    0.717627 0.606615 0.617882 0.010895
H60   H     H_    0.927048 0.575121 0.620439 0.079577
H61   H     H_    0.071255 0.326898 0.301673 0.143939
H62   H     H_    0.994734 0.417196 0.297496 0.069473
H63   H     H_    0.854599 0.344731 0.296084 0.130502
N1    N     N_R   0.228895 0.519731 0.200585 -0.422075
N2    N     N_R   0.557380 0.489182 0.793865 -0.422499
N3    N     N_1   0.646830 0.194744 0.715659 -0.287090
O1    O     O_2   0.106080 0.324280 0.466820 -0.463423
O2    O     O_2   0.719040 0.538769 0.325260 -0.496493
O3    O     O_3   0.756827 0.679593 0.343322 -0.584956
O4    O     O_3   0.859130 0.413620 0.470620 -0.488016
O5    O     O_3   0.459240 0.537930 0.559910 -0.490695
O6    O     O_2   0.583120 0.462390 0.379940 -0.460072
O7    O     O_3   0.392247 0.349396 0.356176 -0.626839
O8    O     O_2   0.556792 0.757433 0.480656 -0.493796
O9    O     O_3   0.453314 0.745520 0.387728 -0.600048
O10   O     O_2   0.336686 0.406857 0.197486 -0.597170
O11   O     O_2   0.651073 0.374974 0.797286 -0.614695
O12   O     O_3   0.396236 0.653062 0.631581 -0.621398
O13   O     O_2   0.125734 0.631989 0.196225 -0.617774
O14   O     O_2   0.455558 0.603347 0.797320 -0.598107
O15   O     O_3   0.376230 0.370290 0.556910 -0.485831
O16   O     O_2   0.241888 0.243558 0.522088 -0.486500
O17   O     O_3   0.926696 0.319320 0.387143 -0.640825
O18   O     O_3   0.367101 0.253744 0.612553 -0.615435
O19   O     O_2   0.227190 0.537650 0.620070 -0.465276
O20   O     O_3   0.971110 0.406970 0.583250 -0.480702
O21   O     O_2   0.085972 0.463080 0.674877 -0.500210
O22   O     O_3   0.036635 0.323130 0.658946 -0.591570
O23   O     O_2   0.704230 0.675760 0.533200 -0.467535
O24   O     O_3   0.951180 0.586390 0.529420 -0.490792
O25   O     O_3   0.434080 0.629720 0.443130 -0.478262
O26   O     O_3   0.886924 0.682882 0.612841 -0.639151
O27   O     O_3   0.351080 0.462080 0.440130 -0.478973
O28   O     O_3   0.839200 0.593040 0.416790 -0.480344
P1    P     P_3+3 0.929380 0.335110 0.452880 0.976572
P2    P     P_3+3 0.398530 0.559060 0.613740 0.996164
P3    P     P_3+3 0.962676 0.407725 0.647528 0.943940
P4    P     P_3+3 0.880940 0.664900 0.547160 0.974797
P5    P     P_3+3 0.839551 0.595458 0.352606 0.955655
P6    P     P_3+3 0.391812 0.276355 0.553094 0.941104
P7    P     P_3+3 0.398058 0.442818 0.376720 0.962548
P8    P     P_3+3 0.414880 0.723402 0.446370 0.936208

loop_
_geom_bond_atom_site_label_1
_geom_bond_atom_site_label_2
_ccdc_geom_bond_type
C76   H2    S    
C32   H38   S    
C53   C57   A    
C3    H29   S    
O12   P2    S    
O15   P6    S    
C71   C72   A    
C41   P5    S    
O20   P3    S    
C4    H39   S    
C21   H33   S    
C39   H48   S    
C67   H22   S    
C55   C60   A    
C43   C44   S    
C42   C43   D    
C79   H52   S    
C81   H7    S    
C66   P3    S    
C24   C25   A    
Ba2   O4    S    
C54   C77   A    
C61   C79   A    
Ba1   O15   S    
C16   H58   S    
C33   C35   A    
C35   C36   A    
C22   C24   A    
Ba1   Ba2   S    
Ba1   P1    S    
C40   H34   S    
C19   C31   A    
O8    P8    D    
C13   C14   A    
C20   C36   A    
O7    P7    S    
Ba1   O19   S    
C67   O9    S    
C28   H59   S    
C54   C55   A    
C10   C17   A    
Ba1   O1    S    
C51   H57   S    
C5    H30   S    
C63   N2    Am   
Ba1   O4    S    
C51   C66   S    
C7    C11   A    
Ba2   O25   S    
C9    C13   A    
C76   C81   S    
C46   C49   A    
C60   C61   A    
C14   C15   A    
O3    P5    S    
C63   O11   D    
C39   C44   D    
C16   H51   S    
C68   C69   D    
C37   O10   D    
C12   H8    S    
C64   H63   S    
C7    C83   A    
C42   C50   D    
C57   C58   A    
C45   H17   S    
C19   C20   A    
C39   C41   S    
C67   H24   S    
C12   O18   S    
C4    C16   S    
C51   C68   D    
C14   H31   S    
C69   H53   S    
C35   H40   S    
O21   P3    D    
C52   H45   S    
C22   H35   S    
C45   H18   S    
C72   C73   A    
C65   C66   S    
C46   C72   A    
C26   C30   A    
C36   P1    S    
O6    P7    D    
C12   H1    S    
C1    H15   S    
C40   H12   S    
C3    C5    A    
C2    C21   A    
Ba1   P2    S    
C6    C7    A    
C2    C83   A    
C18   C26   A    
O26   P4    S    
C13   P8    S    
Ba1   O20   S    
C62   N2    Am   
C58   C59   A    
C56   H21   S    
C16   H16   S    
C30   C32   A    
O1    P1    D    
Ba1   O5    S    
C49   C75   A    
C62   O14   D    
C48   C74   A    
Ba2   O24   S    
Ba1   O27   S    
C15   P4    S    
C68   P2    S    
C29   C30   A    
O2    P5    D    
C43   H41   S    
C33   P6    S    
C53   C71   A    
C57   H46   S    
C18   C83   A    
C44   N1    S    
C80   H54   S    
C31   C32   A    
C78   H28   S    
C64   H62   S    
C1    C12   S    
C58   H44   S    
C46   C47   A    
C37   C47   A    
O22   P3    S    
C23   H10   S    
C70   N2    S    
C53   C55   A    
O19   P2    D    
C71   C74   A    
C56   H19   S    
C75   H49   S    
C15   C17   A    
C23   O7    S    
C65   C70   D    
C81   H6    S    
O4    P1    S    
C28   H60   S    
O24   P4    S    
O28   P5    S    
C76   H3    S    
C81   H5    S    
Ba1   O24   S    
Ba2   O5    S    
C4    H27   S    
C28   C40   S    
C29   H37   S    
C52   O17   S    
C2    C3    A    
O23   P4    D    
C9    C10   A    
C73   C80   A    
C38   O13   D    
C52   C64   S    
C4    O22   S    
C27   H36   S    
C50   H55   S    
C38   C49   A    
C77   H50   S    
C37   N1    Am   
C77   C79   A    
C1    H4    S    
C56   H20   S    
C45   O3    S    
C17   C22   A    
O18   P6    S    
C69   C70   S    
C27   C29   A    
C8    H32   S    
O17   P1    S    
C65   H43   S    
Ba2   O23   S    
C45   C56   S    
C74   H47   S    
C75   C80   A    
Ba2   O6    S    
C78   H26   S    
C31   C33   A    
C28   O26   S    
C38   N1    Am   
C34   H14   S    
Ba2   P4    S    
C59   C60   A    
C41   C50   S    
C64   H61   S    
C5    C6    A    
C8    C9    A    
C23   C34   S    
C61   C62   A    
O27   P7    S    
C82   N3    T    
C59   C63   A    
C76   O12   S    
C52   H56   S    
C18   C19   A    
C24   C27   A    
C6    C8    A    
C47   C48   A    
Ba2   O28   S    
C23   H9    S    
C78   H25   S    
C1    C82   S    
C54   C73   A    
C20   C21   A    
C11   C25   A    
C67   C78   S    
C34   H13   S    
C48   H42   S    
Ba2   O27   S    
O9    P8    S    
C10   C11   A    
C40   H23   S    
O25   P8    S    
O5    P2    S    
C42   P7    S    
C34   H11   S    
C25   C26   A    
O16   P6    D    
