data_mof_unit_3841.cif
_audit_creation_date              2012-10-26T19:51:37-0400
_audit_creation_method            fapswitch 2.2
_symmetry_space_group_name_H-M    P1
_symmetry_Int_Tables_number       1
_space_group_crystal_system       triclinic
_cell_length_a                    19.397169
_cell_length_b                    18.174768
_cell_length_c                    9.082389
_cell_angle_alpha                 90.264172
_cell_angle_beta                  90.235609
_cell_angle_gamma                 90.021481
_cell_volume                      3201.83540426

loop_
_atom_site_label
_atom_site_type_symbol
_atom_type_description
_atom_site_fract_x
_atom_site_fract_y
_atom_site_fract_z
_atom_type_partial_charge
C1    C     C_R   0.367663 0.499987 0.499837 0.541889
C2    C     C_R   0.455074 0.201505 0.408068 -0.145790
C3    C     C_R   0.500021 0.838438 0.499979 0.018073
C4    C     C_R   0.500039 0.161562 0.499932 0.018080
C5    C     C_R   0.561693 0.961395 0.518229 -0.113436
C6    C     C_R   0.438381 0.038606 0.481666 -0.113435
C7    C     C_R   0.438376 0.961270 0.481683 -0.113269
C8    C     C_R   0.561698 0.038733 0.518213 -0.113287
C9    C     C_R   0.500041 0.078712 0.499931 0.033795
C10   C     C_R   0.500031 0.921289 0.499964 0.033796
C11   C     C_R   0.499958 0.499898 0.220442 0.555678
C12   C     C_R   0.632263 0.500011 0.500201 0.541192
C13   C     C_R   0.500034 0.500102 0.779558 0.555724
C14   C     C_1   0.499978 0.499858 0.065486 -0.064938
C15   C     C_1   0.500007 0.500142 0.934514 -0.064918
C16   C     C_R   0.743494 0.549872 0.412196 -0.135184
C17   C     C_R   0.255982 0.555134 0.425036 -0.134125
C18   C     C_R   0.256280 0.444752 0.574543 -0.135940
C19   C     C_R   0.743636 0.450197 0.589251 -0.134570
C20   C     C_R   0.815284 0.548932 0.410511 -0.135614
C21   C     C_R   0.184186 0.554509 0.423429 -0.137907
C22   C     C_R   0.184504 0.445368 0.576366 -0.139642
C23   C     C_R   0.455887 0.720755 0.409835 0.048897
C24   C     C_R   0.815436 0.451114 0.591488 -0.134092
C25   C     C_R   0.851409 0.500010 0.501114 0.028657
C26   C     C_R   0.148212 0.499951 0.500005 0.033529
C27   C     C_R   0.707452 0.500030 0.500553 0.021168
C28   C     C_R   0.292333 0.499955 0.499779 0.020628
C29   C     C_R   0.963451 0.547285 0.599010 0.002742
C30   C     C_R   0.035962 0.451119 0.405051 0.002844
C31   C     C_R   0.036537 0.548736 0.596008 0.002660
C32   C     C_R   0.962861 0.452460 0.402858 0.002843
C33   C     C_R   0.072151 0.499964 0.500302 0.010152
C34   C     C_R   0.544115 0.279249 0.590171 0.049620
C35   C     C_R   0.927357 0.499887 0.501059 0.008674
C36   C     C_3   0.923498 0.595011 0.708475 -0.247968
C37   C     C_3   0.906752 0.671148 0.644786 -0.294867
C38   C     C_3   0.873877 0.720847 0.760678 -0.459299
C39   C     C_3   0.075875 0.398188 0.305279 -0.249707
C40   C     C_3   0.096936 0.434853 0.160602 -0.293910
C41   C     C_3   0.133306 0.380262 0.059067 -0.457844
C42   C     C_3   0.077046 0.601726 0.695342 -0.249659
C43   C     C_3   0.099256 0.565011 0.839552 -0.293804
C44   C     C_3   0.135859 0.619716 0.941161 -0.457864
C45   C     C_R   0.544103 0.721197 0.590193 0.048305
C46   C     C_3   0.922251 0.404472 0.294177 -0.247908
C47   C     C_3   0.906081 0.328386 0.358562 -0.295023
C48   C     C_3   0.872512 0.278407 0.243430 -0.458193
C49   C     C_R   0.455926 0.278799 0.409754 0.047441
C50   C     C_R   0.455035 0.798038 0.408158 -0.145257
C51   C     C_R   0.544998 0.201966 0.591802 -0.145028
C52   C     C_R   0.544987 0.798490 0.591832 -0.145473
Cu1   Cu    Cu3+1 0.500000 0.573360 0.500000 0.933737
Cu2   Cu    Cu3+1 0.500000 0.426640 0.500000 0.933594
H1    H     H_    0.716076 0.588325 0.342497 0.117206
H2    H     H_    0.578751 0.309611 0.661655 0.118032
H3    H     H_    0.578720 0.691186 0.661700 0.122022
H4    H     H_    0.421311 0.308806 0.338235 0.121678
H5    H     H_    0.420052 0.825806 0.333757 0.087613
H6    H     H_    0.579981 0.174201 0.666205 0.087667
H7    H     H_    0.579973 0.826623 0.666233 0.088228
H8    H     H_    0.420111 0.173367 0.333625 0.088112
H9    H     H_    0.610433 0.933006 0.530031 0.097781
H10   H     H_    0.389641 0.066994 0.469869 0.097655
H11   H     H_    0.389632 0.932795 0.469900 0.097828
H12   H     H_    0.283119 0.597890 0.366067 0.110745
H13   H     H_    0.610441 0.067210 0.530005 0.097910
H14   H     H_    0.825389 0.695848 0.801743 0.153609
H15   H     H_    0.909963 0.729559 0.854450 0.144752
H16   H     H_    0.861588 0.775087 0.711315 0.137864
H17   H     H_    0.954057 0.698150 0.602893 0.149908
H18   H     H_    0.870427 0.665566 0.550991 0.166772
H19   H     H_    0.874826 0.567901 0.742080 0.148498
H20   H     H_    0.952274 0.600816 0.813575 0.133844
H21   H     H_    0.180183 0.358040 0.113649 0.155203
H22   H     H_    0.098149 0.334136 0.029928 0.144130
H23   H     H_    0.283645 0.402007 0.633464 0.120154
H24   H     H_    0.149048 0.408200 0.956230 0.135285
H25   H     H_    0.050703 0.456792 0.103349 0.148484
H26   H     H_    0.132365 0.481357 0.183523 0.172290
H27   H     H_    0.122328 0.376714 0.361790 0.145962
H28   H     H_    0.045954 0.347783 0.280618 0.136192
H29   H     H_    0.182143 0.642605 0.886146 0.157517
H30   H     H_    0.100498 0.665367 0.971346 0.143814
H31   H     H_    0.152593 0.591633 0.043418 0.134921
H32   H     H_    0.053536 0.542542 0.897095 0.148886
H33   H     H_    0.134905 0.518904 0.815928 0.172843
H34   H     H_    0.716323 0.411734 0.658699 0.107930
H35   H     H_    0.123029 0.623404 0.638144 0.146666
H36   H     H_    0.047179 0.651997 0.720663 0.136347
H37   H     H_    0.823700 0.303203 0.202859 0.156188
H38   H     H_    0.907973 0.269650 0.149229 0.143966
H39   H     H_    0.860663 0.224211 0.293297 0.138747
H40   H     H_    0.953721 0.301585 0.399980 0.149675
H41   H     H_    0.870393 0.334012 0.452826 0.166760
H42   H     H_    0.873303 0.431378 0.261026 0.149387
H43   H     H_    0.950322 0.398578 0.188739 0.133644
H44   H     H_    0.842803 0.586389 0.339298 0.098152
H45   H     H_    0.156488 0.596759 0.363764 0.095844
H46   H     H_    0.157054 0.403121 0.636146 0.096530
H47   H     H_    0.843076 0.413625 0.662855 0.097291
H48   H     H_    0.421232 0.690397 0.338385 0.117583
N1    N     N_R   0.500000 0.683620 0.500000 -0.219187
N2    N     N_R   0.500000 0.316380 0.500000 -0.219215
O1    O     O_R   0.400190 0.561980 0.499980 -0.505181
O2    O     O_R   0.599810 0.438020 0.500020 -0.504327
O3    O     O_R   0.599810 0.561980 0.500020 -0.506503
O4    O     O_R   0.400190 0.438020 0.499980 -0.507513
O5    O     O_R   0.500000 0.561940 0.288400 -0.499789
O6    O     O_R   0.500000 0.438060 0.711600 -0.499907
O7    O     O_R   0.500000 0.561940 0.711600 -0.496173
O8    O     O_R   0.500000 0.438060 0.288400 -0.496088

loop_
_geom_bond_atom_site_label_1
_geom_bond_atom_site_label_2
_ccdc_geom_bond_type
C7    C10   A    
C30   C32   A    
C21   C26   A    
C38   H16   S    
C34   H2    S    
C31   C42   S    
C11   O5    A    
C44   H29   S    
C49   N2    A    
Cu1   Cu2   S    
C29   C36   S    
C45   H3    S    
C34   C51   A    
C37   C38   S    
C50   H5    S    
Cu2   N2    S    
C36   C37   S    
C52   H7    S    
C21   H45   S    
C11   C14   S    
C23   H48   S    
C7    H11   S    
C20   C25   A    
C5    H9    S    
C24   H47   S    
C6    H10   S    
C45   N1    A    
C23   N1    A    
C8    C9    A    
C48   H37   S    
C1    C28   S    
C40   H26   S    
C20   H44   S    
C19   C27   A    
Cu1   O7    S    
C16   C27   A    
C38   H15   S    
C17   C28   A    
C6    C9    A    
C3    C50   A    
C22   H46   S    
C48   H39   S    
Cu2   O2    S    
C4    C51   A    
C32   C35   A    
C18   C28   A    
C24   C25   A    
C39   H27   S    
C19   H34   S    
C39   C40   S    
C23   C50   A    
C12   C27   S    
C45   C52   A    
C17   C21   A    
C49   H4    S    
C42   H36   S    
Cu2   O6    S    
C2    C4    A    
C43   C44   S    
C13   O6    A    
C2    C49   A    
C41   H21   S    
Cu1   O3    S    
C26   C33   S    
C47   C48   S    
C16   C20   A    
C31   C33   A    
C17   H12   S    
C40   H25   S    
Cu2   O8    S    
C36   H20   S    
C25   C35   S    
C40   C41   S    
C46   H43   S    
C38   H14   S    
C37   H17   S    
C22   C26   A    
C5    C8    A    
C42   C43   S    
C44   H31   S    
C41   H24   S    
Cu1   O5    S    
C46   C47   S    
C30   C33   A    
C11   O8    A    
C18   C22   A    
C43   H32   S    
C32   C46   S    
C39   H28   S    
C44   H30   S    
C12   O3    A    
C3    C52   A    
C6    C7    A    
C29   C35   A    
Cu2   O4    S    
C42   H35   S    
C43   H33   S    
C13   C15   S    
C19   C24   A    
C16   H1    S    
C5    C10   A    
C13   O7    A    
C3    C10   S    
C41   H22   S    
C12   O2    A    
Cu1   N1    S    
C18   H23   S    
C47   H40   S    
C30   C39   S    
C34   N2    A    
C36   H19   S    
C1    O4    A    
Cu1   O1    S    
C46   H42   S    
C8    H13   S    
C29   C31   A    
C48   H38   S    
C37   H18   S    
C47   H41   S    
C14   C15   T    
C51   H6    S    
C4    C9    S    
C2    H8    S    
C1    O1    A    
