data_mof_unit_382.cif
_audit_creation_date              2012-12-11T17:20:08-0500
_audit_creation_method            fapswitch 2.2
_symmetry_space_group_name_H-M    P1
_symmetry_Int_Tables_number       1
_space_group_crystal_system       triclinic
_cell_length_a                    8.408714
_cell_length_b                    16.723636
_cell_length_c                    22.953714
_cell_angle_alpha                 97.121545
_cell_angle_beta                  90.407517
_cell_angle_gamma                 94.011033
_cell_volume                      3194.69617591

loop_
_atom_site_label
_atom_site_type_symbol
_atom_type_description
_atom_site_fract_x
_atom_site_fract_y
_atom_site_fract_z
_atom_type_partial_charge
Ba1   Ba    Ba6+2 0.848660 0.538140 0.472240 1.675405
Ba2   Ba    Ba6+2 0.341160 0.461930 0.527770 1.667252
C1    C     C_3   0.600399 0.829957 0.326970 -0.325643
C2    C     C_3   0.588431 0.743629 0.342037 0.301039
C3    C     C_3   0.556227 0.300623 0.339519 0.671898
C4    C     C_3   0.644925 0.269709 0.284091 -0.131458
C5    C     C_3   0.095243 0.297265 0.693061 0.313608
C6    C     C_3   0.173438 0.293548 0.753453 -0.163437
C7    C     C_3   0.530887 0.256014 0.664402 0.335916
C8    C     C_3   0.511950 0.177559 0.692844 -0.224773
C9    C     C_R   0.362146 0.498265 0.327968 -0.232228
C10   C     C_R   0.056686 0.577275 0.947670 -0.050263
C11   C     C_R   0.999906 0.577679 0.889387 0.585763
C12   C     C_3   0.086080 0.778028 0.321360 0.676534
C13   C     C_R   0.959337 0.433398 0.877258 0.570373
C14   C     C_R   0.015048 0.431034 0.935449 -0.014487
C15   C     C_R   0.064013 0.503665 0.970923 -0.053432
C16   C     C_R   0.112441 0.648907 0.982177 -0.067812
C17   C     C_R   0.172330 0.649043 0.039540 0.052201
C18   C     C_R   0.167801 0.575526 0.065596 -0.027216
C19   C     C_R   0.119747 0.502572 0.029778 -0.065792
C20   C     C_R   0.025579 0.357486 0.958619 -0.079617
C21   C     C_R   0.084493 0.355981 0.015579 -0.078091
C22   C     C_R   0.131224 0.428050 0.051956 -0.023345
C23   C     C_3   0.997131 0.813200 0.272375 0.279805
C24   C     C_R   0.190454 0.426947 0.109746 0.572410
C25   C     C_R   0.210571 0.571673 0.125569 0.568996
C26   C     C_2   0.769071 0.486234 0.771723 -0.093050
C27   C     C_3   0.724169 0.490428 0.708151 -0.035687
C28   C     C_1   0.005375 0.523865 0.689587 0.036507
C29   C     C_2   0.044558 0.531107 0.747413 -0.029435
C30   C     C_2   0.920474 0.506739 0.791351 0.228224
C31   C     C_R   0.422723 0.528265 0.228583 -0.001829
C32   C     C_R   0.465308 0.533448 0.288585 -0.018236
C33   C     C_R   0.202234 0.473441 0.311771 0.081879
C34   C     C_3   0.202809 0.706902 0.594852 0.300468
C35   C     C_R   0.156691 0.469224 0.250778 -0.013068
C36   C     C_R   0.267501 0.496682 0.208947 0.261786
C37   C     C_2   0.869590 0.484894 0.669847 -0.283290
C38   C     C_R   0.407446 0.735171 0.468179 0.111333
C39   C     C_R   0.539187 0.761345 0.504505 0.062186
C40   C     C_R   0.585096 0.845884 0.516412 -0.086194
C41   C     C_R   0.492254 0.902291 0.491340 0.256784
C42   C     C_R   0.346864 0.873215 0.462764 -0.219134
C43   C     C_R   0.303314 0.790123 0.451725 -0.030195
C44   C     C_R   0.608647 0.151632 0.497184 -0.069443
C45   C     C_3   0.264940 0.795214 0.612487 -0.224688
C46   C     C_R   0.654373 0.234496 0.504259 0.040051
C47   C     C_R   0.707731 0.096737 0.518527 0.249175
C48   C     C_R   0.793226 0.263578 0.535499 -0.229038
C49   C     C_R   0.898894 0.210180 0.553290 0.075456
C50   C     C_R   0.854624 0.126782 0.545962 -0.126592
C51   C     C_3   0.987088 0.283409 0.397833 0.801104
C52   C     C_3   0.012553 0.191610 0.384239 0.685339
C53   C     C_3   0.675089 0.671194 0.658415 0.346914
C54   C     C_3   0.561963 0.671413 0.710343 -0.341110
H1    H     H_    0.646416 0.745393 0.385833 0.064672
H2    H     H_    0.371927 0.797661 0.641360 0.142888
H3    H     H_    0.299121 0.822691 0.572802 0.052109
H4    H     H_    0.857937 0.291494 0.397399 -0.170233
H5    H     H_    0.686277 0.608409 0.637301 0.011974
H6    H     H_    0.723537 0.857200 0.334404 0.167927
H7    H     H_    0.562832 0.732543 0.735720 0.109021
H8    H     H_    0.594855 0.628286 0.740538 0.059433
H9    H     H_    0.438864 0.656244 0.694115 0.149134
H10   H     H_    0.460573 0.722656 0.343330 0.024270
H11   H     H_    0.524433 0.867735 0.356610 0.104790
H12   H     H_    0.613134 0.360663 0.353504 -0.033063
H13   H     H_    0.609768 0.204629 0.270953 0.115535
H14   H     H_    0.774902 0.277616 0.293324 0.047412
H15   H     H_    0.562359 0.831460 0.280709 0.150829
H16   H     H_    0.137202 0.356790 0.680104 0.082986
H17   H     H_    0.304132 0.299026 0.749441 0.140490
H18   H     H_    0.144771 0.346944 0.784141 0.118638
H19   H     H_    0.623112 0.249399 0.630526 -0.021579
H20   H     H_    0.417994 0.266245 0.642683 0.108974
H21   H     H_    0.627953 0.164370 0.711409 0.112595
H22   H     H_    0.091279 0.711797 0.308657 -0.017132
H23   H     H_    0.428164 0.184206 0.729750 0.132474
H24   H     H_    0.091691 0.297883 0.031329 0.119925
H25   H     H_    0.990245 0.300516 0.932409 0.115861
H26   H     H_    0.113277 0.705502 0.963671 0.120886
H27   H     H_    0.677015 0.471164 0.802294 0.097045
H28   H     H_    0.861106 0.450567 0.626410 0.064245
H29   H     H_    0.502768 0.129710 0.471303 0.126863
H30   H     H_    0.265441 0.915832 0.450426 0.110500
H31   H     H_    0.936202 0.085141 0.559672 0.068843
H32   H     H_    0.824280 0.327859 0.542238 0.033944
H33   H     H_    0.874707 0.784666 0.268657 0.116304
H34   H     H_    0.298949 0.673654 0.572466 0.045276
H35   H     H_    0.099899 0.704229 0.564144 0.081967
N1    N     N_R   0.960389 0.505920 0.853617 -0.423355
N2    N     N_R   0.219237 0.498094 0.147298 -0.423796
N3    N     N_2   0.527716 0.988524 0.499612 -0.227299
N4    N     N_2   0.671804 0.011282 0.508510 -0.237276
O1    O     O_2   0.899090 0.455560 0.360740 -0.494676
O2    O     O_3   0.614820 0.720344 0.620020 -0.665703
O3    O     O_3   0.001281 0.791989 0.374022 -0.599994
O4    O     O_2   0.290610 0.544470 0.639300 -0.468165
O5    O     O_3   0.050220 0.543670 0.568220 -0.484846
O6    O     O_3   0.537630 0.397360 0.604330 -0.482792
O7    O     O_3   0.156976 0.673168 0.645457 -0.654366
O8    O     O_3   0.634180 0.402670 0.470930 -0.517421
O9    O     O_3   0.127750 0.355750 0.575620 -0.466119
O10   O     O_2   0.230583 0.211000 0.542067 -0.437342
O11   O     O_3   0.141688 0.233103 0.652173 -0.637707
O12   O     O_3   0.139470 0.456390 0.431790 -0.466030
O13   O     O_3   0.555510 0.597400 0.529070 -0.433885
O14   O     O_2   0.384010 0.302440 0.472310 -0.387639
O15   O     O_3   0.573880 0.249699 0.383313 -0.658766
O16   O     O_2   0.397075 0.439312 0.704060 -0.515684
O17   O     O_3   0.576928 0.320739 0.707790 -0.621763
O18   O     O_2   0.986490 0.642010 0.870357 -0.599777
O19   O     O_2   0.909455 0.370771 0.847796 -0.621673
O20   O     O_2   0.217856 0.362605 0.126420 -0.600332
O21   O     O_2   0.241019 0.633753 0.158651 -0.623311
O22   O     O_3   0.652060 0.602710 0.395680 -0.474339
O23   O     O_2   0.804474 0.558118 0.297770 -0.485676
O24   O     O_3   0.058032 0.325206 0.354066 -0.681649
O25   O     O_3   0.665799 0.692747 0.299699 -0.613683
O26   O     O_2   0.805680 0.697590 0.527730 -0.473026
O27   O     O_3   0.061950 0.644310 0.424380 -0.452180
O28   O     O_2   0.998998 0.784470 0.484275 -0.487791
P1    P     P_3+3 0.070660 0.431690 0.369620 1.002613
P2    P     P_3+3 0.630590 0.685720 0.544880 1.016945
P3    P     P_3+3 0.095529 0.751303 0.430995 0.992602
P4    P     P_3+3 0.119040 0.568370 0.630390 0.967796
P5    P     P_3+3 0.099943 0.251677 0.580018 0.997311
P6    P     P_3+3 0.648081 0.594457 0.319121 0.941664
P7    P     P_3+3 0.565073 0.299354 0.456363 0.967382
P8    P     P_3+3 0.559754 0.413564 0.680579 0.931271
C55   C     C_3   0.142459 0.847024 0.644273 -0.397731
H36   H     H_    0.033936 0.845930 0.616472 0.123835
H37   H     H_    0.111649 0.825453 0.686873 0.150299
H38   H     H_    0.193333 0.910504 0.653261 0.119190
O29   O     O_3   0.055040 0.311090 0.453136 -0.660582
H39   H     H_    0.986730 0.352545 0.471799 0.274372
C56   C     C_3   0.965225 0.157282 0.320227 -0.458700
H40   H     H_    0.003598 0.094858 0.310319 0.137438
H41   H     H_    0.021753 0.194384 0.288080 0.122878
H42   H     H_    0.833997 0.153083 0.314567 0.123119
O30   O     O_3   0.914391 0.150415 0.421409 -0.753509
H43   H     H_    0.944169 0.093551 0.417484 0.327435
O31   O     O_3   0.172854 0.178797 0.397208 -0.686345
H44   H     H_    0.230946 0.164094 0.360395 0.293811
C57   C     C_3   0.834791 0.710711 0.681039 -0.339185
H45   H     H_    0.821585 0.771004 0.706247 0.105427
H46   H     H_    0.894032 0.672673 0.709605 0.082225
H47   H     H_    0.905956 0.720818 0.642365 0.128200
O32   O     O_3   0.394888 0.302318 0.324039 -0.768137
H48   H     H_    0.331987 0.293849 0.359083 0.334731
C58   C     C_3   0.610873 0.316609 0.232676 -0.397268
H49   H     H_    0.485353 0.303454 0.217049 0.196015
H50   H     H_    0.632385 0.382613 0.246050 0.105493
H51   H     H_    0.690426 0.298412 0.195704 0.116053
C59   C     C_3   0.069803 0.792639 0.212209 -0.445178
H52   H     H_    0.046473 0.727056 0.198172 0.146457
H53   H     H_    0.011838 0.825674 0.179706 0.131852
H54   H     H_    0.200158 0.809203 0.213269 0.163709
C60   C     C_3   0.914747 0.293931 0.697917 -0.328418
H55   H     H_    0.863366 0.315775 0.658902 0.029369
H56   H     H_    0.867442 0.230980 0.700258 0.112861
H57   H     H_    0.878652 0.333288 0.737176 0.160588
C61   C     C_3   0.124551 0.216402 0.780428 -0.388812
H58   H     H_    0.143184 0.161934 0.749025 0.145903
H59   H     H_    0.197923 0.214435 0.820565 0.118701
H60   H     H_    0.997428 0.215398 0.793186 0.159093
C62   C     C_3   0.450954 0.105393 0.649332 -0.471828
H61   H     H_    0.541220 0.091881 0.615482 0.139987
H62   H     H_    0.429222 0.051476 0.672720 0.134104
H63   H     H_    0.337796 0.117290 0.627957 0.181401
C63   C     C_3   0.248310 0.728001 0.069461 -0.335534
H64   H     H_    0.261152 0.774937 0.039213 0.087427
H65   H     H_    0.172998 0.751502 0.105792 0.145294
H66   H     H_    0.369835 0.719553 0.085820 0.146526
C64   C     C_3   0.546651 0.553387 0.185655 -0.303506
H67   H     H_    0.658742 0.524354 0.192574 0.091165
H68   H     H_    0.510955 0.534204 0.139212 0.103580
H69   H     H_    0.570639 0.620007 0.192094 0.149541
C65   C     C_3   0.196125 0.578163 0.770966 -0.306616
H70   H     H_    0.180480 0.643916 0.774256 0.133498
H71   H     H_    0.230501 0.562107 0.814447 0.102815
H72   H     H_    0.298438 0.564596 0.743213 0.141910
C66   C     C_3   0.995132 0.432862 0.227919 -0.329431
H73   H     H_    0.935672 0.476367 0.203837 0.111868
H74   H     H_    0.007803 0.376553 0.198131 0.141864
H75   H     H_    0.914376 0.414693 0.261835 0.132918
C67   C     C_3   0.429920 0.478162 0.385145 -0.219812
H76   H     H_    0.385444 0.418739 0.395520 0.101063
H77   H     H_    0.559023 0.474233 0.384076 0.130037
H78   H     H_    0.402055 0.521473 0.422454 0.187548
O33   O     O_3   0.241806 0.814144 0.327452 -0.813386
H79   H     H_    0.234860 0.870560 0.346014 0.300144
C68   C     C_3   0.720726 0.876732 0.559199 -0.287575
H80   H     H_    0.766879 0.831293 0.584164 0.124858
H81   H     H_    0.823845 0.900965 0.535288 0.150960
H82   H     H_    0.679766 0.924292 0.592727 0.101639
O34   O     O_3   0.373078 0.654302 0.453523 -0.727598
H83   H     H_    0.340709 0.646554 0.411498 0.258900
O35   O     O_3   0.986717 0.897132 0.285926 -0.727187
H84   H     H_    0.090861 0.924654 0.277380 0.313083

loop_
_geom_bond_atom_site_label_1
_geom_bond_atom_site_label_2
_ccdc_geom_bond_type
C4    H13   S    
C52   O31   S    
C53   C54   S    
Ba2   O14   S    
O5    P4    S    
C39   C40   A    
C68   H81   S    
C17   C18   A    
C9    C32   A    
C5    C6    S    
C30   N1    S    
C51   C52   S    
C42   C43   A    
C10   C11   A    
C44   C47   A    
C26   C27   S    
C9    C33   A    
C67   H78   S    
C3    C4    S    
C49   P5    S    
C67   H77   S    
C61   H58   S    
C33   C35   A    
C22   C24   A    
C37   H28   S    
Ba1   Ba2   S    
Ba1   O1    S    
C28   C29   D    
C62   H62   S    
C68   H82   S    
C14   C15   A    
C3    O15   S    
C54   H9    S    
O11   P5    S    
Ba2   O12   S    
C41   N3    S    
C66   H73   S    
C34   C45   S    
C34   O7    S    
C16   C17   A    
C40   C68   S    
C31   C64   S    
Ba1   O27   S    
C13   N1    Am   
C24   O20   D    
C62   H61   S    
C59   H53   S    
C8    H21   S    
C62   H63   S    
C32   P6    S    
C63   H65   S    
O35   H84   S    
C2    H1    S    
C21   C22   A    
C54   H8    S    
C64   H67   S    
O34   H83   S    
C7    H20   S    
O13   P2    S    
O22   P6    S    
C7    C8    S    
Ba1   O8    S    
C63   H66   S    
C48   H32   S    
C44   H29   S    
C12   O33   S    
Ba2   P4    S    
C24   N2    Am   
C64   H68   S    
C68   H80   S    
Ba2   O5    S    
C12   C23   S    
C23   C59   S    
C46   P7    S    
C51   O29   S    
O12   P1    S    
C3    H12   S    
C42   H30   S    
C61   H60   S    
Ba1   O5    S    
C51   H4    S    
C65   H71   S    
C12   O3    S    
C57   H46   S    
C50   H31   S    
C38   C43   A    
C44   C46   A    
C54   H7    S    
O1    P1    D    
O25   P6    S    
C20   H25   S    
C39   P2    S    
C26   C30   D    
C31   C32   A    
C17   C63   S    
O2    P2    S    
O7    P4    S    
C6    C61   S    
C5    H16   S    
C55   H36   S    
O28   P3    D    
O4    P4    D    
C5    C60   S    
Ba2   O6    S    
O24   P1    S    
C35   C66   S    
C15   C19   A    
C3    O32   S    
C49   C50   A    
C67   H76   S    
C59   H52   S    
O27   P3    S    
C25   O21   D    
C1    H15   S    
C41   C42   A    
C60   H57   S    
O26   P2    D    
C35   C36   A    
C57   H47   S    
C29   C30   S    
O9    P5    S    
C58   H51   S    
Ba2   O9    S    
C43   P3    S    
C47   C50   A    
C53   O2    S    
C6    H18   S    
C48   C49   A    
C5    O11   S    
Ba1   O22   S    
C47   N4    S    
C46   C48   A    
C56   H41   S    
C9    C67   S    
Ba1   O12   S    
C55   H37   S    
O6    P8    S    
C34   H35   S    
O16   P8    D    
C38   C39   A    
C52   O30   S    
C58   H50   S    
Ba2   O4    S    
C52   C56   S    
C11   N1    Am   
C21   H24   S    
C25   N2    Am   
C40   C41   A    
C1    C2    S    
C51   O24   S    
C65   H70   S    
C57   H45   S    
C1    H6    S    
C34   H34   S    
C27   C37   S    
C4    H14   S    
C28   P4    S    
C33   P1    S    
C14   C20   A    
O10   P5    D    
O30   H43   S    
C59   H54   S    
C1    H11   S    
Ba1   P2    S    
O31   H44   S    
C53   C57   S    
C56   H42   S    
C8    H23   S    
C65   H72   S    
C18   C25   A    
C29   C65   S    
C23   H33   S    
C31   C36   A    
O32   H48   S    
C66   H75   S    
C45   C55   S    
O33   H79   S    
C64   H69   S    
C61   H59   S    
Ba1   P1    S    
C4    C58   S    
C23   O35   S    
C60   H55   S    
C45   H2    S    
C2    H10   S    
C27   P8    S    
C38   O34   S    
Ba2   O8    S    
C7    O17   S    
C55   H38   S    
C53   H5    S    
C36   N2    S    
Ba2   O13   S    
C6    H17   S    
C16   H26   S    
C66   H74   S    
C28   C37   D    
O15   P7    S    
C12   H22   S    
O17   P8    S    
N3    N4    D    
O8    P7    S    
Ba1   O26   S    
C56   H40   S    
Ba1   O13   S    
C45   H3    S    
C63   H64   S    
C10   C15   A    
O3    P3    S    
C18   C19   A    
C8    C62   S    
C19   C22   A    
C10   C16   A    
O14   P7    D    
O23   P6    D    
C13   O19   D    
C20   C21   A    
C2    O25   S    
C58   H49   S    
C7    H19   S    
C11   O18   D    
O29   H39   S    
C13   C14   A    
C60   H56   S    
C26   H27   S    
