data_mof_unit_112.cif
_audit_creation_date              2012-12-11T14:56:06-0500
_audit_creation_method            fapswitch 2.2
_symmetry_space_group_name_H-M    P1
_symmetry_Int_Tables_number       1
_space_group_crystal_system       triclinic
_cell_length_a                    27.981136
_cell_length_b                    17.190525
_cell_length_c                    18.117033
_cell_angle_alpha                 90.463655
_cell_angle_beta                  137.897214
_cell_angle_gamma                 89.481167
_cell_volume                      5842.48302998

loop_
_atom_site_label
_atom_site_type_symbol
_atom_type_description
_atom_site_fract_x
_atom_site_fract_y
_atom_site_fract_z
_atom_type_partial_charge
C1    C     C_R   0.669591 0.920215 0.816683 -0.075663
C2    C     C_3   0.294758 0.756653 0.943877 0.156556
C3    C     C_3   0.689855 0.725363 0.938314 0.144339
C4    C     C_3   0.259803 0.706728 0.008013 0.196254
C5    C     C_3   0.781834 0.339582 0.960894 0.161401
C6    C     C_3   0.774350 0.823939 0.110495 0.152175
C7    C     C_3   0.189844 0.225364 0.938310 0.144331
C8    C     C_3   0.332000 0.732154 0.058945 0.108279
C9    C     C_3   0.709278 0.313751 0.909419 0.140557
C10   C     C_3   0.772570 0.815596 0.023714 0.124947
C11   C     C_3   0.191731 0.234251 0.025191 0.127484
C12   C     C_3   0.832001 0.232155 0.058943 0.108283
C13   C     C_3   0.191678 0.324090 0.017917 0.173309
C14   C     C_3   0.209278 0.813750 0.909420 0.140557
C15   C     C_3   0.272564 0.315589 0.023696 0.124952
C16   C     C_3   0.691728 0.734242 0.025178 0.127474
C17   C     C_3   0.318084 0.814592 0.074226 -0.214761
C18   C     C_3   0.723270 0.231671 0.894496 -0.223735
C19   C     C_3   0.690382 0.814642 0.932131 -0.197060
C20   C     C_3   0.273300 0.235004 0.115414 -0.202995
C21   C     C_3   0.818084 0.314592 0.074225 -0.214764
C22   C     C_3   0.223270 0.731670 0.894498 -0.223732
C23   C     C_3   0.190376 0.314642 0.932127 -0.197060
C24   C     C_3   0.771649 0.726631 0.029230 0.163217
C25   C     C_3   0.773298 0.735003 0.115416 -0.202987
C26   C     C_2   0.640488 0.636074 0.575835 1.036237
C27   C     C_2   0.505452 0.223667 0.796720 1.070776
C28   C     C_2   0.339697 0.637631 0.372689 1.058380
C29   C     C_2   0.612866 0.324419 0.425067 0.989825
C30   C     C_2   0.140506 0.136081 0.575884 1.036258
C31   C     C_2   0.005451 0.723667 0.796722 1.070777
C32   C     C_2   0.839704 0.137630 0.372697 1.058375
C33   C     C_2   0.112871 0.824408 0.425078 0.989863
C34   C     C_3   0.245876 0.788615 0.023300 0.170629
C35   C     C_3   0.794759 0.256657 0.943876 0.156556
C36   C     C_3   0.691669 0.824081 0.017906 0.173306
C37   C     C_3   0.271637 0.226625 0.029213 0.163229
C38   C     C_R   0.716772 0.752029 0.624144 0.062793
C39   C     C_R   0.392467 0.142651 0.650707 0.014269
C40   C     C_R   0.275145 0.757941 0.345557 0.088492
C41   C     C_R   0.311806 0.104802 0.204529 -0.091610
C42   C     C_R   0.648044 0.186420 0.423408 0.049278
C43   C     C_R   0.216778 0.252034 0.624156 0.062803
C44   C     C_R   0.892470 0.642648 0.650710 0.014267
C45   C     C_R   0.775145 0.257938 0.345547 0.088505
C46   C     C_R   0.148023 0.686405 0.423371 0.049282
C47   C     C_R   0.396036 0.247015 0.745218 -0.180360
C48   C     C_R   0.740995 0.622003 0.604483 -0.224884
C49   C     C_R   0.641397 0.292853 0.329275 -0.220740
C50   C     C_R   0.251112 0.633836 0.374637 -0.216696
C51   C     C_R   0.896035 0.747011 0.745219 -0.180361
C52   C     C_R   0.335667 0.923405 0.184470 -0.075941
C53   C     C_R   0.240999 0.122007 0.604496 -0.224882
C54   C     C_R   0.141386 0.792848 0.329262 -0.220727
C55   C     C_R   0.751128 0.133840 0.374664 -0.216706
C56   C     C_R   0.430491 0.204025 0.729224 -0.209138
C57   C     C_R   0.698981 0.671487 0.599941 -0.093891
C58   C     C_R   0.631501 0.265563 0.389007 -0.089206
C59   C     C_R   0.288753 0.677004 0.365029 -0.121353
C60   C     C_R   0.930491 0.704022 0.729227 -0.209135
C61   C     C_R   0.198989 0.171492 0.599964 -0.093918
C62   C     C_R   0.131489 0.765553 0.388991 -0.089248
C63   C     C_R   0.686798 0.102741 0.801472 -0.103828
C64   C     C_R   0.788758 0.177003 0.365033 -0.121345
C65   C     C_R   0.335479 0.108966 0.623248 -0.171463
C66   C     C_R   0.786110 0.774317 0.684350 -0.208455
C67   C     C_R   0.681853 0.139763 0.408622 -0.209020
C68   C     C_R   0.210448 0.786198 0.298618 -0.178334
C69   C     C_R   0.835482 0.608962 0.623251 -0.171460
C70   C     C_R   0.286114 0.274324 0.684353 -0.208456
C71   C     C_R   0.181827 0.639750 0.408575 -0.209021
C72   C     C_R   0.710447 0.286193 0.298610 -0.178329
C73   C     C_R   0.303058 0.149919 0.643367 0.161747
C74   C     C_R   0.169587 0.420218 0.816683 -0.075658
C75   C     C_R   0.829382 0.723409 0.694082 0.164056
C76   C     C_R   0.703001 0.172520 0.366500 0.165431
C77   C     C_R   0.180817 0.748763 0.324175 0.142204
C78   C     C_R   0.803057 0.649914 0.643364 0.161749
C79   C     C_R   0.329384 0.223414 0.694084 0.164056
C80   C     C_R   0.202982 0.672514 0.366468 0.165433
C81   C     C_R   0.680828 0.248765 0.324190 0.142201
C82   C     C_R   0.362567 0.069279 0.495695 -0.079807
C83   C     C_R   0.674672 0.894132 0.596137 -0.121013
C84   C     C_R   0.654195 0.084488 0.534061 -0.096477
C85   C     C_R   0.811805 0.604802 0.204531 -0.091606
C86   C     C_R   0.323876 0.895821 0.395395 -0.141382
C87   C     C_R   0.862568 0.569278 0.495696 -0.079810
C88   C     C_R   0.174673 0.394134 0.596139 -0.121025
C89   C     C_R   0.154184 0.584478 0.534038 -0.096470
C90   C     C_R   0.823876 0.395819 0.395392 -0.141374
C91   C     C_R   0.405615 0.802144 0.485810 -0.088571
C92   C     C_R   0.567311 0.176019 0.440091 -0.048356
C93   C     C_R   0.590577 0.803196 0.500720 -0.081745
C94   C     C_R   0.442280 0.165716 0.578623 -0.094269
C95   C     C_R   0.905615 0.302143 0.485806 -0.088586
C96   C     C_R   0.835666 0.423405 0.184470 -0.075942
C97   C     C_R   0.067297 0.676006 0.440065 -0.048299
C98   C     C_R   0.090579 0.303196 0.500725 -0.081735
C99   C     C_R   0.942281 0.665715 0.578625 -0.094271
C100  C     C_R   0.602672 0.194148 0.711931 -0.043419
C101  C     C_R   0.418256 0.828837 0.276232 -0.055368
C102  C     C_R   0.394958 0.195808 0.292940 -0.094603
C103  C     C_R   0.585911 0.827608 0.726804 -0.058409
C104  C     C_R   0.102671 0.694147 0.711932 -0.043413
C105  C     C_R   0.918256 0.328836 0.276232 -0.055374
C106  C     C_R   0.894956 0.695809 0.292943 -0.094618
C107  C     C_R   0.186798 0.602740 0.801474 -0.103832
C108  C     C_R   0.085907 0.327611 0.726803 -0.058398
C109  C     C_R   0.646393 0.856882 0.829485 0.158260
C110  C     C_R   0.323331 0.182663 0.207097 0.168627
C111  C     C_R   0.361634 0.860231 0.174006 0.161677
C112  C     C_R   0.672709 0.178546 0.804735 0.197771
C113  C     C_R   0.146388 0.356886 0.829483 0.158255
C114  C     C_R   0.823329 0.682663 0.207102 0.168628
C115  C     C_R   0.861633 0.360230 0.174006 0.161683
C116  C     C_R   0.172708 0.678544 0.804737 0.197778
C117  C     C_R   0.399618 0.125753 0.578981 0.041473
C118  C     C_3   0.745876 0.288614 0.023298 0.170633
C119  C     C_R   0.662537 0.814269 0.572820 0.080951
C120  C     C_R   0.625635 0.150671 0.466747 0.084604
C121  C     C_R   0.333165 0.815742 0.408289 0.085172
C122  C     C_R   0.899619 0.625751 0.578983 0.041473
C123  C     C_R   0.162540 0.314272 0.572827 0.080964
C124  C     C_R   0.125617 0.650654 0.466711 0.084593
C125  C     C_R   0.833165 0.315741 0.408282 0.085156
C126  C     C_3   0.759804 0.206728 0.008010 0.196259
C127  C     C_3   0.281834 0.839580 0.960894 0.161400
C128  C     C_3   0.274358 0.323940 0.110492 0.152168
H1    H     H_    0.715282 0.956012 0.880177 0.148882
H2    H     H_    0.224766 0.062347 0.575910 0.175831
H3    H     H_    0.128396 0.852980 0.302086 0.171065
H4    H     H_    0.763882 0.073043 0.398045 0.178356
H5    H     H_    0.420034 0.299583 0.794733 0.170891
H6    H     H_    0.724762 0.562343 0.575892 0.175822
H7    H     H_    0.628401 0.352982 0.302086 0.171043
H8    H     H_    0.263861 0.573037 0.398005 0.178358
H9    H     H_    0.324972 0.027773 0.473714 0.103291
H10   H     H_    0.726124 0.921454 0.660739 0.107866
H11   H     H_    0.700242 0.050695 0.570082 0.109792
H12   H     H_    0.260937 0.075955 0.150309 0.141793
H13   H     H_    0.273999 0.926178 0.330363 0.115394
H14   H     H_    0.824973 0.527771 0.473716 0.103291
H15   H     H_    0.226125 0.421458 0.660742 0.107873
H16   H     H_    0.200228 0.550682 0.570051 0.109791
H17   H     H_    0.773998 0.426176 0.330361 0.115390
H18   H     H_    0.431647 0.746458 0.508908 0.111045
H19   H     H_    0.530503 0.222496 0.385570 0.104829
H20   H     H_    0.561763 0.749420 0.468914 0.109389
H21   H     H_    0.475716 0.214997 0.627950 0.119161
H22   H     H_    0.931647 0.246458 0.508901 0.111039
H23   H     H_    0.288772 0.957773 0.118705 0.145395
H24   H     H_    0.030486 0.722479 0.385536 0.104816
H25   H     H_    0.061769 0.249418 0.468925 0.109384
H26   H     H_    0.975717 0.714996 0.627952 0.119161
H27   H     H_    0.577077 0.250246 0.680916 0.132447
H28   H     H_    0.447818 0.776771 0.297599 0.134317
H29   H     H_    0.421506 0.251345 0.321161 0.138770
H30   H     H_    0.554125 0.778548 0.706704 0.135620
H31   H     H_    0.077077 0.750246 0.680917 0.132448
H32   H     H_    0.947818 0.276771 0.297600 0.134319
H33   H     H_    0.921504 0.751346 0.321164 0.138773
H34   H     H_    0.738718 0.075684 0.855530 0.141057
H35   H     H_    0.054120 0.278551 0.706700 0.135619
H36   H     H_    0.804085 0.833414 0.713230 0.130689
H37   H     H_    0.310244 0.056605 0.573941 0.121142
H38   H     H_    0.193620 0.845252 0.268722 0.131794
H39   H     H_    0.695710 0.079853 0.436204 0.131326
H40   H     H_    0.304087 0.333421 0.713228 0.130691
H41   H     H_    0.810248 0.556601 0.573944 0.121140
H42   H     H_    0.693615 0.345244 0.268700 0.131801
H43   H     H_    0.195677 0.579837 0.436145 0.131328
H44   H     H_    0.581557 0.637637 0.601053 0.345896
H45   H     H_    0.215277 0.456014 0.880178 0.148881
H46   H     H_    0.534598 0.111913 0.809338 0.303623
H47   H     H_    0.393028 0.640393 0.337015 0.348685
H48   H     H_    0.556530 0.420820 0.387448 0.370994
H49   H     H_    0.081584 0.137660 0.601117 0.345900
H50   H     H_    0.034601 0.611915 0.809341 0.303623
H51   H     H_    0.893028 0.140386 0.337010 0.348687
H52   H     H_    0.056573 0.920834 0.387511 0.370997
H53   H     H_    0.760937 0.575953 0.150312 0.141790
H54   H     H_    0.788771 0.457773 0.118705 0.145396
H55   H     H_    0.238717 0.575683 0.855533 0.141060
H56   H     H_    0.920033 0.799579 0.794735 0.170889
I1    I     I_    0.425225 0.659097 0.163299 -0.259654
I2    I     I_    0.303788 0.942996 0.925810 -0.183118
I3    I     I_    0.338699 0.402405 0.247876 -0.209632
I4    I     I_    0.630130 0.633553 0.818796 -0.240107
I5    I     I_    0.242541 0.601447 0.048900 -0.210657
I6    I     I_    0.803788 0.443004 0.925819 -0.183113
I7    I     I_    0.838679 0.902400 0.247885 -0.209635
I8    I     I_    0.130103 0.133554 0.818796 -0.240136
I9    I     I_    0.701025 0.306723 0.079991 -0.249242
I10   I     I_    0.327295 0.729895 0.870355 -0.229812
I11   I     I_    0.125122 0.404587 0.000867 -0.229081
I12   I     I_    0.618519 0.390122 0.801872 -0.182758
I13   I     I_    0.837235 0.651919 0.036792 -0.248382
I14   I     I_    0.201027 0.806725 0.079995 -0.249239
I15   I     I_    0.827297 0.229903 0.870355 -0.229821
I16   I     I_    0.625100 0.904569 0.000835 -0.229091
I17   I     I_    0.337209 0.151903 0.036754 -0.248351
I18   I     I_    0.848171 0.873259 0.040217 -0.260662
I19   I     I_    0.127627 0.174021 0.030623 -0.253439
I20   I     I_    0.925226 0.159099 0.163298 -0.259667
I21   I     I_    0.118520 0.890122 0.801874 -0.182748
I22   I     I_    0.348155 0.373238 0.040165 -0.260651
I23   I     I_    0.627611 0.674002 0.030579 -0.253440
I24   I     I_    0.742542 0.101445 0.048896 -0.210649
N1    N     N_R   0.625380 0.928280 0.709340 -0.057428
N2    N     N_R   0.613900 0.929750 0.547530 -0.047367
N3    N     N_R   0.613900 0.070250 0.547530 -0.050312
N4    N     N_R   0.386100 0.929750 0.452470 -0.049493
N5    N     N_R   0.886100 0.570250 0.452470 -0.048455
N6    N     N_R   0.113900 0.429750 0.547530 -0.047368
N7    N     N_R   0.113900 0.570250 0.547530 -0.050312
N8    N     N_R   0.886100 0.429750 0.452470 -0.049493
N9    N     N_R   0.437800 0.869550 0.507970 -0.051513
N10   N     N_R   0.562200 0.130450 0.492030 -0.054834
N11   N     N_R   0.562200 0.869550 0.492030 -0.052662
N12   N     N_R   0.374620 0.071720 0.290660 -0.054887
N13   N     N_R   0.437800 0.130450 0.507970 -0.050374
N14   N     N_R   0.937800 0.369550 0.507970 -0.051514
N15   N     N_R   0.062200 0.630450 0.492030 -0.054830
N16   N     N_R   0.062200 0.369550 0.492030 -0.052663
N17   N     N_R   0.937800 0.630450 0.507970 -0.050374
N18   N     N_R   0.573690 0.128980 0.653840 -0.063259
N19   N     N_R   0.426310 0.871020 0.346160 -0.052809
N20   N     N_R   0.426310 0.128980 0.346160 -0.056339
N21   N     N_R   0.573690 0.871020 0.653840 -0.054107
N22   N     N_R   0.073690 0.628980 0.653840 -0.063261
N23   N     N_R   0.374620 0.928280 0.290660 -0.052745
N24   N     N_R   0.926310 0.371020 0.346160 -0.052812
N25   N     N_R   0.926310 0.628980 0.346160 -0.056340
N26   N     N_R   0.073690 0.371020 0.653840 -0.054105
N27   N     N_R   0.625380 0.071720 0.709340 -0.056780
N28   N     N_R   0.125380 0.428280 0.709340 -0.057424
N29   N     N_R   0.874620 0.571720 0.290660 -0.054886
N30   N     N_R   0.874620 0.428280 0.290660 -0.052746
N31   N     N_R   0.125380 0.571720 0.709340 -0.056783
N32   N     N_R   0.386100 0.070250 0.452470 -0.048454
Ni1   Ni    Ni4+2 0.616560 0.000000 0.627280 0.238023
Ni2   Ni    Ni4+2 0.383440 0.000000 0.372720 0.237397
Ni3   Ni    Ni4+2 0.116560 0.500000 0.627280 0.238030
Ni4   Ni    Ni4+2 0.883440 0.500000 0.372720 0.237391
Ni5   Ni    Ni4+2 0.497990 0.870580 0.500000 0.247415
Ni6   Ni    Ni4+2 0.502010 0.129420 0.500000 0.244874
Ni7   Ni    Ni4+2 0.997990 0.370580 0.500000 0.247408
Ni8   Ni    Ni4+2 0.002010 0.629420 0.500000 0.244882
O1    O     O_2   0.607459 0.580732 0.512697 -0.610431
O2    O     O_R   0.124335 0.164634 0.627826 -0.777448
O3    O     O_2   0.025591 0.790830 0.825725 -0.551672
O4    O     O_R   0.054531 0.666533 0.830847 -0.749062
O5    O     O_2   0.864211 0.073705 0.416068 -0.592721
O6    O     O_R   0.858200 0.172829 0.327245 -0.786826
O7    O     O_2   0.141620 0.822475 0.518597 -0.604310
O8    O     O_R   0.064478 0.883977 0.353336 -0.753339
O9    O     O_R   0.624315 0.664609 0.627781 -0.777434
O10   O     O_2   0.525592 0.290829 0.825723 -0.551672
O11   O     O_R   0.554529 0.166531 0.830845 -0.749058
O12   O     O_2   0.364190 0.573697 0.416033 -0.592718
O13   O     O_R   0.358205 0.672840 0.327259 -0.786842
O14   O     O_2   0.641630 0.322515 0.518596 -0.604293
O15   O     O_R   0.564438 0.383954 0.353283 -0.753324
O16   O     O_2   0.107485 0.080724 0.512775 -0.610433

loop_
_geom_bond_atom_site_label_1
_geom_bond_atom_site_label_2
_ccdc_geom_bond_type
C103  N21   A    
C63   H34   S    
N19   N23   A    
C82   C117  A    
N8    Ni4   S    
C106  N25   A    
N30   Ni4   S    
C49   C58   A    
C128  I3    S    
N3    Ni1   S    
C47   C79   A    
C4    C8    S    
C16   I23   S    
C3    I4    S    
C42   C58   A    
C90   N8    A    
H52   O8    S    
C9    I12   S    
C35   I15   S    
C48   C57   A    
C94   H21   S    
C7    C11   S    
C54   H3    S    
C13   C23   S    
C88   N6    A    
C82   H9    S    
C106  C114  A    
C12   C126  S    
C50   C59   A    
N10   Ni6   S    
N28   Ni3   S    
C48   H6    S    
C85   C114  A    
C51   C75   A    
C5    I6    S    
C20   C128  S    
C97   C124  A    
C1    H1    S    
C19   C36   S    
C52   N23   A    
C94   C117  A    
C28   C59   S    
C105  H32   S    
N20   Ni6   S    
N13   Ni6   S    
C66   C75   A    
C49   C81   A    
C28   O13   S    
C99   H26   S    
C65   H37   S    
C68   C77   A    
C127  I2    S    
C65   C73   A    
N12   N20   A    
C93   H20   S    
C83   H10   S    
C106  H33   S    
C48   C78   A    
C63   C112  A    
N3    N10   A    
C118  I9    S    
C95   C125  A    
C15   C37   S    
C41   H12   S    
N4    Ni2   S    
N16   Ni7   S    
C1    C109  A    
C104  C116  A    
H51   O6    S    
C53   C61   A    
C97   H24   S    
N27   Ni1   S    
C38   C66   A    
C84   H11   S    
C45   C125  S    
C33   C62   S    
C28   O12   D    
C98   N16   A    
C32   O5    D    
C2    C22   S    
C94   N13   A    
N11   Ni5   S    
C96   C115  A    
C6    I7    S    
N4    N9    A    
C18   C35   S    
C88   H15   S    
C126  I24   S    
C72   C81   A    
C21   C115  S    
C89   N7    A    
C54   C77   A    
N21   Ni5   S    
C2    C127  S    
N17   Ni8   S    
C15   C23   S    
C103  C109  A    
C49   H7    S    
C98   H25   S    
C40   C59   A    
C47   H5    S    
C92   H19   S    
N24   N30   A    
C9    C118  S    
C39   C65   A    
C46   C124  S    
C69   C78   A    
C69   H41   S    
N26   N28   A    
C88   C123  A    
C17   C111  S    
C102  H29   S    
N32   Ni2   S    
C71   C80   A    
C26   C57   S    
N18   Ni6   S    
C108  N26   A    
C19   C109  S    
C7    C37   S    
C98   C123  A    
C18   C112  S    
C108  H35   S    
C4    C34   S    
C11   C20   S    
C84   N3    A    
C95   N14   A    
C30   C61   S    
N13   N32   A    
C1    N1    A    
C83   N2    A    
C105  N24   A    
C33   O7    D    
N23   Ni2   S    
C24   C25   S    
C32   C64   S    
C74   H45   S    
C51   H56   S    
N1    Ni1   S    
H46   O11   S    
C27   C56   S    
C17   C127  S    
N7    N15   A    
C11   I19   S    
C54   C62   A    
C52   C111  A    
C10   C24   S    
C39   C117  S    
C74   C113  A    
C107  N31   A    
C12   C21   S    
C32   O6    S    
C14   C127  S    
C30   O2    S    
C82   N32   A    
N6    Ni3   S    
C2    I10   S    
C5    C21   S    
C72   H42   S    
C108  C113  A    
C91   N9    A    
C92   N10   A    
C44   C122  S    
C5    C9    S    
C21   C118  S    
C40   C121  S    
C26   O1    D    
C70   H40   S    
N26   Ni7   S    
C23   C113  S    
C38   C57   A    
C4    C22   S    
N14   Ni7   S    
C34   I14   S    
H48   O15   S    
C104  N22   A    
C39   C56   A    
C10   C19   S    
C84   C120  A    
C55   C64   A    
C86   C121  A    
C102  N20   A    
C29   O14   D    
C73   C79   A    
C66   H36   S    
C44   C69   A    
C103  H30   S    
C95   H22   S    
N1    N21   A    
N9    Ni5   S    
C12   C35   S    
C100  N18   A    
C10   I18   S    
C46   C71   A    
C99   N17   A    
N6    N16   A    
C99   C122  A    
C20   C110  S    
C38   C119  S    
C100  H27   S    
C3    C24   S    
C46   C62   A    
C24   I13   S    
C100  C112  A    
C43   C70   A    
C15   C128  S    
C40   C68   A    
C42   C67   A    
C8    I1    S    
C71   H43   S    
C7    I8    S    
C102  C110  A    
C17   C34   S    
C55   C76   A    
C104  H31   S    
C74   N28   A    
C43   C123  S    
C41   N12   A    
N22   Ni8   S    
C43   C61   A    
C77   C80   A    
C67   H39   S    
C16   C25   S    
C27   O10   D    
C85   H53   S    
N2    N11   A    
N29   Ni4   S    
C70   C79   A    
C96   N30   A    
N19   Ni5   S    
C105  C115  A    
C33   O8    S    
C53   C73   A    
C41   C110  A    
C36   I16   S    
N2    Ni1   S    
C96   H54   S    
C50   C80   A    
C76   C81   A    
C14   C34   S    
C87   C122  A    
C2    C8    S    
N25   Ni8   S    
C86   N4    A    
C89   C124  A    
C118  C126  S    
N15   Ni8   S    
C101  C111  A    
C89   H16   S    
C27   O11   S    
C45   C64   A    
N7    Ni3   S    
C8    C17   S    
C101  H28   S    
C93   N11   A    
C101  N19   A    
N24   Ni7   S    
N25   N29   A    
C14   C22   S    
C51   C60   A    
C92   C120  A    
C50   H8    S    
C25   C114  S    
C16   C36   S    
C13   C128  S    
C20   C37   S    
C11   C13   S    
C42   C120  S    
C87   N5    A    
C26   O9    S    
N12   Ni2   S    
C44   C60   A    
C52   H23   S    
C7    C23   S    
H49   O2    S    
C5    C35   S    
C22   C116  S    
C29   O15   S    
C90   C125  A    
C6    C36   S    
C31   O4    S    
N5    Ni4   S    
C85   N29   A    
C12   I20   S    
C87   H14   S    
C3    C19   S    
C30   O16   D    
C75   C78   A    
N8    N14   A    
C107  C116  A    
C83   C119  A    
C15   I22   S    
N5    N17   A    
C6    C10   S    
N18   N27   A    
C63   N27   A    
C6    C25   S    
C97   N15   A    
C9    C18   S    
C31   O3    D    
C91   C121  A    
H50   O4    S    
C29   C58   S    
C4    I5    S    
C55   H4    S    
C13   I11   S    
C14   I21   S    
C107  H55   S    
C90   H17   S    
C37   I17   S    
N31   Ni3   S    
C53   H2    S    
C93   C119  A    
C31   C60   S    
H44   O9    S    
H47   O13   S    
C91   H18   S    
C18   C126  S    
C3    C16   S    
C67   C76   A    
C86   H13   S    
N22   N31   A    
C47   C56   A    
C45   C72   A    
C68   H38   S    
