data_mof_unit_1973.cif
_audit_creation_date              2012-10-26T19:07:31-0400
_audit_creation_method            fapswitch 2.2
_symmetry_space_group_name_H-M    P1
_symmetry_Int_Tables_number       1
_space_group_crystal_system       triclinic
_cell_length_a                    14.979737
_cell_length_b                    13.740261
_cell_length_c                    10.739368
_cell_angle_alpha                 89.372436
_cell_angle_beta                  91.313919
_cell_angle_gamma                 90.20649
_cell_volume                      2209.70956864

loop_
_atom_site_label
_atom_site_type_symbol
_atom_type_description
_atom_site_fract_x
_atom_site_fract_y
_atom_site_fract_z
_atom_type_partial_charge
C1    C     C_R   0.329007 0.499809 0.497011 0.536482
C2    C     C_R   0.948089 0.501583 0.273005 0.150121
C3    C     C_R   0.427795 0.792810 0.542213 0.046115
C4    C     C_R   0.571318 0.207493 0.454996 0.037251
C5    C     C_R   0.572045 0.794079 0.457283 0.051630
C6    C     C_R   0.427983 0.206170 0.542777 0.030422
C7    C     C_R   0.574249 0.897247 0.456082 -0.012893
C8    C     C_R   0.424756 0.103082 0.541478 -0.028556
C9    C     C_R   0.425300 0.895931 0.542669 -0.016287
C10   C     C_R   0.574129 0.104404 0.454799 -0.027740
C11   C     C_R   0.499844 0.948491 0.499554 -0.033819
C12   C     C_R   0.671027 0.500116 0.503416 0.542273
C13   C     C_R   0.499637 0.051900 0.498789 -0.021823
C14   C     C_R   0.648978 0.949644 0.412403 0.159225
C15   C     C_R   0.349050 0.050176 0.582139 0.138227
C16   C     C_R   0.349453 0.947109 0.582609 0.160670
C17   C     C_R   0.649366 0.052792 0.412492 0.136358
C18   C     C_R   0.498720 0.500578 0.259435 0.543515
C19   C     C_R   0.500411 0.499293 0.740639 0.553027
C20   C     C_3   0.474351 0.587472 0.035771 0.147535
C21   C     C_3   0.523114 0.411459 0.964634 0.151875
C22   C     C_3   0.556711 0.564864 0.959611 0.147477
C23   C     C_R   0.953205 0.496747 0.501296 -0.022527
C24   C     C_3   0.440705 0.434223 0.040861 0.127167
C25   C     C_3   0.415171 0.520530 0.953404 -0.160585
C26   C     C_3   0.582307 0.478597 0.046801 -0.132517
C27   C     C_3   0.499476 0.497524 0.876914 0.005465
C28   C     C_3   0.498304 0.501674 0.123260 0.002087
C29   C     C_R   0.810210 0.504088 0.390810 -0.135459
C30   C     C_R   0.190104 0.500877 0.610200 -0.136609
C31   C     C_R   0.767244 0.500237 0.503736 -0.014060
C32   C     C_R   0.232876 0.498967 0.497158 -0.013099
C33   C     C_R   0.815345 0.494954 0.615896 -0.127191
C34   C     C_R   0.046923 0.496264 0.500132 -0.021948
C35   C     C_R   0.184658 0.494711 0.385254 -0.126982
C36   C     C_R   0.908910 0.493754 0.616343 0.016360
C37   C     C_R   0.091159 0.493752 0.385132 0.018129
C38   C     C_3   0.417632 0.748302 0.979772 -0.319227
C39   C     C_3   0.577595 0.249215 0.021786 -0.302942
C40   C     C_3   0.660585 0.698365 0.001090 -0.306144
C41   C     C_3   0.328378 0.307952 0.001860 -0.317721
C42   C     C_3   0.895001 0.377310 0.874524 -0.305858
C43   C     C_3   0.101088 0.376076 0.131096 -0.312922
C44   C     C_3   0.125646 0.603881 0.877366 -0.337280
C45   C     C_R   0.903529 0.500922 0.387426 0.003789
C46   C     C_3   0.881724 0.611751 0.122223 -0.340238
C47   C     C_3   0.716024 0.875450 0.235450 -0.321428
C48   C     C_3   0.271364 0.125196 0.750647 -0.317975
C49   C     C_3   0.272842 0.856656 0.744945 -0.326645
C50   C     C_3   0.789775 0.133418 0.459293 -0.319709
C51   C     C_R   0.096716 0.498669 0.613843 0.004222
C52   C     C_R   0.958611 0.490959 0.729418 0.163416
C53   C     C_R   0.041501 0.492017 0.272254 0.164163
C54   C     C_R   0.052309 0.498854 0.728383 0.149892
Cu1   Cu    Cu3+1 0.500000 0.597420 0.500000 0.935056
Cu2   Cu    Cu3+1 0.500000 0.402580 0.500000 0.926267
H1    H     H_    0.779135 0.493196 0.702145 0.136721
H2    H     H_    0.601064 0.180476 0.980338 0.130334
H3    H     H_    0.520559 0.232407 0.082788 0.174902
H4    H     H_    0.633398 0.280410 0.078500 0.143517
H5    H     H_    0.666292 0.601612 0.854322 0.249755
H6    H     H_    0.714954 0.741051 0.957605 0.124811
H7    H     H_    0.688689 0.656179 0.081519 0.133638
H8    H     H_    0.610247 0.750268 0.034238 0.183961
H9    H     H_    0.336622 0.396850 0.156260 0.249562
H10   H     H_    0.279484 0.260886 0.050372 0.128728
H11   H     H_    0.374334 0.259869 0.952246 0.151467
H12   H     H_    0.220704 0.493880 0.298880 0.130375
H13   H     H_    0.291835 0.355698 0.934034 0.123458
H14   H     H_    0.769280 0.508682 0.306652 0.102824
H15   H     H_    0.231233 0.503620 0.694235 0.101981
H16   H     H_    0.944109 0.513855 0.917671 0.293076
H17   H     H_    0.958160 0.336750 0.892359 0.145478
H18   H     H_    0.856591 0.342232 0.797382 0.149753
H19   H     H_    0.854091 0.373372 0.959189 0.143458
H20   H     H_    0.056653 0.513954 0.083359 0.293714
H21   H     H_    0.036507 0.336884 0.118607 0.148131
H22   H     H_    0.140878 0.340974 0.207635 0.147030
H23   H     H_    0.347509 0.536872 0.914422 0.096775
H24   H     H_    0.139050 0.370215 0.044249 0.139907
H25   H     H_    0.152511 0.456503 0.853843 0.237310
H26   H     H_    0.167415 0.638039 0.804820 0.138742
H27   H     H_    0.164813 0.602901 0.966387 0.145286
H28   H     H_    0.064820 0.648482 0.889523 0.151227
H29   H     H_    0.846184 0.465842 0.146579 0.240104
H30   H     H_    0.845885 0.613988 0.030690 0.146508
H31   H     H_    0.945103 0.653310 0.113804 0.150959
H32   H     H_    0.839401 0.646963 0.192267 0.142499
H33   H     H_    0.371855 0.751168 0.575536 0.165184
H34   H     H_    0.650145 0.462905 0.085624 0.092851
H35   H     H_    0.626075 0.249791 0.419577 0.136778
H36   H     H_    0.628001 0.753461 0.423675 0.167248
H37   H     H_    0.373187 0.247412 0.578128 0.136978
H38   H     H_    0.784921 0.927864 0.390066 0.274465
H39   H     H_    0.772688 0.828589 0.209342 0.130249
H40   H     H_    0.717371 0.943285 0.178218 0.158703
H41   H     H_    0.652858 0.835548 0.215683 0.144415
H42   H     H_    0.249572 0.154523 0.561790 0.240406
H43   H     H_    0.324100 0.180160 0.769992 0.118049
H44   H     H_    0.283602 0.060202 0.810793 0.161033
H45   H     H_    0.403967 0.679223 0.150233 0.263085
H46   H     H_    0.205682 0.156454 0.774101 0.136401
H47   H     H_    0.211434 0.925487 0.591157 0.278153
H48   H     H_    0.219860 0.891608 0.799504 0.135459
H49   H     H_    0.338232 0.869562 0.793066 0.137801
H50   H     H_    0.259864 0.777208 0.742676 0.135989
H51   H     H_    0.710206 0.156288 0.299887 0.233112
H52   H     H_    0.849096 0.164937 0.413400 0.143135
H53   H     H_    0.811855 0.070293 0.517555 0.150479
H54   H     H_    0.760878 0.189467 0.520123 0.142030
H55   H     H_    0.352730 0.722722 0.939896 0.122331
H56   H     H_    0.408520 0.822035 0.018659 0.132110
H57   H     H_    0.467344 0.753276 0.904790 0.190140
H58   H     H_    0.508148 0.285979 0.857718 0.260805
N1    N     N_R   0.500000 0.743810 0.500000 -0.257383
N2    N     N_2   0.900225 0.511758 0.157597 -0.538431
N3    N     N_2   0.723641 0.898279 0.366326 -0.525314
N4    N     N_2   0.270739 0.099015 0.620581 -0.526902
N5    N     N_2   0.271581 0.894880 0.618685 -0.519893
N6    N     N_2   0.725076 0.102957 0.365301 -0.532576
N7    N     N_R   0.500000 0.256190 0.500000 -0.243903
N8    N     N_2   0.447800 0.682601 0.077711 -0.502255
N9    N     N_2   0.550575 0.316335 0.923477 -0.500465
N10   N     N_2   0.620223 0.634056 0.910286 -0.494038
N11   N     N_2   0.377494 0.365459 0.092115 -0.494202
N12   N     N_2   0.914238 0.477997 0.844252 -0.524952
N13   N     N_2   0.085459 0.477483 0.157904 -0.524057
N14   N     N_2   0.100922 0.505499 0.843497 -0.538018
O1    O     O_R   0.370260 0.582280 0.500030 -0.513817
O2    O     O_R   0.629740 0.417720 0.499970 -0.512658
O3    O     O_R   0.629740 0.582280 0.499970 -0.507260
O4    O     O_R   0.370260 0.417720 0.500030 -0.514641
O5    O     O_R   0.499980 0.582260 0.316850 -0.500265
O6    O     O_R   0.500020 0.417740 0.683150 -0.504028
O7    O     O_R   0.500020 0.582260 0.683150 -0.487663
O8    O     O_R   0.499980 0.417740 0.316850 -0.488692

loop_
_geom_bond_atom_site_label_1
_geom_bond_atom_site_label_2
_ccdc_geom_bond_type
C49   H50   S    
Cu1   Cu2   S    
C8    C13   A    
C23   C45   A    
C12   O3    A    
C34   C37   A    
C30   C51   A    
C1    O4    A    
C49   H48   S    
C30   H15   S    
C40   H6    S    
C41   H11   S    
C43   H22   S    
C7    C11   A    
C34   C51   A    
C40   H7    S    
C12   O2    A    
H5    N10   S    
C50   N6    S    
C35   C37   A    
C9    C16   A    
C46   H31   S    
C1    O1    A    
H38   N3    S    
C20   C25   S    
C10   C17   A    
C19   O7    A    
C15   C16   A    
C50   H54   S    
C33   C36   A    
C39   N9    S    
C18   O5    A    
C53   N13   S    
C17   N6    S    
C2    N2    S    
C7    C14   A    
Cu1   O1    S    
C44   H26   S    
C47   H40   S    
C31   C33   A    
C18   O8    A    
C19   C27   S    
C20   N8    S    
C36   C52   A    
C4    H35   S    
C37   C53   A    
C44   H27   S    
C21   C27   S    
C48   H46   S    
C5    N1    A    
C50   H52   S    
C14   C17   A    
C40   N10   S    
Cu2   O8    S    
C21   C26   S    
C52   C54   A    
H42   N4    S    
C46   H32   S    
C2    C45   A    
C48   H44   S    
H47   N5    S    
C42   H18   S    
C32   C35   A    
C41   N11   S    
C18   C28   S    
C24   C25   S    
C16   N5    S    
C43   N13   S    
C5    C7    A    
C38   H57   S    
C52   N12   S    
C48   N4    S    
C20   C28   S    
C43   H24   S    
Cu1   O5    S    
C39   H2    S    
C54   N14   S    
C10   C13   A    
C50   H53   S    
H16   N12   S    
C19   O6    A    
H9    N11   S    
C21   N9    S    
C3    C9    A    
C6    H37   S    
C39   H3    S    
C42   H19   S    
C38   N8    S    
C9    C11   A    
Cu2   O4    S    
H58   N9    S    
C6    C8    A    
C20   C22   S    
C8    C15   A    
Cu1   O3    S    
C22   C27   S    
C12   C31   S    
C24   N11   S    
C43   H21   S    
C4    C10   A    
H51   N6    S    
C41   H13   S    
C29   H14   S    
C48   H43   S    
C44   N14   S    
C23   C34   A    
C33   H1    S    
C25   H23   S    
H29   N2    S    
C49   H49   S    
C24   C28   S    
C44   H28   S    
C2    C53   A    
C40   H8    S    
Cu2   O6    S    
C22   N10   S    
C41   H10   S    
C26   H34   S    
C26   C28   S    
H45   N8    S    
C47   H41   S    
C15   N4    S    
C46   N2    S    
C3    H33   S    
C51   C54   A    
Cu2   N7    S    
H25   N14   S    
C3    N1    A    
C30   C32   A    
C11   C13   A    
C49   N5    S    
Cu1   N1    S    
C35   H12   S    
Cu1   O7    S    
C39   H4    S    
C42   H17   S    
C4    N7    A    
C1    C32   S    
C5    H36   S    
C42   N12   S    
C47   N3    S    
C29   C31   A    
C23   C36   A    
C22   C26   S    
C21   C24   S    
C29   C45   A    
H20   N13   S    
C47   H39   S    
C14   N3    S    
C6    N7    A    
C38   H55   S    
C38   H56   S    
Cu2   O2    S    
C46   H30   S    
C25   C27   S    
