data_mof_unit_1416.cif
_audit_creation_date              2012-10-26T21:00:13-0400
_audit_creation_method            fapswitch 2.2
_symmetry_space_group_name_H-M    P1
_symmetry_Int_Tables_number       1
_space_group_crystal_system       triclinic
_cell_length_a                    19.334079
_cell_length_b                    8.77032
_cell_length_c                    7.426114
_cell_angle_alpha                 102.465113
_cell_angle_beta                  94.525717
_cell_angle_gamma                 92.443726
_cell_volume                      1223.39530566

loop_
_atom_site_label
_atom_site_type_symbol
_atom_type_description
_atom_site_fract_x
_atom_site_fract_y
_atom_site_fract_z
_atom_type_partial_charge
C1    C     C_R   0.498962 0.200795 0.454773 0.600238
C2    C     C_R   0.811844 0.490404 0.330359 -0.115939
C3    C     C_R   0.146318 0.500924 0.503611 0.036965
C4    C     C_R   0.853682 0.499076 0.496389 0.036965
C5    C     C_R   0.177873 0.492381 0.338218 -0.116475
C6    C     C_R   0.822127 0.507619 0.661781 -0.116475
C7    C     C_R   0.249747 0.492206 0.338451 -0.129030
C8    C     C_R   0.750253 0.507794 0.661549 -0.129030
C9    C     C_R   0.291609 0.500699 0.504095 0.017714
C10   C     C_R   0.708391 0.499301 0.495905 0.017714
C11   C     C_R   0.929839 0.499460 0.498010 0.346434
C12   C     C_R   0.501036 0.799205 0.545227 0.600239
C13   C     C_R   0.070161 0.500540 0.501989 0.346434
C14   C     C_2   0.507087 0.037140 0.431697 0.066233
C15   C     C_2   0.492910 0.962859 0.568303 0.066234
C16   C     C_R   0.367477 0.499994 0.501823 0.544731
C17   C     C_R   0.632523 0.500006 0.498177 0.544732
C18   C     C_R   0.260286 0.509565 0.669872 -0.132669
C19   C     C_R   0.739714 0.490435 0.330128 -0.132669
C20   C     C_R   0.188156 0.509595 0.669641 -0.115939
Cu1   Cu    Cu3+1 0.507710 0.517380 0.684380 0.956891
Cu2   Cu    Cu3+1 0.492290 0.482620 0.315620 0.956891
H1    H     H_    0.291387 0.516081 0.799492 0.127910
H2    H     H_    0.555426 0.618254 0.051098 0.235939
H3    H     H_    0.578764 0.903003 0.292302 0.226989
H4    H     H_    0.496740 0.887259 0.176442 0.267796
H5    H     H_    0.421230 0.096995 0.707689 0.226986
H6    H     H_    0.503253 0.112739 0.823560 0.267794
H7    H     H_    0.708613 0.483918 0.200508 0.127910
H8    H     H_    0.165301 0.516281 0.799437 0.134919
H9    H     H_    0.834699 0.483719 0.200563 0.134919
H10   H     H_    0.147157 0.485698 0.208023 0.141418
H11   H     H_    0.852843 0.514302 0.791977 0.141418
H12   H     H_    0.272413 0.485523 0.208353 0.129896
H13   H     H_    0.727587 0.514477 0.791647 0.129896
H14   H     H_    0.444574 0.381746 0.948902 0.235938
N1    N     N_R   0.029949 0.492267 0.341436 -0.219058
N2    N     N_R   0.970051 0.507733 0.658564 -0.219058
N3    N     N_R   0.961132 0.491746 0.339423 -0.221950
N4    N     N_R   0.038868 0.508254 0.660577 -0.221950
N5    N     N_2   0.480680 0.456420 0.038530 -0.260678
N6    N     N_2   0.519320 0.543580 0.961470 -0.260678
N7    N     N_3   0.534986 0.962377 0.262610 -0.619571
N8    N     N_3   0.465007 0.037621 0.737386 -0.619570
O1    O     O_R   0.505010 0.286130 0.619770 -0.533310
O2    O     O_R   0.494990 0.713870 0.380230 -0.533311
O3    O     O_R   0.491990 0.256780 0.308370 -0.466442
O4    O     O_R   0.508010 0.743220 0.691630 -0.466443
O5    O     O_R   0.406650 0.514660 0.655750 -0.510693
O6    O     O_R   0.593350 0.485340 0.344250 -0.510692
O7    O     O_R   0.393640 0.485310 0.344340 -0.508256
O8    O     O_R   0.606360 0.514690 0.655660 -0.508255

loop_
_geom_bond_atom_site_label_1
_geom_bond_atom_site_label_2
_ccdc_geom_bond_type
C17   O6    A    
H4    N7    S    
C11   N2    A    
C2    C4    A    
C6    H11   S    
C16   O7    A    
C12   O2    A    
H2    N6    S    
N5    N6    D    
Cu1   O1    S    
C3    C13   S    
C12   C15   S    
Cu2   O6    S    
C10   C19   A    
C12   O4    A    
C5    H10   S    
C1    O1    A    
Cu1   O4    S    
Cu1   O5    S    
Cu2   O3    S    
C5    C7    A    
C3    C20   A    
N1    N3    A    
C20   H8    S    
Cu1   Cu2   S    
C4    C11   S    
N2    N4    A    
H3    N7    S    
H14   N5    S    
C17   O8    A    
C4    C6    A    
Cu2   O2    S    
C9    C16   S    
C15   N8    S    
C18   C20   A    
C11   N3    A    
C7    H12   S    
Cu2   O7    S    
Cu2   N5    S    
C10   C17   S    
Cu1   N6    S    
C19   H7    S    
C9    C18   A    
C16   O5    A    
C8    C10   A    
C7    C9    A    
C14   C15   D    
C14   N7    S    
C13   N4    A    
C6    C8    A    
C1    C14   S    
C2    C19   A    
C13   N1    A    
H5    N8    S    
H6    N8    S    
Cu1   O8    S    
C1    O3    A    
C18   H1    S    
C2    H9    S    
C3    C5    A    
C8    H13   S    
