data_mof_unit_3307.cif
_audit_creation_date              2012-12-10T17:34:29-0500
_audit_creation_method            fapswitch 2.2
_symmetry_space_group_name_H-M    P1
_symmetry_Int_Tables_number       1
_space_group_crystal_system       triclinic
_cell_length_a                    12.352336
_cell_length_b                    13.274507
_cell_length_c                    14.349414
_cell_angle_alpha                 77.680305
_cell_angle_beta                  100.426498
_cell_angle_gamma                 116.607206
_cell_volume                      2045.42138685

loop_
_atom_site_label
_atom_site_type_symbol
_atom_type_description
_atom_site_fract_x
_atom_site_fract_y
_atom_site_fract_z
_atom_type_partial_charge
C1    C     C_R   0.854715 0.286299 0.511842 0.765264
C2    C     C_1   0.000297 0.500370 0.228920 -0.169425
C3    C     C_R   0.281410 0.998122 0.567880 -0.181217
C4    C     C_R   0.228337 0.831509 0.496315 -0.039211
C5    C     C_R   0.815106 0.099686 0.471720 -0.175507
C6    C     C_R   0.735514 0.991331 0.451292 -0.154771
C7    C     C_R   0.612230 0.947605 0.462772 -0.180558
C8    C     C_R   0.566855 0.009526 0.500850 0.086221
C9    C     C_R   0.651576 0.114740 0.531188 0.090008
C10   C     C_R   0.440974 0.970310 0.511634 0.075545
C11   C     C_R   0.404597 0.032692 0.558325 0.160603
C12   C     C_R   0.999801 0.499688 0.668670 0.794904
C13   C     C_R   0.491835 0.126096 0.599161 -0.215927
C14   C     C_R   0.613683 0.166015 0.586535 -0.191343
C15   C     C_R   0.349979 0.870070 0.479770 -0.235411
C16   C     C_R   0.193529 0.897965 0.536823 -0.191311
C17   C     C_R   0.773726 0.164136 0.508922 -0.100615
C18   C     C_R   0.350211 0.344102 0.664325 -0.321462
C19   C     C_R   0.748418 0.635996 0.365897 0.265561
C20   C     C_R   0.633683 0.633230 0.322285 0.054366
C21   C     C_R   0.529485 0.556518 0.366486 0.183697
C22   C     C_R   0.541257 0.510508 0.462944 -0.102650
C23   C     C_R   0.145176 0.712831 0.489079 0.781467
C24   C     C_R   0.653066 0.503822 0.500835 0.222337
C25   C     C_R   0.443084 0.464973 0.520884 0.020793
C26   C     C_R   0.449784 0.397420 0.610057 0.172002
C27   C     C_R   0.556120 0.384798 0.644257 -0.296041
C28   C     C_R   0.654683 0.435392 0.590129 -0.138466
C29   C     C_R   0.341637 0.491091 0.496873 0.078920
C30   C     C_R   0.247376 0.363623 0.631739 0.083221
C31   C     C_R   0.000231 0.500343 0.331330 0.801197
C32   C     C_1   0.999766 0.499748 0.771073 -0.199649
C33   C     C_1   0.999825 0.499860 0.856523 -0.005293
C34   C     C_1   0.999997 0.500033 0.957266 0.009908
C35   C     C_1   0.000156 0.500181 0.042730 0.016960
C36   C     C_1   0.000282 0.500319 0.143469 0.016314
Cu1   Cu    Cu3+1 0.098280 0.475420 0.520190 0.950207
Cu2   Cu    Cu3+1 0.901720 0.524580 0.479810 0.924985
H1    H     H_    0.100007 0.868505 0.550772 0.151174
H2    H     H_    0.563161 0.334497 0.713416 0.144862
H3    H     H_    0.352334 0.288917 0.731557 0.141061
H4    H     H_    0.339231 0.556219 0.437955 0.150844
H5    H     H_    0.727790 0.414601 0.620497 0.182581
H6    H     H_    0.464886 0.166398 0.642634 0.149453
H7    H     H_    0.253655 0.046288 0.602942 0.137627
H8    H     H_    0.371226 0.817500 0.445179 0.135376
H9    H     H_    0.908559 0.134522 0.455503 0.162345
H10   H     H_    0.555656 0.864254 0.443256 0.127936
H11   H     H_    0.769046 0.942233 0.423491 0.140687
H12   H     H_    0.679428 0.234366 0.623683 0.132457
H13   H     H_    0.170006 0.323169 0.673423 0.130311
N1    N     N_R   0.246290 0.438200 0.550780 -0.183609
N2    N     N_R   0.754310 0.561180 0.449760 -0.219011
O1    O     O_R   0.972510 0.318130 0.525390 -0.577343
O2    O     O_R   0.806530 0.359650 0.491290 -0.567198
O3    O     O_R   0.083010 0.479240 0.641000 -0.559625
O4    O     O_R   0.917030 0.520750 0.606900 -0.581192
O5    O     O_R   0.193470 0.640350 0.508710 -0.576245
O6    O     O_R   0.027490 0.681870 0.474610 -0.587010
O7    O     O_R   0.082970 0.479250 0.393100 -0.534009
O8    O     O_R   0.916990 0.520760 0.359000 -0.584239
C37   C     C_3   0.861006 0.720769 0.315902 -0.324312
C38   C     C_3   0.904852 0.840503 0.339909 -0.863359
H14   H     H_    0.837571 0.875683 0.310106 0.247224
H15   H     H_    0.920331 0.838843 0.418796 0.257677
H16   H     H_    0.991845 0.898054 0.308568 0.249453
H17   H     H_    0.937917 0.699884 0.330167 0.249335
H18   H     H_    0.844806 0.720830 0.237513 0.150072
Br1   Br    Br    0.376615 0.491951 0.287147 -0.563312
C39   C     C_3   0.616721 0.707944 0.228498 -0.361492
C40   C     C_3   0.563385 0.786708 0.243803 -0.807493
H19   H     H_    0.473645 0.737790 0.272776 0.272184
H20   H     H_    0.626115 0.845366 0.294206 0.235147
H21   H     H_    0.551135 0.838432 0.174389 0.244770
H22   H     H_    0.700424 0.763801 0.193629 0.197686
H23   H     H_    0.555978 0.653324 0.174479 0.243560

loop_
_geom_bond_atom_site_label_1
_geom_bond_atom_site_label_2
_ccdc_geom_bond_type
C23   O5    A    
C30   H13   S    
C38   H15   S    
C29   H4    S    
C31   O8    A    
C19   C20   A    
C18   C26   A    
C9    C14   A    
C7    C8    A    
C23   O6    A    
C5    H9    S    
C26   C27   A    
Cu1   Cu2   S    
C37   H17   S    
C10   C15   A    
C5    C6    A    
C5    C17   A    
C19   C37   S    
C34   C35   T    
Cu1   O3    S    
Cu2   O2    S    
C35   C36   S    
C8    C9    A    
C22   C25   A    
C39   C40   S    
C18   C30   A    
Cu1   O5    S    
Cu2   O8    S    
C19   N2    A    
C38   H16   S    
C21   C22   A    
C12   C32   S    
C20   C39   S    
C25   C26   A    
C25   C29   A    
C18   H3    S    
C40   H20   S    
C4    C23   S    
C24   N2    A    
C3    H7    S    
C38   H14   S    
C21   Br1   S    
C2    C31   S    
C31   O7    A    
C4    C16   A    
C1    O1    A    
C37   C38   S    
Cu2   O4    S    
C27   H2    S    
C33   C34   S    
C12   O3    A    
C12   O4    A    
C9    C17   A    
C39   H23   S    
C22   C24   A    
Cu1   O1    S    
C27   C28   A    
C2    C36   T    
Cu1   N1    S    
C30   N1    A    
C24   C28   A    
C40   H21   S    
C6    C7    A    
C28   H5    S    
C1    C17   S    
C37   H18   S    
C7    H10   S    
C4    C15   A    
C1    O2    A    
C40   H19   S    
C32   C33   T    
C11   C13   A    
C14   H12   S    
Cu2   N2    S    
C6    H11   S    
Cu1   O7    S    
C3    C11   A    
C10   C11   A    
C16   H1    S    
Cu2   O6    S    
C20   C21   A    
C8    C10   A    
C39   H22   S    
C15   H8    S    
C13   C14   A    
C13   H6    S    
C3    C16   A    
C29   N1    A    
