data_mof_unit_3693.cif
_audit_creation_date              2012-12-11T17:23:57-0500
_audit_creation_method            fapswitch 2.2
_symmetry_space_group_name_H-M    P1
_symmetry_Int_Tables_number       1
_space_group_crystal_system       triclinic
_cell_length_a                    19.898462
_cell_length_b                    19.772634
_cell_length_c                    19.990386
_cell_angle_alpha                 110.58268
_cell_angle_beta                  107.60831
_cell_angle_gamma                 110.18726
_cell_volume                      6053.62959992

loop_
_atom_site_label
_atom_site_type_symbol
_atom_type_description
_atom_site_fract_x
_atom_site_fract_y
_atom_site_fract_z
_atom_type_partial_charge
C1    C     C_R   0.954819 0.691543 0.026352 -0.151351
C2    C     C_R   0.999194 0.270939 0.927706 -0.146318
C3    C     C_R   0.758174 0.288086 0.758261 -0.141247
C4    C     C_R   0.234606 0.771539 0.232301 -0.103914
C5    C     C_R   0.038943 0.501845 0.767591 -0.159376
C6    C     C_R   0.015903 0.499387 0.243819 -0.192386
C7    C     C_R   0.771297 0.502207 0.047074 0.004866
C8    C     C_R   0.241467 0.496467 0.027635 0.002058
C9    C     C_3   0.458331 0.424485 0.026980 0.458166
C10   C     C_3   0.584029 0.571944 0.153317 0.449086
C11   C     C_3   0.523170 0.489454 0.022387 0.532703
C12   C     C_3   0.519319 0.506449 0.158473 0.508695
C13   C     C_1   0.714861 0.505469 0.075258 0.016290
C14   C     C_1   0.314025 0.493050 0.053216 0.002413
C15   C     C_3   0.525287 0.434264 0.100922 -0.590901
C16   C     C_3   0.517591 0.561146 0.079211 -0.474090
C17   C     C_3   0.590524 0.501489 0.096387 -0.142087
C18   C     C_3   0.452677 0.495188 0.084633 -0.117683
C19   C     C_1   0.662162 0.505466 0.091473 0.133235
C20   C     C_1   0.376501 0.492677 0.071096 0.153517
C21   C     C_R   0.471375 0.060707 0.406854 0.387702
C22   C     C_R   0.480083 0.100112 0.560187 0.361715
C23   C     C_R   0.833721 0.301972 0.764591 0.540578
C24   C     C_R   0.160981 0.729027 0.227867 0.620143
C25   C     C_R   0.409764 0.006586 0.414219 -0.333122
C26   C     C_R   0.542598 0.153231 0.553428 -0.285297
C27   C     C_R   0.411651 0.028269 0.489846 0.346096
C28   C     C_R   0.536778 0.136293 0.476772 0.366949
C29   C     C_1   0.347086 0.925783 0.346162 0.159677
C30   C     C_1   0.619561 0.211271 0.625397 0.138021
C31   C     C_1   0.683751 0.249678 0.686074 -0.053252
C32   C     C_1   0.295683 0.855851 0.292602 0.001066
C33   C     C_R   0.141560 0.576493 0.598153 -0.146522
C34   C     C_R   0.065468 0.423985 0.453044 -0.145113
C35   C     C_R   0.103371 0.500486 0.594893 0.156689
C36   C     C_R   0.097456 0.499894 0.454621 0.159640
C37   C     C_R   0.068437 0.424281 0.523570 -0.187892
C38   C     C_R   0.138591 0.576195 0.527653 -0.191308
C39   C     C_1   0.084970 0.500538 0.658071 -0.055589
C40   C     C_1   0.073080 0.499348 0.379957 -0.051297
C41   C     C_1   0.047741 0.499225 0.317641 0.070846
C42   C     C_1   0.064728 0.500985 0.708535 0.107736
C43   C     C_R   0.833446 0.932071 0.890639 0.359872
C44   C     C_R   0.947801 0.889729 0.862576 0.347699
C45   C     C_R   0.069722 0.570556 0.842440 -0.191220
C46   C     C_R   0.965935 0.430138 0.166498 -0.115626
C47   C     C_R   0.892592 0.982676 0.878649 -0.313609
C48   C     C_R   0.895826 0.845693 0.885417 -0.315147
C49   C     C_R   0.948367 0.960676 0.862578 0.373058
C50   C     C_R   0.837458 0.865135 0.897665 0.354811
C51   C     C_1   0.906721 0.064728 0.897856 0.184073
C52   C     C_1   0.913776 0.792480 0.911397 0.177552
C53   C     C_1   0.936086 0.754162 0.938025 -0.076986
C54   C     C_1   0.926039 0.136418 0.920300 -0.083466
C55   C     C_R   0.773955 0.431698 0.005062 -0.096227
C56   C     C_R   0.236300 0.567453 0.039858 -0.027585
C57   C     C_R   0.999715 0.432306 0.771850 0.567885
C58   C     C_R   0.030966 0.568738 0.235550 0.554457
C59   C     C_R   0.841929 0.570680 0.070488 -0.174083
C60   C     C_R   0.164590 0.428266 0.974473 -0.150056
C61   C     C_R   0.766157 0.313566 0.834980 -0.131396
C62   C     C_R   0.228190 0.727237 0.158426 -0.200075
C63   C     C_R   0.023751 0.691570 0.956753 -0.042987
C64   C     C_R   0.927419 0.268498 0.993318 -0.068213
C65   C     C_R   0.969358 0.713830 0.972075 0.058057
C66   C     C_R   0.954630 0.223208 0.951002 0.066460
H1    H     H_    0.913802 0.698980 0.049411 0.111004
H2    H     H_    0.015941 0.248300 0.881308 0.084122
H3    H     H_    0.512778 0.611250 0.068781 0.187709
H4    H     H_    0.531089 0.384328 0.110893 0.182804
H5    H     H_    0.162279 0.634984 0.528594 0.128281
H6    H     H_    0.037793 0.365387 0.520789 0.131695
H7    H     H_    0.167530 0.635508 0.653127 0.146468
H8    H     H_    0.032539 0.364853 0.396179 0.144278
H9    H     H_    0.864656 0.634780 0.114822 0.103665
H10   H     H_    0.147762 0.363355 0.950698 0.119176
H11   H     H_    0.718220 0.311923 0.849738 0.133628
H12   H     H_    0.266318 0.753583 0.135610 0.180788
H13   H     H_    0.043930 0.698699 0.914305 0.098654
H14   H     H_    0.876508 0.240995 0.002530 0.150056
N1    N     N_R   0.999080 0.655880 0.043180 -0.064695
N2    N     N_R   0.000920 0.344120 0.956820 -0.049106
N3    N     N_R   0.887710 0.344150 0.844460 -0.107510
N4    N     N_R   0.112290 0.655850 0.155540 -0.121008
N5    N     N_R   0.043250 0.542980 0.887390 -0.086083
N6    N     N_R   0.956750 0.457020 0.112610 -0.090909
N7    N     N_R   0.843540 0.457050 0.000250 -0.055465
N8    N     N_R   0.156460 0.542950 0.999750 -0.055477
N9    N     N_R   0.000630 0.457060 0.844460 -0.123951
N10   N     N_R   0.999370 0.542940 0.155540 -0.112228
N11   N     N_R   0.886170 0.542970 0.043180 -0.050398
N12   N     N_R   0.113830 0.457030 0.956820 -0.067274
N13   N     N_R   0.844420 0.344140 0.887390 -0.057036
N14   N     N_R   0.155580 0.655860 0.112610 -0.069637
N15   N     N_R   0.042380 0.655890 0.000250 -0.028634
N16   N     N_R   0.957620 0.344110 0.999750 -0.047588
Ni1   Ni    Ni4+2 0.999230 0.598520 0.098470 0.203905
Ni2   Ni    Ni4+2 0.000770 0.401480 0.901530 0.208078
Ni3   Ni    Ni4+2 0.098520 0.598520 0.000000 0.255174
Ni4   Ni    Ni4+2 0.901480 0.401480 0.000000 0.262538
O1    O     O_3   0.387768 0.352104 0.956885 -0.664660
C67   C     C_3   0.388860 0.279506 0.951283 0.167184
H15   H     H_    0.378706 0.270070 0.999876 0.129796
H16   H     H_    0.447922 0.283809 0.957211 0.101464
C68   C     C_3   0.320479 0.204356 0.867748 -0.261949
H17   H     H_    0.261527 0.202092 0.857674 0.214280
H18   H     H_    0.333354 0.211525 0.819512 0.192844
C69   C     C_3   0.312924 0.122380 0.860653 -1.013646
H19   H     H_    0.370995 0.122917 0.869339 0.269476
H20   H     H_    0.263179 0.069261 0.799144 0.272826
H21   H     H_    0.297999 0.112957 0.907075 0.271841
O2    O     O_3   0.654180 0.647115 0.220430 -0.668698
C70   C     C_3   0.631489 0.705809 0.253401 0.204083
H22   H     H_    0.582116 0.679037 0.267628 0.133942
H23   H     H_    0.610348 0.726071 0.209740 0.120946
C71   C     C_3   0.705847 0.782494 0.332294 -0.271965
H24   H     H_    0.727557 0.763194 0.376584 0.199230
H25   H     H_    0.755916 0.809702 0.319244 0.210993
C72   C     C_3   0.685379 0.849136 0.370187 -1.019664
H26   H     H_    0.664924 0.870418 0.327440 0.272118
H27   H     H_    0.740559 0.903887 0.427306 0.271480
H28   H     H_    0.636343 0.823738 0.385028 0.273892
O3    O     O_3   0.587816 0.197897 0.468877 -0.609601
C73   C     C_3   0.660391 0.195811 0.479354 0.220063
H29   H     H_    0.650382 0.150908 0.419921 0.104616
H30   H     H_    0.681673 0.177353 0.524701 0.073272
C74   C     C_3   0.727095 0.283208 0.507819 -0.260171
H31   H     H_    0.708884 0.299344 0.459871 0.206418
H32   H     H_    0.733722 0.329885 0.564290 0.209348
C75   C     C_3   0.809380 0.288506 0.525373 -0.985355
H33   H     H_    0.832071 0.281038 0.578678 0.322375
H34   H     H_    0.854493 0.350861 0.540095 0.272294
H35   H     H_    0.803829 0.239275 0.471567 0.260694
O4    O     O_3   0.351412 0.974047 0.496491 -0.639849
C76   C     C_3   0.289946 0.995552 0.488400 0.257776
H36   H     H_    0.264913 0.993946 0.429516 0.086634
H37   H     H_    0.314747 0.059313 0.539844 0.114432
C77   C     C_3   0.220529 0.932339 0.490013 -0.256365
H38   H     H_    0.197605 0.868084 0.441174 0.249756
H39   H     H_    0.243977 0.935519 0.549707 0.197806
C78   C     C_3   0.149958 0.949575 0.477239 -1.050952
H40   H     H_    0.170869 0.012511 0.527043 0.273936
H41   H     H_    0.100161 0.901758 0.477398 0.272263
H42   H     H_    0.125408 0.946455 0.417735 0.272464
O5    O     O_3   0.467172 0.041645 0.331578 -0.616259
C79   C     C_3   0.498515 0.987405 0.312278 0.205981
H43   H     H_    0.454361 0.923409 0.295028 0.112167
H44   H     H_    0.557777 0.009976 0.364496 0.053398
C80   C     C_3   0.511921 0.981926 0.239685 -0.248151
H45   H     H_    0.452889 0.957840 0.186651 0.206138
H46   H     H_    0.555697 0.045455 0.255486 0.203964
C81   C     C_3   0.545594 0.923873 0.216070 -1.024794
H47   H     H_    0.502601 0.859794 0.199646 0.287960
H48   H     H_    0.605839 0.948193 0.267485 0.265445
H49   H     H_    0.553669 0.920399 0.162605 0.276373
O6    O     O_3   0.484595 0.120818 0.635800 -0.635658
C82   C     C_3   0.515109 0.077337 0.666707 0.240164
H50   H     H_    0.569474 0.080596 0.659572 0.064147
H51   H     H_    0.466685 0.010487 0.634656 0.137578
C83   C     C_3   0.540762 0.117283 0.757563 -0.283161
H52   H     H_    0.587049 0.184675 0.789314 0.212105
H53   H     H_    0.486810 0.112104 0.765938 0.203879
C84   C     C_3   0.577418 0.075612 0.796043 -0.976569
H54   H     H_    0.595661 0.106479 0.861964 0.285481
H55   H     H_    0.632486 0.081864 0.789712 0.271847
H56   H     H_    0.531799 0.008289 0.766318 0.262760
O7    O     O_3   0.784950 0.819017 0.917224 -0.641256
C85   C     C_3   0.817745 0.860305 0.002897 0.230987
H57   H     H_    0.808523 0.914856 0.023979 0.140821
H58   H     H_    0.884356 0.882559 0.035126 0.081976
C86   C     C_3   0.773310 0.799023 0.025392 -0.269300
H59   H     H_    0.706800 0.776402 0.994447 0.215494
H60   H     H_    0.782028 0.744195 0.004033 0.204262
C87   C     C_3   0.805366 0.839897 0.117346 -1.024919
H61   H     H_    0.871551 0.861845 0.149508 0.269095
H62   H     H_    0.772030 0.793557 0.131423 0.282977
H63   H     H_    0.795780 0.893902 0.139874 0.273634
O8    O     O_3   0.003726 0.008972 0.846898 -0.636803
C88   C     C_3   0.077656 0.069642 0.920549 0.263193
H64   H     H_    0.114523 0.040562 0.935533 0.136175
H65   H     H_    0.067147 0.097615 0.972817 0.077552
C89   C     C_3   0.125785 0.140035 0.909288 -0.306134
H66   H     H_    0.141637 0.114387 0.861132 0.210169
H67   H     H_    0.087124 0.165622 0.889134 0.201208
C90   C     C_3   0.203891 0.210930 0.988287 -1.015620
H68   H     H_    0.189122 0.237516 0.037088 0.276780
H69   H     H_    0.236205 0.261604 0.978228 0.283476
H70   H     H_    0.244982 0.187591 0.008277 0.266763
O9    O     O_3   0.779656 0.955315 0.907308 -0.645243
C91   C     C_3   0.701558 0.904411 0.837210 0.274492
H71   H     H_    0.655492 0.900589 0.858373 0.127477
H72   H     H_    0.686510 0.838611 0.800534 0.098455
C92   C     C_3   0.693536 0.944016 0.783786 -0.352505
H73   H     H_    0.708141 0.009140 0.821177 0.221182
H74   H     H_    0.737552 0.946301 0.760038 0.197831
C93   C     C_3   0.607400 0.894094 0.711652 -1.008933
H75   H     H_    0.593089 0.829799 0.671692 0.272770
H76   H     H_    0.603068 0.925522 0.675429 0.269608
H77   H     H_    0.561791 0.890172 0.733421 0.271395
O10   O     O_3   0.008262 0.873499 0.854947 -0.639235
C94   C     C_3   0.973504 0.802261 0.777854 0.209842
H78   H     H_    0.953996 0.816955 0.728889 0.110642
H79   H     H_    0.919788 0.747911 0.766778 0.090579
C95   C     C_3   0.037879 0.777704 0.774599 -0.240588
H80   H     H_    0.090469 0.829754 0.781828 0.207573
H81   H     H_    0.060385 0.766856 0.825758 0.207551
C96   C     C_3   0.003218 0.698320 0.694230 -1.004613
H82   H     H_    0.952142 0.644862 0.687039 0.265126
H83   H     H_    0.051764 0.682866 0.693793 0.292281
H84   H     H_    0.980812 0.707727 0.642047 0.261429
O11   O     O_3   0.846312 0.255769 0.704256 -0.623526
C97   C     C_3   0.799768 0.169286 0.676435 0.254308
H85   H     H_    0.735995 0.142501 0.629710 0.072372
H86   H     H_    0.797937 0.158174 0.727118 0.031276
C98   C     C_3   0.836538 0.120674 0.638630 -0.301044
H87   H     H_    0.899671 0.145117 0.684982 0.177850
H88   H     H_    0.799647 0.054008 0.619949 0.152163
C99   C     C_3   0.836848 0.124375 0.563718 -0.844092
H89   H     H_    0.774617 0.104129 0.518667 0.235879
H90   H     H_    0.856880 0.081914 0.534453 0.233289
H91   H     H_    0.880155 0.188755 0.581554 0.293195
O12   O     O_3   0.137367 0.767355 0.281273 -0.635734
C100  C     C_3   0.076837 0.783198 0.243678 0.196118
H92   H     H_    0.054028 0.802916 0.287053 0.144008
H93   H     H_    0.023229 0.725781 0.187955 0.085189
C101  C     C_3   0.111898 0.854808 0.227699 -0.347741
H94   H     H_    0.171793 0.906399 0.281566 0.213772
H95   H     H_    0.121633 0.831845 0.174136 0.203092
C102  C     C_3   0.055150 0.889814 0.211972 -0.993694
H96   H     H_    0.993639 0.839707 0.160132 0.261654
H97   H     H_    0.080743 0.938663 0.197162 0.276896
H98   H     H_    0.049296 0.918540 0.267091 0.262824
C103  C     C_2   0.138871 0.655161 0.876617 1.050277
O13   O     O_2   0.159348 0.675569 0.831763 -0.664450
O14   O     O_R   0.180332 0.712265 0.960363 -0.788587
H99   H     H_    0.224911 0.768544 0.976085 0.326846
C104  C     C_2   0.919373 0.344732 0.149761 1.004360
O15   O     O_2   0.954908 0.315101 0.180408 -0.649627
O16   O     O_R   0.834350 0.299980 0.103574 -0.778915
H100  H     H_    0.809014 0.242792 0.097934 0.324900
C105  C     C_2   0.723009 0.346939 0.989124 0.989856
O17   O     O_2   0.742912 0.294166 0.969348 -0.626531
O18   O     O_R   0.651766 0.326785 0.996001 -0.833631
H101  H     H_    0.621922 0.266726 0.982592 0.321853
C106  C     C_2   0.306980 0.649623 0.072567 0.957739
O19   O     O_2   0.369233 0.678591 0.135104 -0.666182
O20   O     O_R   0.304563 0.691904 0.029655 -0.785621
H102  H     H_    0.357270 0.746993 0.057533 0.320045
O21   O     O_3   0.981709 0.353392 0.718280 -0.640215
C107  C     C_3   0.035030 0.329898 0.755406 0.223160
H103  H     H_    0.010748 0.263120 0.712209 0.141174
H104  H     H_    0.034437 0.332666 0.811461 0.086799
C108  C     C_3   0.122161 0.380054 0.770466 -0.380715
H105  H     H_    0.119011 0.384562 0.715857 0.221281
H106  H     H_    0.153779 0.444423 0.823500 0.205268
C109  C     C_3   0.172178 0.338399 0.786803 -0.941261
H107  H     H_    0.173962 0.329057 0.838685 0.260237
H108  H     H_    0.235772 0.378633 0.801732 0.284186
H109  H     H_    0.145234 0.276650 0.731849 0.256686
O22   O     O_3   0.062703 0.649430 0.296691 -0.634169
C110  C     C_3   0.014059 0.653232 0.335650 0.205267
H110  H     H_    0.047434 0.717891 0.388688 0.137383
H111  H     H_    0.006680 0.611311 0.361276 0.089751
C111  C     C_3   0.930174 0.635813 0.279365 -0.362910
H112  H     H_    0.938804 0.679508 0.255884 0.194378
H113  H     H_    0.894086 0.570606 0.226806 0.202661
C112  C     C_3   0.881622 0.647035 0.324415 -0.962594
H114  H     H_    0.871046 0.603058 0.347681 0.263703
H115  H     H_    0.821440 0.633757 0.281998 0.286590
H116  H     H_    0.915077 0.712357 0.376294 0.259971
O23   O     O_3   0.528357 0.485327 0.952151 -0.645515
C113  C     C_3   0.517418 0.406989 0.901826 0.204779
H117  H     H_    0.451098 0.361890 0.859330 0.138138
H118  H     H_    0.542320 0.380642 0.937149 0.115439
C114  C     C_3   0.561203 0.417344 0.852048 -0.296139
H119  H     H_    0.533991 0.438713 0.812343 0.214602
H120  H     H_    0.626869 0.465666 0.894105 0.211768
C115  C     C_3   0.554611 0.335292 0.799150 -0.966657
H121  H     H_    0.583127 0.314098 0.838135 0.260063
H122  H     H_    0.587044 0.344788 0.763893 0.277939
H123  H     H_    0.489529 0.286042 0.755740 0.279798
O24   O     O_3   0.512662 0.516940 0.229260 -0.659549
C116  C     C_3   0.579717 0.521541 0.285961 0.219644
H124  H     H_    0.604940 0.577073 0.346292 0.118952
H125  H     H_    0.631237 0.530196 0.271842 0.112472
C117  C     C_3   0.550250 0.442978 0.292633 -0.288685
H126  H     H_    0.502694 0.437610 0.311923 0.217174
H127  H     H_    0.522540 0.386638 0.232103 0.200349
C118  C     C_3   0.620488 0.445827 0.354249 -0.999508
H128  H     H_    0.667929 0.449292 0.335117 0.268929
H129  H     H_    0.597058 0.388223 0.357922 0.281457
H130  H     H_    0.648414 0.501064 0.415647 0.266006

loop_
_geom_bond_atom_site_label_1
_geom_bond_atom_site_label_2
_ccdc_geom_bond_type
C44   C49   A    
C76   C77   S    
C86   H59   S    
C63   C65   A    
C82   H50   S    
N7    N11   A    
C116  H125  S    
C34   C37   A    
C64   H14   S    
C94   H78   S    
C6    C58   A    
C3    C23   A    
O16   H100  S    
C7    C55   A    
C5    C42   S    
C8    C56   A    
C90   H69   S    
C7    C13   S    
O5    C79   S    
C90   H68   S    
C28   O3    S    
N12   Ni2   S    
O3    C73   S    
C47   C49   A    
C63   H13   S    
C69   H19   S    
C86   H60   S    
C97   H85   S    
O24   C116  S    
O1    C67   S    
C57   N9    A    
N4    Ni1   S    
O6    C82   S    
C114  H120  S    
C45   C103  S    
C110  H111  S    
C70   H22   S    
C29   C32   T    
C2    H2    S    
C98   H88   S    
C6    C46   A    
C108  H105  S    
C4    C24   A    
C112  H116  S    
C61   N13   A    
C85   H58   S    
C56   N8    A    
C10   C17   S    
C1    N1    A    
O18   H101  S    
N3    N13   A    
C109  H109  S    
C4    C62   A    
C118  H130  S    
C71   H24   S    
C67   C68   S    
C76   H37   S    
C105  O17   D    
C46   C104  S    
C87   H61   S    
C91   C92   S    
C1    H1    S    
C89   H66   S    
C80   H45   S    
N5    N9    A    
C85   C86   S    
C11   C17   S    
C84   H54   S    
C61   H11   S    
C111  H112  S    
C92   H74   S    
C115  H123  S    
C109  H108  S    
C96   H84   S    
C1    C65   A    
O14   H99   S    
C81   H49   S    
C10   O2    S    
C75   H34   S    
C53   C65   S    
C103  O13   D    
N10   Ni1   S    
C34   C36   A    
C92   H73   S    
C9    C11   S    
C70   C71   S    
C107  C108  S    
C48   C50   A    
C82   H51   S    
C9    O1    S    
C106  O19   D    
C116  C117  S    
C55   N7    A    
C94   H79   S    
C80   H46   S    
O9    C91   S    
C93   H77   S    
C111  C112  S    
C18   C20   S    
C10   C12   S    
C7    C59   A    
O2    C70   S    
C68   C69   S    
C62   H12   S    
O8    C88   S    
C39   C42   T    
C79   H44   S    
C3    C61   A    
C25   C29   S    
C86   C87   S    
C100  C101  S    
N2    N16   A    
N2    Ni2   S    
C96   H82   S    
C83   C84   S    
C14   C20   T    
C76   H36   S    
C84   H56   S    
C64   N16   A    
C100  H92   S    
C93   H76   S    
C71   H25   S    
N6    N10   A    
C98   C99   S    
O7    C85   S    
C108  H106  S    
C13   C19   T    
C117  H126  S    
O10   C94   S    
C90   H70   S    
C59   N11   A    
C107  H103  S    
C49   O8    S    
C5    C45   A    
N3    Ni2   S    
C78   H42   S    
C79   H43   S    
C88   H64   S    
C58   O22   S    
C6    C41   S    
C78   H41   S    
C64   C66   A    
C45   N5    A    
C98   H87   S    
C74   H32   S    
C62   N14   A    
C102  H96   S    
N5    Ni3   S    
C43   C47   A    
C108  C109  S    
C79   C80   S    
C68   H18   S    
C11   C16   S    
C99   H90   S    
O11   C97   S    
C87   H63   S    
C97   C98   S    
C36   C40   S    
C112  H114  S    
C92   C93   S    
N8    N12   A    
C109  H107  S    
C114  C115  S    
C12   C18   S    
C118  H128  S    
O21   C107  S    
C69   H21   S    
N4    N14   A    
N11   Ni1   S    
C72   H26   S    
C3    C31   S    
C58   N10   A    
N13   Ni4   S    
C4    C32   S    
C72   H27   S    
C23   N3    A    
C34   H8    S    
C73   C74   S    
C63   N15   A    
C16   C18   S    
C85   H57   S    
C114  H119  S    
C81   H48   S    
C44   O10   S    
C12   C15   S    
C101  H95   S    
C22   C27   A    
C106  O20   S    
C22   O6    S    
C94   C95   S    
C115  H122  S    
C80   C81   S    
C75   H35   S    
C91   H71   S    
C113  H117  S    
C57   O21   S    
C74   H31   S    
C77   H39   S    
C111  H113  S    
C59   H9    S    
C50   O7    S    
N6    Ni4   S    
C52   C53   T    
C99   H91   S    
C73   H30   S    
N7    Ni4   S    
C68   H17   S    
C72   H28   S    
C33   H7    S    
C15   C17   S    
C15   H4    S    
C21   C25   A    
C38   H5    S    
C40   C41   T    
C8    C14   S    
C55   C105  S    
C117  C118  S    
C35   C37   A    
C70   H23   S    
C27   O4    S    
C11   O23   S    
C91   H72   S    
C21   C28   A    
C83   H53   S    
C16   H3    S    
C95   H81   S    
C93   H75   S    
C2    C66   A    
C77   C78   S    
C110  C111  S    
C47   C51   S    
O20   H102  S    
C100  H93   S    
C43   C50   A    
C26   C30   S    
O4    C76   S    
C54   C66   S    
C24   O12   S    
C82   C83   S    
C25   C27   A    
C101  C102  S    
C56   C106  S    
C26   C28   A    
C33   C38   A    
C71   C72   S    
C5    C57   A    
N9    Ni2   S    
C51   C54   T    
C83   H52   S    
C88   C89   S    
C104  O16   S    
C75   H33   S    
C9    C15   S    
C74   C75   S    
C96   H83   S    
C102  H97   S    
C10   C16   S    
C78   H40   S    
O22   C110  S    
C117  H127  S    
C112  H115  S    
C12   O24   S    
C99   H89   S    
C30   C31   T    
C69   H20   S    
C23   O11   S    
N14   Ni3   S    
C67   H16   S    
C113  C114  S    
N1    N15   A    
C35   C39   S    
N16   Ni4   S    
C36   C38   A    
C33   C35   A    
C87   H62   S    
C60   H10   S    
C95   C96   S    
N15   Ni3   S    
C24   N4    A    
C67   H15   S    
C89   H67   S    
N8    Ni3   S    
C2    N2    A    
C77   H38   S    
C97   H86   S    
C102  H98   S    
C17   C19   S    
C44   C48   A    
C9    C18   S    
C48   C52   S    
C95   H80   S    
C43   O9    S    
C113  H118  S    
C101  H94   S    
C22   C26   A    
C37   H6    S    
C103  O14   S    
C116  H124  S    
C110  H110  S    
N1    Ni1   S    
C115  H121  S    
C118  H129  S    
C84   H55   S    
C88   H65   S    
C81   H47   S    
C105  O18   S    
C104  O15   D    
C60   N12   A    
C107  H104  S    
O12   C100  S    
C89   C90   S    
C8    C60   A    
O23   C113  S    
C21   O5    S    
C73   H29   S    
C46   N6    A    
