data_mof_unit_2965.cif
_audit_creation_date              2012-12-10T18:42:29-0500
_audit_creation_method            fapswitch 2.2
_symmetry_space_group_name_H-M    P1
_symmetry_Int_Tables_number       1
_space_group_crystal_system       triclinic
_cell_length_a                    8.590289
_cell_length_b                    10.736754
_cell_length_c                    9.91754
_cell_angle_alpha                 89.976425
_cell_angle_beta                  98.199743
_cell_angle_gamma                 92.179304
_cell_volume                      904.695086384

loop_
_atom_site_label
_atom_site_type_symbol
_atom_type_description
_atom_site_fract_x
_atom_site_fract_y
_atom_site_fract_z
_atom_type_partial_charge
C1    C     C_R   0.503471 0.260191 0.500744 0.853207
C2    C     C_R   0.498294 0.739885 0.500102 0.852562
C3    C     C_R   0.201458 0.500104 0.464373 0.965949
C4    C     C_R   0.798518 0.504715 0.535015 0.973729
C5    C     C_2   0.036217 0.495445 0.445067 -0.392080
C6    C     C_2   0.963339 0.519217 0.550980 -0.404120
C7    C     C_R   0.518017 0.063958 0.382223 -0.218387
C8    C     C_R   0.496254 0.935904 0.624229 -0.197885
C9    C     C_R   0.504262 0.936747 0.379981 -0.209600
C10   C     C_R   0.499388 0.063825 0.624666 -0.191041
C11   C     C_R   0.498082 0.872513 0.501305 -0.003420
C12   C     C_R   0.508434 0.127698 0.502883 -0.007105
C13   C     C_R   0.604134 0.576124 0.085420 0.164901
C14   C     C_R   0.399088 0.421476 0.915269 0.159715
C15   C     C_R   0.603806 0.576166 0.940232 0.166720
C16   C     C_R   0.396258 0.423900 0.059657 0.164543
H1    H     H_    0.975220 0.466796 0.345645 0.165675
H2    H     H_    0.025091 0.550815 0.648404 0.174137
H3    H     H_    0.534267 0.111861 0.289407 0.161048
H4    H     H_    0.491026 0.887266 0.719316 0.148591
H5    H     H_    0.499089 0.889290 0.283622 0.165639
H6    H     H_    0.494855 0.112020 0.719779 0.145886
N1    N     N_R   0.499960 0.499970 0.857200 -0.134459
N2    N     N_R   0.500040 0.500030 0.142800 -0.137369
O1    O     O_R   0.499990 0.316750 0.614620 -0.615657
O2    O     O_R   0.500010 0.683250 0.385380 -0.603283
O3    O     O_R   0.499990 0.316780 0.385290 -0.605520
O4    O     O_R   0.500010 0.683220 0.614710 -0.621486
O5    O     O_R   0.271750 0.499990 0.587840 -0.588920
O6    O     O_R   0.728250 0.500010 0.412160 -0.608852
O7    O     O_R   0.271750 0.500010 0.358510 -0.614519
O8    O     O_R   0.728250 0.499990 0.641490 -0.599039
Zn1   Zn    Zn3+2 0.500000 0.499980 0.653120 0.967343
Zn2   Zn    Zn3+2 0.500000 0.500020 0.346880 0.968100
N3    N     N_2   0.719364 0.646778 0.173929 -0.239074
H7    H     H_    0.826786 0.606480 0.195810 0.221756
C17   C     C_3   0.726309 0.780905 0.160021 -0.796621
H8    H     H_    0.749708 0.823695 0.262958 0.250968
H9    H     H_    0.614579 0.815253 0.104663 0.219757
H10   H     H_    0.825276 0.810912 0.105447 0.221791
N4    N     N_2   0.306700 0.331101 0.831184 -0.242329
H11   H     H_    0.338855 0.240507 0.849272 0.209787
C18   C     C_3   0.138556 0.346161 0.808263 -0.749502
H12   H     H_    0.093864 0.325771 0.699885 0.254310
H13   H     H_    0.109637 0.441942 0.834545 0.223267
H14   H     H_    0.077592 0.279346 0.869935 0.208012
N5    N     N_2   0.711932 0.653170 0.879051 -0.237940
H15   H     H_    0.698125 0.747498 0.887976 0.215083
C19   C     C_3   0.873774 0.616223 0.900627 -0.778297
H16   H     H_    0.933953 0.645386 0.002388 0.214700
H17   H     H_    0.938012 0.662392 0.823875 0.229443
H18   H     H_    0.879248 0.513594 0.890552 0.243730
N6    N     N_2   0.279460 0.353776 0.118299 -0.241091
H19   H     H_    0.166667 0.384315 0.093665 0.214086
C20   C     C_3   0.290749 0.219637 0.121439 -0.765798
H20   H     H_    0.195902 0.174390 0.048369 0.210109
H21   H     H_    0.274260 0.185939 0.224229 0.252526
H22   H     H_    0.405965 0.190676 0.096060 0.216324

loop_
_geom_bond_atom_site_label_1
_geom_bond_atom_site_label_2
_ccdc_geom_bond_type
C14   N1    A    
C3    O7    A    
C20   H20   S    
C7    C9    A    
C17   H8    S    
C18   H13   S    
N4    H11   S    
C16   N2    A    
N6    C20   S    
N5    H15   S    
C13   C15   A    
C15   N5    S    
C18   H12   S    
C19   H18   S    
O8    Zn1   S    
C15   N1    A    
O7    Zn2   S    
C2    O2    A    
C8    H4    S    
N6    H19   S    
C10   H6    S    
C1    O1    A    
C9    C11   A    
C9    H5    S    
C4    O8    A    
C1    C12   S    
C10   C12   A    
C14   N4    S    
C2    C11   S    
C4    C6    S    
N3    C17   S    
O4    Zn1   S    
C13   N3    S    
C17   H10   S    
C7    H3    S    
C20   H21   S    
O3    Zn2   S    
C5    C6    D    
C6    H2    S    
C18   H14   S    
C14   C16   A    
C7    C12   A    
C5    H1    S    
C8    C11   A    
O5    Zn1   S    
C17   H9    S    
C3    O5    A    
N1    Zn1   S    
N5    C19   S    
C19   H16   S    
C20   H22   S    
C1    O3    A    
O6    Zn2   S    
C16   N6    S    
C2    O4    A    
C19   H17   S    
O2    Zn2   S    
C8    C10   A    
C4    O6    A    
N4    C18   S    
N3    H7    S    
C13   N2    A    
O1    Zn1   S    
C3    C5    S    
N2    Zn2   S    
