data_mof_unit_4510.cif
_audit_creation_date              2013-03-05T15:53:17-0500
_audit_creation_method            fapswitch 2.2
_symmetry_space_group_name_H-M    P1
_symmetry_Int_Tables_number       1
_space_group_crystal_system       triclinic
_cell_length_a                    11.517792
_cell_length_b                    10.682764
_cell_length_c                    9.978216
_cell_angle_alpha                 92.556107
_cell_angle_beta                  89.964
_cell_angle_gamma                 93.522037
_cell_volume                      1224.19729377

loop_
_atom_site_label
_atom_site_type_symbol
_atom_site_description
_atom_site_fract_x
_atom_site_fract_y
_atom_site_fract_z
_atom_type_partial_charge
O1    O     O_R   0.500000 0.316780 0.614690 -0.649376
O2    O     O_R   0.499990 0.316750 0.385360 -0.535812
C1    C     C_R   0.516562 0.263009 0.496889 0.905809
O3    O     O_R   0.334450 0.500030 0.614670 -0.634473
O4    O     O_R   0.334440 0.500000 0.385330 -0.598824
C2    C     C_R   0.282276 0.500717 0.500157 0.921698
Zn1   Zn    Zn3+2 0.500010 0.500020 0.653130 0.999260
Zn2   Zn    Zn3+2 0.499990 0.499980 0.346870 1.068196
O5    O     O_R   0.500010 0.683250 0.614640 -0.619827
O6    O     O_R   0.500000 0.683220 0.385310 -0.593622
O7    O     O_R   0.665560 0.500000 0.614670 -0.576502
O8    O     O_R   0.665550 0.499970 0.385330 -0.566548
C3    C     C_R   0.501204 0.741361 0.503636 0.905158
C4    C     C_R   0.717804 0.500682 0.500011 0.893270
C5    C     C_1   0.161706 0.500671 0.500287 -0.113555
C6    C     C_1   0.059396 0.500494 0.500220 0.074130
C7    C     C_1   0.940629 0.500364 0.500114 0.095091
C8    C     C_1   0.838334 0.500448 0.500015 -0.052742
C9    C     C_R   0.647016 0.149947 0.709128 -0.167439
H1    H     H_    0.683875 0.243443 0.691331 0.185132
C10   C     C_R   0.668781 0.099081 0.831627 0.351418
C11   C     C_R   0.620436 0.980218 0.857912 -0.109924
H2    H     H_    0.631271 0.942385 0.955686 0.211372
C12   C     C_R   0.559946 0.908058 0.757205 -0.136040
H3    H     H_    0.520401 0.820239 0.787535 0.201634
C13   C     C_R   0.550348 0.952257 0.625781 0.090745
C14   C     C_R   0.581780 0.079628 0.608739 -0.000020
C15   C     C_R   0.548116 0.134019 0.490291 -0.185086
C16   C     C_R   0.526592 0.058781 0.373557 0.326562
H4    H     H_    0.485950 0.877255 0.293235 0.211823
C17   C     C_R   0.506253 0.932466 0.384871 -0.187125
C18   C     C_R   0.512848 0.877545 0.509440 -0.160899
C19   C     C_R   0.299705 0.386879 0.125171 0.295928
C20   C     C_R   0.199582 0.365281 0.046132 -0.207430
H5    H     H_    0.118053 0.332257 0.090616 0.227164
C21   C     C_R   0.210036 0.352304 0.908546 0.263919
C22   C     C_R   0.317439 0.377533 0.850651 -0.135722
H6    H     H_    0.329278 0.342238 0.750004 0.222775
C23   C     C_R   0.407952 0.441939 0.923942 0.005007
C24   C     C_R   0.404940 0.442666 0.068210 0.039676
N1    N     N_R   0.498930 0.498800 0.142780 -0.164093
C25   C     C_R   0.591647 0.550535 0.074148 0.269321
C26   C     C_R   0.592774 0.547997 0.931256 0.235809
N2    N     N_R   0.498900 0.498720 0.857170 -0.173572
Br1   Br    Br    0.535624 0.116500 0.193832 -0.417023
Br2   Br    Br    0.081998 0.283158 0.801717 -0.397121
N3    N     N_R   0.696855 0.590552 0.865027 0.248471
O9    O     O_R   0.705045 0.700161 0.813383 -0.388608
O10   O     O_R   0.787387 0.523468 0.865346 -0.296587
Br3   Br    Br    0.763127 0.193866 0.962210 -0.323333
N4    N     N_R   0.687811 0.611200 0.146588 0.243300
O11   O     O_R   0.679755 0.724186 0.198321 -0.373979
O12   O     O_R   0.788099 0.561401 0.145158 -0.304894
Br4   Br    Br    0.286989 0.263847 0.259485 -0.422496

loop_
_geom_bond_atom_site_label_1
_geom_bond_atom_site_label_2
_geom_bond_distance
_ccdc_geom_bond_type
O4    Zn2   1.944781 S    
C26   N2    1.374409 A    
C21   Br2   1.911694 S    
C23   N2    1.366101 A    
C13   C18   1.430670 A    
C20   H5    1.084436 S    
C9    C14   1.413063 A    
N1    C25   1.369364 A    
C4    C8    1.388400 S    
C3    C18   1.451338 S    
C20   C21   1.379619 A    
C17   C18   1.402013 A    
C25   N4    1.428378 S    
Zn2   O8    1.945361 S    
C7    C8    1.178262 T    
N3    O10   1.301111 A    
O1    Zn1   1.977869 S    
C10   C11   1.390623 A    
C12   H3    1.073234 S    
Zn1   O7    1.944779 S    
C12   C13   1.420109 A    
C13   C14   1.404089 A    
C22   H6    1.068503 S    
C21   C22   1.381544 A    
O3    Zn1   1.945363 S    
O4    C2    1.293342 A    
Zn2   O6    1.977869 S    
C15   C16   1.398792 A    
C9    C10   1.388724 A    
O8    C4    1.292774 A    
C19   C20   1.399040 A    
O2    C1    1.294293 A    
H4    C17   1.083435 S    
C22   C23   1.401073 A    
O7    C4    1.292445 A    
C11   C12   1.398291 A    
C19   C24   1.444961 A    
C1    C15   1.445205 S    
C25   C26   1.424927 A    
N4    O11   1.300018 A    
C23   C24   1.439627 A    
N3    O9    1.298342 A    
C14   C15   1.405112 A    
Zn2   N1    2.035971 S    
C16   C17   1.364987 A    
O3    C2    1.291873 A    
C19   Br4   1.917888 S    
Zn1   O5    2.011463 S    
O5    C3    1.293309 A    
C11   H2    1.082708 S    
C10   Br3   1.911235 S    
C24   N1    1.402368 A    
N4    O12   1.300867 A    
C2    C5    1.388671 S    
Zn1   N2    2.036649 S    
C26   N3    1.428050 S    
C5    C6    1.178276 T    
O2    Zn2   2.011463 S    
C9    H1    1.083048 S    
C16   Br1   1.922904 S    
C6    C7    1.367852 S    
O1    C1    1.304218 A    
O6    C3    1.309016 A    
