data_mof_unit_3808.cif
_audit_creation_date              2012-12-10T17:47:45-0500
_audit_creation_method            fapswitch 2.2
_symmetry_space_group_name_H-M    P1
_symmetry_Int_Tables_number       1
_space_group_crystal_system       triclinic
_cell_length_a                    10.651305
_cell_length_b                    10.639029
_cell_length_c                    9.982232
_cell_angle_alpha                 90.448018
_cell_angle_beta                  90.062235
_cell_angle_gamma                 91.968436
_cell_volume                      1130.47885722

loop_
_atom_site_label
_atom_site_type_symbol
_atom_type_description
_atom_site_fract_x
_atom_site_fract_y
_atom_site_fract_z
_atom_type_partial_charge
C1    C     C_R   0.496914 0.260585 0.499055 0.830807
C2    C     C_R   0.383302 0.061649 0.549540 0.113121
C3    C     C_R   0.487980 0.127607 0.495396 -0.090751
C4    C     C_R   0.257918 0.498765 0.499954 0.791358
C5    C     C_R   0.586232 0.066198 0.434418 -0.179976
C6    C     C_R   0.587810 0.937759 0.437512 -0.188465
C7    C     C_R   0.491165 0.871118 0.501773 -0.085362
C8    C     C_R   0.339425 0.331620 0.138546 -0.125395
C9    C     C_R   0.258596 0.249612 0.068499 -0.188805
C10   C     C_R   0.257760 0.250242 0.929921 -0.164419
C11   C     C_R   0.338641 0.331966 0.860504 -0.115387
C12   C     C_3   0.878563 0.496066 0.501322 0.080617
C13   C     C_R   0.422741 0.415229 0.927559 0.072740
C14   C     C_R   0.422347 0.415736 0.071558 0.153791
C15   C     C_R   0.571350 0.582609 0.074541 -0.188808
C16   C     C_R   0.498139 0.739052 0.500564 0.881526
C17   C     C_R   0.568881 0.587685 0.932520 0.458508
C18   C     C_R   0.741935 0.498812 0.500352 0.838223
C19   C     C_3   0.071332 0.484753 0.645759 -0.401490
C20   C     C_3   0.929383 0.492694 0.647352 -0.320161
C21   C     C_3   0.075319 0.620797 0.438717 -0.416820
C22   C     C_3   0.068297 0.385068 0.414487 -0.365094
C23   C     C_3   0.931387 0.616971 0.432836 -0.472616
C24   C     C_3   0.121202 0.497262 0.499959 0.120097
C25   C     C_3   0.923895 0.377813 0.424014 0.273247
C26   C     C_R   0.273581 0.122350 0.589217 -0.208896
C27   C     C_R   0.171357 0.053896 0.641769 -0.124990
C28   C     C_R   0.178074 0.924607 0.658301 -0.138193
C29   C     C_R   0.284831 0.862839 0.616651 -0.161564
C30   C     C_R   0.386966 0.930470 0.557845 0.127851
H1    H     H_    0.112274 0.561140 0.711040 0.186489
H2    H     H_    0.665426 0.890083 0.391560 0.156906
H3    H     H_    0.626266 0.650827 0.132580 0.203325
H4    H     H_    0.098348 0.393099 0.688482 0.181440
H5    H     H_    0.332413 0.328427 0.244831 0.196429
H6    H     H_    0.194859 0.186628 0.122222 0.156233
H7    H     H_    0.192507 0.188382 0.876273 0.154930
H8    H     H_    0.330763 0.330938 0.754813 0.194394
H9    H     H_    0.888075 0.410796 0.702731 0.207809
H10   H     H_    0.904583 0.579095 0.702945 0.222665
H11   H     H_    0.107770 0.702472 0.500544 0.175417
H12   H     H_    0.884696 0.375131 0.320300 0.108751
H13   H     H_    0.895305 0.702104 0.483485 0.190215
H14   H     H_    0.096190 0.397341 0.307791 0.138550
H15   H     H_    0.107967 0.295495 0.447994 0.181443
H16   H     H_    0.745003 0.799054 0.699164 0.362530
H17   H     H_    0.794161 0.258829 0.484534 0.316260
H18   H     H_    0.113861 0.634515 0.336039 0.197521
H19   H     H_    0.900572 0.619162 0.326277 0.193624
H20   H     H_    0.662115 0.117617 0.385077 0.158206
H21   H     H_    0.264987 0.222096 0.575948 0.101693
H22   H     H_    0.087073 0.101421 0.670290 0.162454
H23   H     H_    0.099426 0.871618 0.700877 0.146099
H24   H     H_    0.285111 0.762069 0.628452 0.143449
N1    N     N_R   0.498810 0.498800 0.142780 -0.152239
N2    N     N_R   0.498760 0.498720 0.857170 -0.181397
O1    O     O_R   0.500000 0.316780 0.614690 -0.625497
O2    O     O_2   0.722471 0.791422 0.970262 -0.338325
O3    O     O_3   0.721264 0.712493 0.727672 -0.568224
O4    O     O_3   0.886869 0.266409 0.490286 -0.777388
O5    O     O_R   0.499990 0.316750 0.385360 -0.635586
O6    O     O_R   0.314800 0.499990 0.614670 -0.660072
O7    O     O_R   0.314790 0.499970 0.385330 -0.638732
O8    O     O_R   0.500010 0.683250 0.614640 -0.526769
O9    O     O_R   0.500000 0.683220 0.385310 -0.616067
O10   O     O_R   0.685210 0.500030 0.614670 -0.558482
O11   O     O_R   0.685200 0.500010 0.385330 -0.640132
O12   O     O_2   0.532062 0.817884 0.840404 -0.290218
S1    S     S_3+6 0.636657 0.730160 0.867349 0.029479
Zn1   Zn    Zn3+2 0.500010 0.500020 0.653130 1.000717
Zn2   Zn    Zn3+2 0.499990 0.499980 0.346870 0.937406

loop_
_geom_bond_atom_site_label_1
_geom_bond_atom_site_label_2
_ccdc_geom_bond_type
C25   H12   S    
C8    C9    A    
C11   H8    S    
C6    H2    S    
C28   H23   S    
O2    S1    D    
C17   S1    S    
C6    C7    A    
C25   O4    S    
O8    Zn1   S    
O1    Zn1   S    
C9    H6    S    
C9    C10   A    
C8    H5    S    
N2    Zn1   S    
C19   C20   S    
C12   C23   S    
C12   C25   S    
C2    C30   A    
C13   N2    A    
C19   H1    S    
C21   H18   S    
C2    C3    A    
C18   O11   A    
C2    C26   A    
C7    C30   A    
O10   Zn1   S    
C26   H21   S    
C15   N1    A    
C11   C13   A    
C17   N2    A    
O5    Zn2   S    
C26   C27   A    
C29   C30   A    
C22   H14   S    
C12   C20   S    
O3    S1    S    
C10   H7    S    
C20   H10   S    
C4    O7    A    
C7    C16   S    
C22   C25   S    
O7    Zn2   S    
C14   N1    A    
O11   Zn2   S    
C21   C23   S    
C5    C6    A    
C4    C24   S    
C22   C24   S    
C5    H20   S    
C23   H19   S    
C18   O10   A    
C10   C11   A    
C4    O6    A    
C21   H11   S    
C22   H15   S    
C23   H13   S    
C27   H22   S    
O6    Zn1   S    
H16   O3    S    
C29   H24   S    
C21   C24   S    
C12   C18   S    
C27   C28   A    
C15   C17   A    
C20   H9    S    
C28   C29   A    
C8    C14   A    
C16   O9    A    
C16   O8    A    
C13   C14   A    
C3    C5    A    
H17   O4    S    
O9    Zn2   S    
C19   C24   S    
C15   H3    S    
N1    Zn2   S    
C1    O5    A    
O12   S1    D    
C1    C3    S    
C19   H4    S    
C1    O1    A    
