data_mof_unit_4486.cif
_audit_creation_date              2012-12-10T18:07:30-0500
_audit_creation_method            fapswitch 2.2
_symmetry_space_group_name_H-M    P1
_symmetry_Int_Tables_number       1
_space_group_crystal_system       triclinic
_cell_length_a                    11.500675
_cell_length_b                    12.638105
_cell_length_c                    13.166981
_cell_angle_alpha                 82.301604
_cell_angle_beta                  91.574726
_cell_angle_gamma                 101.316948
_cell_volume                      1859.65250171

loop_
_atom_site_label
_atom_site_type_symbol
_atom_type_description
_atom_site_fract_x
_atom_site_fract_y
_atom_site_fract_z
_atom_type_partial_charge
C1    C     C_R   0.481588 0.438788 0.691449 0.831730
C2    C     C_R   0.427981 0.655803 0.895451 -0.216023
C3    C     C_R   0.415003 0.569735 0.838376 -0.184446
C4    C     C_R   0.717434 0.500157 0.500627 0.902445
C5    C     C_R   0.534214 0.525403 0.134495 -0.211159
C6    C     C_R   0.500321 0.702686 0.160540 -0.149255
C7    C     C_R   0.473528 0.401296 0.802625 -0.157527
C8    C     C_R   0.403311 0.118805 0.303423 0.039317
C9    C     C_R   0.626368 0.800438 0.641762 0.155077
C10   C     C_R   0.645108 0.906549 0.670884 -0.134819
C11   C     C_R   0.634214 0.991435 0.594598 0.014432
C12   C     C_R   0.519974 0.599087 0.200112 -0.062237
C13   C     C_R   0.551678 0.968753 0.515909 -0.025355
C14   C     C_R   0.516736 0.859882 0.494167 0.106092
C15   C     C_R   0.500395 0.050982 0.459477 -0.012045
C16   C     C_R   0.513829 0.560944 0.309109 0.904401
C17   C     C_R   0.451630 0.035245 0.361665 0.121411
C18   C     C_R   0.441437 0.932464 0.330323 -0.352233
C19   C     C_R   0.446348 0.843639 0.404719 -0.019948
C20   C     C_R   0.489466 0.145234 0.500729 -0.057208
C21   C     C_R   0.398048 0.211538 0.348588 -0.014207
C22   C     C_R   0.282485 0.499226 0.501091 0.905405
C23   C     C_R   0.501561 0.299702 0.844032 0.080101
C24   C     C_1   0.838267 0.500558 0.502139 -0.188104
C25   C     C_1   0.940664 0.500197 0.503191 -0.006340
C26   C     C_1   0.059275 0.498782 0.503464 0.016760
C27   C     C_1   0.161548 0.498111 0.502739 -0.160224
C28   C     C_R   0.477733 0.725577 0.056329 -0.154389
C29   C     C_3   0.355021 0.112049 0.195760 -0.439881
C30   C     C_3   0.224150 0.055296 0.198361 -0.338590
C31   C     C_3   0.176661 0.041295 0.090701 -0.856352
C32   C     C_3   0.698301 0.721898 0.699232 -0.333759
C33   C     C_3   0.832680 0.767818 0.693052 -0.393850
C34   C     C_R   0.569330 0.296168 0.933763 -0.219492
C35   C     C_3   0.903229 0.685731 0.746499 -0.809933
C36   C     C_3   0.734274 0.092115 0.581509 -0.352598
C37   C     C_3   0.795178 0.107197 0.476537 -0.365321
C38   C     C_3   0.902382 0.200575 0.468358 -0.854173
C39   C     C_2   0.674213 0.931579 0.778305 0.869695
C40   C     C_2   0.331929 0.767932 0.408687 0.976623
C41   C     C_3   0.469093 0.197779 0.791584 -0.382321
C42   C     C_3   0.415301 0.096599 0.866087 -0.359799
C43   C     C_3   0.365946 0.999878 0.808940 -0.848543
C44   C     C_2   0.692772 0.388370 0.063620 0.886172
C45   C     C_R   0.593278 0.385079 0.988870 -0.072403
C46   C     C_R   0.530292 0.471966 0.963456 -0.001350
C47   C     C_R   0.471516 0.480390 0.868212 0.051269
C48   C     C_R   0.521199 0.549612 0.029336 0.105581
C49   C     C_R   0.479534 0.646088 0.992009 0.191166
H1    H     H_    0.492528 0.762030 0.210639 0.182232
H2    H     H_    0.185319 0.121767 0.042791 0.258714
H3    H     H_    0.226049 0.989037 0.054386 0.259434
H4    H     H_    0.081469 0.001716 0.094973 0.263421
H5    H     H_    0.212813 0.973819 0.244825 0.237873
H6    H     H_    0.170871 0.104693 0.234447 0.224565
H7    H     H_    0.362912 0.195400 0.153205 0.202282
H8    H     H_    0.409127 0.070002 0.151933 0.211022
H9    H     H_    0.877993 0.664967 0.828646 0.281216
H10   H     H_    0.886407 0.610293 0.709271 0.255216
H11   H     H_    0.999484 0.721362 0.741334 0.257201
H12   H     H_    0.397927 0.916327 0.258536 0.176677
H13   H     H_    0.860040 0.787644 0.611259 0.233924
H14   H     H_    0.856068 0.843508 0.729325 0.238435
H15   H     H_    0.668355 0.697964 0.779703 0.239019
H16   H     H_    0.687801 0.645990 0.668684 0.261566
H17   H     H_    0.874046 0.277695 0.477542 0.274639
H18   H     H_    0.969067 0.184456 0.528114 0.260148
H19   H     H_    0.944138 0.209471 0.391852 0.252957
H20   H     H_    0.824917 0.031020 0.465159 0.227472
H21   H     H_    0.732453 0.125368 0.414025 0.244501
H22   H     H_    0.703931 0.167264 0.593551 0.209249
H23   H     H_    0.517512 0.157921 0.577537 0.128184
H24   H     H_    0.804439 0.082535 0.639821 0.229654
H25   H     H_    0.706722 0.045351 0.875206 0.347144
H26   H     H_    0.210496 0.668743 0.333333 0.335177
H27   H     H_    0.291755 0.017906 0.757995 0.259667
H28   H     H_    0.436239 0.981207 0.762057 0.274427
H29   H     H_    0.332144 0.927195 0.864967 0.240431
H30   H     H_    0.483436 0.072740 0.921100 0.230906
H31   H     H_    0.342298 0.115096 0.909987 0.229436
H32   H     H_    0.400650 0.207639 0.732109 0.227558
H33   H     H_    0.549592 0.183553 0.755171 0.231951
H34   H     H_    0.388960 0.725711 0.867771 0.151556
H35   H     H_    0.784921 0.304436 0.166919 0.346982
H36   H     H_    0.450804 0.801619 0.027634 0.140620
H37   H     H_    0.544623 0.444689 0.167010 0.155201
H38   H     H_    0.609499 0.226139 0.957441 0.185697
H39   H     H_    0.361249 0.574257 0.769699 0.176219
H40   H     H_    0.363168 0.277557 0.305627 0.143067
N1    N     N_R   0.440320 0.222190 0.444690 -0.120130
N2    N     N_R   0.559060 0.776980 0.554780 -0.144031
O1    O     O_R   0.471500 0.366730 0.627160 -0.626638
O2    O     O_R   0.691338 0.039014 0.799855 -0.841759
O3    O     O_2   0.264298 0.763403 0.480032 -0.630673
O4    O     O_R   0.294651 0.711692 0.325345 -0.842496
O5    O     O_2   0.757208 0.475196 0.075261 -0.615230
O6    O     O_R   0.714817 0.291686 0.118661 -0.822049
O7    O     O_R   0.509620 0.544830 0.662520 -0.639544
O8    O     O_R   0.646490 0.410960 0.482310 -0.600797
O9    O     O_R   0.684610 0.589050 0.517670 -0.629835
O10   O     O_R   0.490380 0.455170 0.337480 -0.630463
O11   O     O_R   0.528500 0.633270 0.372840 -0.610567
O12   O     O_R   0.315390 0.410950 0.482330 -0.615883
O13   O     O_R   0.353510 0.589040 0.517690 -0.587619
O14   O     O_2   0.675498 0.858894 0.849246 -0.637995
Zn1   Zn    Zn3+2 0.474550 0.381080 0.476390 0.935459
Zn2   Zn    Zn3+2 0.525450 0.618920 0.523610 0.950817

loop_
_geom_bond_atom_site_label_1
_geom_bond_atom_site_label_2
_ccdc_geom_bond_type
C42   H31   S    
C37   H20   S    
C41   C42   S    
C31   H3    S    
C9    N2    A    
H26   O4    S    
C21   H40   S    
C45   C46   A    
C43   H29   S    
C30   H5    S    
C26   C27   T    
C29   C30   S    
C35   H9    S    
H35   O6    S    
C11   C36   S    
C6    C12   A    
C30   C31   S    
C4    C24   S    
C38   H19   S    
O10   Zn1   S    
C22   O13   A    
C35   H10   S    
C18   C19   A    
C28   C49   A    
C39   O2    S    
C9    C32   S    
C6    C28   A    
C38   H17   S    
C33   H13   S    
C9    C10   A    
C36   H22   S    
C42   H30   S    
C13   C14   A    
H25   O2    S    
C2    H34   S    
C12   C16   S    
C8    C21   A    
C21   N1    A    
C15   C20   A    
C5    C48   A    
C46   C48   A    
N2    Zn2   S    
C24   C25   T    
N1    Zn1   S    
C5    C12   A    
C10   C11   A    
C31   H2    S    
C25   C26   S    
C20   N1    A    
C31   H4    S    
O7    Zn2   S    
C35   H11   S    
C7    C47   A    
C37   C38   S    
C44   O5    D    
C2    C49   A    
C44   O6    S    
C33   H14   S    
C23   C34   A    
C41   H32   S    
C17   C18   A    
O11   Zn2   S    
C34   C45   A    
C6    H1    S    
C32   H15   S    
C5    H37   S    
O1    Zn1   S    
C48   C49   A    
C29   H8    S    
C1    O1    A    
C22   C27   S    
C13   C15   A    
C42   C43   S    
C8    C29   S    
C40   O4    S    
C44   C45   S    
C16   O11   A    
C43   H27   S    
C39   O14   D    
O8    Zn1   S    
C46   C47   A    
C36   C37   S    
O9    Zn2   S    
C3    H39   S    
C1    C7    S    
C14   C19   A    
C20   H23   S    
C40   O3    D    
C1    O7    A    
C18   H12   S    
C15   C17   A    
C29   H7    S    
C43   H28   S    
C30   H6    S    
C8    C17   A    
C23   C41   S    
C32   C33   S    
C4    O9    A    
C2    C3    A    
C11   C13   A    
C7    C23   A    
C41   H33   S    
C3    C47   A    
C33   C35   S    
O12   Zn1   S    
C34   H38   S    
C14   N2    A    
C19   C40   S    
C22   O12   A    
C16   O10   A    
C38   H18   S    
C4    O8    A    
C28   H36   S    
C10   C39   S    
C37   H21   S    
C36   H24   S    
O13   Zn2   S    
C32   H16   S    
