data_mof_unit_260.cif
_audit_creation_date              2012-12-10T17:35:38-0500
_audit_creation_method            fapswitch 2.2
_symmetry_space_group_name_H-M    P1
_symmetry_Int_Tables_number       1
_space_group_crystal_system       triclinic
_cell_length_a                    10.706401
_cell_length_b                    12.311668
_cell_length_c                    13.158442
_cell_angle_alpha                 116.54451
_cell_angle_beta                  77.441163
_cell_angle_gamma                 101.351991
_cell_volume                      1504.60553957

loop_
_atom_site_label
_atom_site_type_symbol
_atom_type_description
_atom_site_fract_x
_atom_site_fract_y
_atom_site_fract_z
_atom_type_partial_charge
C1    C     C_R   0.509182 0.854941 0.286644 0.782446
C2    C     C_3   0.121889 0.999194 0.499411 0.128585
C3    C     C_3   0.074097 0.120534 0.593705 -0.382717
C4    C     C_3   0.040578 0.891371 0.523488 -0.359192
C5    C     C_R   0.359007 0.267816 0.031217 0.459465
C6    C     C_R   0.460255 0.227529 0.835915 -0.131579
C7    C     C_R   0.575322 0.817322 0.082817 -0.150055
C8    C     C_R   0.593754 0.739170 0.967015 -0.128111
C9    C     C_R   0.554151 0.614784 0.930768 -0.187543
C10   C     C_R   0.490027 0.565960 0.010329 0.112915
C11   C     C_R   0.456542 0.648583 0.126028 0.085740
C12   C     C_R   0.739957 0.999213 0.499419 0.756333
C13   C     C_R   0.457588 0.438198 0.978987 0.031856
C14   C     C_R   0.385007 0.395250 0.061095 0.032889
C15   C     C_R   0.337171 0.480672 0.169423 -0.111440
C16   C     C_R   0.369383 0.604666 0.200019 -0.220022
C17   C     C_R   0.497402 0.351877 0.868435 -0.244798
C18   C     C_R   0.394547 0.185321 0.917745 -0.246935
C19   C     C_R   0.509877 0.773079 0.163805 -0.116178
C20   C     C_R   0.698802 0.339288 0.317999 0.354887
C21   C     C_R   0.326372 0.759380 0.646371 0.080294
C22   C     C_R   0.289503 0.662662 0.678193 -0.238367
C23   C     C_R   0.482263 0.145073 0.713717 0.828221
C24   C     C_R   0.354942 0.559181 0.622507 -0.194232
C25   C     C_R   0.458971 0.550974 0.533573 0.031916
C26   C     C_R   0.493185 0.652715 0.504267 0.295202
C27   C     C_R   0.529939 0.446169 0.472758 -0.062542
C28   C     C_R   0.630966 0.443455 0.381439 0.062382
C29   C     C_R   0.662704 0.545138 0.356117 -0.190675
C30   C     C_R   0.596840 0.646876 0.416619 -0.222513
C31   C     C_R   0.504796 0.343134 0.498540 -0.009060
C32   C     C_R   0.668685 0.242349 0.349898 0.001852
C33   C     C_R   0.260037 0.999907 0.499752 0.751401
C34   C     C_3   0.956193 0.984210 0.380901 -0.362149
C35   C     C_3   0.100417 0.984506 0.380923 -0.343936
C36   C     C_3   0.929838 0.119948 0.593889 -0.365926
C37   C     C_3   0.897694 0.890732 0.523075 -0.366203
C38   C     C_3   0.877843 0.998433 0.499313 0.130023
Cu1   Cu    Cu3+1 0.529690 0.098270 0.475420 0.943332
Cu2   Cu    Cu3+1 0.470310 0.901730 0.524580 0.923379
H1    H     H_    0.944165 0.060333 0.361304 0.199617
H2    H     H_    0.053597 0.899577 0.608446 0.173830
H3    H     H_    0.874920 0.131462 0.679600 0.163078
H4    H     H_    0.089133 0.132707 0.679436 0.162638
H5    H     H_    0.368742 0.088163 0.892483 0.194004
H6    H     H_    0.273067 0.453294 0.231695 0.221387
H7    H     H_    0.556874 0.378882 0.804594 0.159608
H8    H     H_    0.614658 0.912357 0.109089 0.180162
H9    H     H_    0.573308 0.560361 0.839598 0.128178
H10   H     H_    0.642972 0.774591 0.905069 0.153502
H11   H     H_    0.920177 0.897301 0.311917 0.157740
H12   H     H_    0.322178 0.665191 0.281932 0.176892
H13   H     H_    0.718928 0.161913 0.303580 0.168367
H14   H     H_    0.740779 0.548915 0.289772 0.215974
H15   H     H_    0.430194 0.337495 0.566143 0.132768
H16   H     H_    0.275138 0.839336 0.690140 0.131404
H17   H     H_    0.321568 0.487123 0.650547 0.133786
H18   H     H_    0.209815 0.667864 0.746252 0.156532
H19   H     H_    0.631669 0.719433 0.391236 0.205030
H20   H     H_    0.134259 0.897633 0.312115 0.162411
H21   H     H_    0.157127 0.060631 0.361191 0.196279
H22   H     H_    0.916885 0.199011 0.579082 0.179579
H23   H     H_    0.130058 0.199527 0.578324 0.170996
H24   H     H_    0.842394 0.898145 0.607610 0.182383
H25   H     H_    0.861893 0.802064 0.455926 0.171283
H26   H     H_    0.072884 0.802691 0.456937 0.179878
N1    N     N_R   0.574690 0.246280 0.438200 -0.211479
N2    N     N_R   0.426100 0.754320 0.561190 -0.209542
O1    O     O_R   0.537340 0.972510 0.318130 -0.568712
O2    O     O_R   0.487200 0.806530 0.359650 -0.602738
O3    O     O_R   0.707380 0.082980 0.479220 -0.582803
O4    O     O_R   0.657240 0.917000 0.520740 -0.603797
O5    O     O_R   0.512800 0.193470 0.640350 -0.587882
O6    O     O_R   0.462660 0.027490 0.681870 -0.582320
O7    O     O_R   0.342760 0.083000 0.479260 -0.582415
O8    O     O_R   0.292620 0.917020 0.520780 -0.599686
S1    S     S_3+6 0.284311 0.208256 0.132996 -0.008375
O9    O     O_2   0.145913 0.233183 0.168632 -0.246501
O10   O     O_2   0.290047 0.072733 0.082527 -0.303555
O11   O     O_3   0.360791 0.277170 0.248928 -0.547575
H27   H     H_    0.312883 0.242150 0.302891 0.364948
S2    S     S_3+6 0.818091 0.324713 0.196949 -0.004950
O12   O     O_2   0.931746 0.418455 0.235185 -0.304922
O13   O     O_2   0.861448 0.199198 0.139586 -0.267148
O14   O     O_3   0.756273 0.348490 0.102421 -0.537073
H28   H     H_    0.828943 0.345261 0.040331 0.370276

loop_
_geom_bond_atom_site_label_1
_geom_bond_atom_site_label_2
_ccdc_geom_bond_type
C2    C35   S    
C20   S2    S    
C7    C8    A    
S1    O9    D    
C31   N1    A    
C11   C19   A    
C34   H11   S    
C29   C30   A    
Cu2   O2    S    
C28   C29   A    
C29   H14   S    
C15   C16   A    
C34   C35   S    
C33   O7    A    
C8    C9    A    
C37   H25   S    
Cu1   O7    S    
C9    C10   A    
C12   O4    A    
C21   C22   A    
C34   H1    S    
C23   O5    A    
C36   H22   S    
S1    O10   D    
C6    C18   A    
C3    H4    S    
C1    C19   S    
C27   C31   A    
C17   H7    S    
C9    H9    S    
C24   C25   A    
Cu1   Cu2   S    
C24   H17   S    
C5    C18   A    
C20   C28   A    
C25   C26   A    
O14   H28   S    
C1    O1    A    
Cu2   O8    S    
C35   H20   S    
C2    C4    S    
C37   C38   S    
C11   C16   A    
C33   O8    A    
C30   H19   S    
Cu1   O1    S    
C35   H21   S    
C5    C14   A    
C32   N1    A    
C2    C33   S    
C12   O3    A    
C26   C30   A    
S2    O13   D    
C21   N2    A    
C22   C24   A    
C23   O6    A    
C5    S1    S    
C18   H5    S    
C8    H10   S    
C32   H13   S    
C37   H24   S    
C20   C32   A    
S1    O11   S    
C6    C17   A    
Cu2   O4    S    
C34   C38   S    
Cu1   N1    S    
C16   H12   S    
O11   H27   S    
C10   C13   A    
C22   H18   S    
C21   H16   S    
C3    H23   S    
C25   C27   A    
S2    O14   S    
C7    C19   A    
C1    O2    A    
C13   C17   A    
C26   N2    A    
C7    H8    S    
C36   C38   S    
C2    C3    S    
C4    H26   S    
C4    H2    S    
C3    C36   S    
C6    C23   S    
Cu2   O6    S    
Cu1   O5    S    
C12   C38   S    
C10   C11   A    
C4    C37   S    
S2    O12   D    
Cu2   N2    S    
C27   C28   A    
Cu1   O3    S    
C14   C15   A    
C36   H3    S    
C15   H6    S    
C31   H15   S    
C13   C14   A    
