data_mof_unit_4038.cif
_audit_creation_date              2012-12-10T18:52:13-0500
_audit_creation_method            fapswitch 2.2
_symmetry_space_group_name_H-M    P1
_symmetry_Int_Tables_number       1
_space_group_crystal_system       triclinic
_cell_length_a                    15.733819
_cell_length_b                    10.712215
_cell_length_c                    9.843059
_cell_angle_alpha                 90.034003
_cell_angle_beta                  90.751634
_cell_angle_gamma                 90.096879
_cell_volume                      1658.84361161

loop_
_atom_site_label
_atom_site_type_symbol
_atom_type_description
_atom_site_fract_x
_atom_site_fract_y
_atom_site_fract_z
_atom_type_partial_charge
C1    C     C_R   0.499915 0.259886 0.499922 0.861787
C2    C     C_R   0.500054 0.740114 0.500077 0.861412
C3    C     C_R   0.517467 0.936027 0.379629 -0.197335
C4    C     C_R   0.482413 0.063972 0.620350 -0.197220
C5    C     C_R   0.500053 0.872555 0.500077 -0.009676
C6    C     C_R   0.499853 0.127443 0.499911 -0.009682
C7    C     C_R   0.549888 0.581770 0.073000 -0.072458
C8    C     C_R   0.450083 0.418265 0.926998 -0.070842
C9    C     C_R   0.549872 0.581729 0.929121 -0.075527
C10   C     C_R   0.450104 0.418300 0.070877 -0.075606
C11   C     C_R   0.337885 0.499993 0.499072 0.908114
C12   C     C_R   0.662125 0.500010 0.500940 0.907638
C13   C     C_3   0.973627 0.388978 0.541439 0.144032
C14   C     C_3   0.026461 0.614582 0.461149 0.186494
C15   C     C_3   0.026811 0.413171 0.413028 -0.251841
C16   C     C_3   0.972971 0.589886 0.589475 -0.249589
C17   C     C_1   0.249068 0.500752 0.496783 -0.196028
C18   C     C_1   0.750969 0.500079 0.503411 -0.192234
C19   C     C_3   0.030684 0.477639 0.625815 0.184204
C20   C     C_3   0.969480 0.525853 0.376441 0.187963
C21   C     C_3   0.083037 0.502597 0.498327 0.061397
C22   C     C_3   0.917087 0.500508 0.504061 0.018871
C23   C     C_1   0.173861 0.501609 0.495952 -0.058639
C24   C     C_1   0.826193 0.500223 0.505054 -0.070302
C25   C     C_R   0.517341 0.063892 0.379539 -0.200137
C26   C     C_R   0.482537 0.936104 0.620440 -0.200180
H1    H     H_    0.050827 0.341900 0.341232 0.150458
H2    H     H_    0.948575 0.661090 0.661021 0.150173
H3    H     H_    0.531457 0.112580 0.286013 0.156517
H4    H     H_    0.468420 0.887412 0.713963 0.156599
H5    H     H_    0.531679 0.887279 0.286154 0.152190
H6    H     H_    0.468202 0.112724 0.713823 0.152185
H7    H     H_    0.589780 0.647148 0.128350 0.123021
H8    H     H_    0.410169 0.352917 0.871647 0.124002
H9    H     H_    0.589758 0.647062 0.875461 0.126985
H10   H     H_    0.410202 0.352987 0.124536 0.126852
N1    N     N_R   0.499980 0.499970 0.857200 -0.079152
N2    N     N_R   0.500020 0.500030 0.142800 -0.078954
O1    O     O_R   0.499990 0.316750 0.614620 -0.628558
O2    O     O_R   0.500010 0.683250 0.385380 -0.628488
O3    O     O_R   0.500000 0.316780 0.385290 -0.629544
O4    O     O_R   0.500000 0.683220 0.614710 -0.629622
O5    O     O_R   0.376780 0.499970 0.614640 -0.614886
O6    O     O_R   0.623220 0.500030 0.385360 -0.616828
O7    O     O_R   0.376780 0.500000 0.385310 -0.612855
O8    O     O_R   0.623220 0.500000 0.614690 -0.612218
Zn1   Zn    Zn3+2 0.500000 0.499980 0.653120 0.946711
Zn2   Zn    Zn3+2 0.500000 0.500020 0.346880 0.945818
C27   C     C_3   0.938217 0.262258 0.585057 -0.401614
C28   C     C_3   0.007293 0.162751 0.594069 -0.882749
H11   H     H_    0.038677 0.151446 0.494465 0.257721
H12   H     H_    0.055671 0.187848 0.672287 0.253653
H13   H     H_    0.978339 0.072063 0.622666 0.252617
H14   H     H_    0.907373 0.272237 0.685322 0.204591
H15   H     H_    0.889294 0.231853 0.509598 0.212240
C29   C     C_3   0.062928 0.742303 0.423520 -0.396096
C30   C     C_3   0.993398 0.838924 0.398702 -0.881233
H16   H     H_    0.953970 0.813193 0.308859 0.262579
H17   H     H_    0.952255 0.847233 0.489057 0.257342
H18   H     H_    0.022979 0.931182 0.378969 0.250276
H19   H     H_    0.104556 0.775017 0.508407 0.207281
H20   H     H_    0.102633 0.733390 0.331715 0.205602
C31   C     C_3   0.927835 0.546168 0.236831 -0.390058
C32   C     C_3   0.993269 0.561919 0.125486 -0.896780
H21   H     H_    0.031636 0.647481 0.142516 0.265859
H22   H     H_    0.035940 0.479550 0.122000 0.261455
H23   H     H_    0.959905 0.570624 0.025881 0.255627
H24   H     H_    0.887451 0.463808 0.212265 0.207030
H25   H     H_    0.886001 0.629353 0.239996 0.205938
C33   C     C_3   0.067650 0.450943 0.767424 -0.404304
C34   C     C_3   0.112871 0.565020 0.827236 -0.876833
H26   H     H_    0.165309 0.595705 0.760718 0.269506
H27   H     H_    0.067444 0.643240 0.839813 0.255863
H28   H     H_    0.140351 0.541049 0.928311 0.254698
H29   H     H_    0.015391 0.422542 0.835599 0.205245
H30   H     H_    0.113778 0.373006 0.760943 0.209523

loop_
_geom_bond_atom_site_label_1
_geom_bond_atom_site_label_2
_ccdc_geom_bond_type
C16   H2    S    
C14   C29   S    
C17   C23   T    
C18   C24   T    
C14   C21   S    
C19   C21   S    
C30   H17   S    
C6    C25   A    
C27   H14   S    
C29   C30   S    
O2    Zn2   S    
C31   H24   S    
O3    Zn2   S    
C31   H25   S    
C28   H12   S    
C11   O5    A    
C33   C34   S    
N1    Zn1   S    
N2    Zn2   S    
C29   H20   S    
C7    H7    S    
C25   H3    S    
C15   C20   S    
C28   H13   S    
C13   C19   S    
C1    C6    S    
C32   H23   S    
C14   C20   S    
C3    C25   A    
C12   O8    A    
C4    C6    A    
C34   H27   S    
C30   H18   S    
C27   H15   S    
C31   C32   S    
C32   H22   S    
C15   H1    S    
C9    N1    A    
C28   H11   S    
C8    H8    S    
C3    H5    S    
C4    H6    S    
C13   C27   S    
C1    O3    A    
C20   C22   S    
C26   H4    S    
C13   C15   S    
C33   H30   S    
C22   C24   S    
C11   O7    A    
C2    C5    S    
C8    N1    A    
O1    Zn1   S    
O7    Zn2   S    
C7    C9    A    
O8    Zn1   S    
C11   C17   S    
C16   C22   S    
C3    C5    A    
C34   H28   S    
C4    C26   A    
C10   N2    A    
C32   H21   S    
C20   C31   S    
C21   C23   S    
C34   H26   S    
C12   O6    A    
C30   H16   S    
C2    O4    A    
C16   C19   S    
C7    N2    A    
C13   C22   S    
C14   C16   S    
O4    Zn1   S    
C1    O1    A    
C5    C26   A    
C2    O2    A    
C15   C21   S    
C8    C10   A    
C27   C28   S    
C12   C18   S    
C33   H29   S    
C9    H9    S    
C29   H19   S    
C19   C33   S    
C10   H10   S    
O5    Zn1   S    
O6    Zn2   S    
