data_mof_unit_1323.cif
_audit_creation_date              2012-12-11T15:17:36-0500
_audit_creation_method            fapswitch 2.2
_symmetry_space_group_name_H-M    P1
_symmetry_Int_Tables_number       1
_space_group_crystal_system       triclinic
_cell_length_a                    6.914219
_cell_length_b                    20.046531
_cell_length_c                    22.506129
_cell_angle_alpha                 89.991331
_cell_angle_beta                  89.935947
_cell_angle_gamma                 90.045497
_cell_volume                      3119.48392216

loop_
_atom_site_label
_atom_site_type_symbol
_atom_type_description
_atom_site_fract_x
_atom_site_fract_y
_atom_site_fract_z
_atom_type_partial_charge
O1    O     O_R   0.620180 0.810610 0.187990 -0.542007
O2    O     O_R   0.379820 0.189390 0.812010 -0.539841
O3    O     O_R   0.379820 0.189390 0.687990 -0.542754
O4    O     O_R   0.620180 0.810610 0.312010 -0.541969
O5    O     O_R   0.120180 0.689390 0.312010 -0.541983
O6    O     O_R   0.879820 0.310610 0.687990 -0.543358
O7    O     O_R   0.879820 0.310610 0.812010 -0.544608
O8    O     O_R   0.120180 0.689390 0.187990 -0.542029
O9    O     O_R   0.290420 0.818570 0.311590 -0.541775
O10   O     O_R   0.709580 0.181430 0.688410 -0.542401
O11   O     O_R   0.709580 0.181430 0.811590 -0.531231
O12   O     O_R   0.290420 0.818570 0.188410 -0.541663
O13   O     O_R   0.790420 0.681430 0.188410 -0.541796
O14   O     O_R   0.209580 0.318570 0.811590 -0.542039
O15   O     O_R   0.209580 0.318570 0.688410 -0.542751
O16   O     O_R   0.790420 0.681430 0.311590 -0.541824
C1    C     C_R   0.458552 0.833423 0.333210 0.721175
C2    C     C_R   0.541447 0.166579 0.666788 0.718941
C3    C     C_R   0.541212 0.167654 0.833909 0.717092
C4    C     C_R   0.458771 0.833383 0.166745 0.721057
C5    C     C_R   0.958611 0.666580 0.166787 0.721099
C6    C     C_R   0.041392 0.333398 0.833228 0.724659
C7    C     C_R   0.041514 0.333439 0.666799 0.717184
C8    C     C_R   0.958486 0.666561 0.333201 0.721146
H1    H     H_    0.769366 0.424893 0.648726 0.165124
H2    H     H_    0.230634 0.575107 0.351273 0.165356
H3    H     H_    0.230732 0.575074 0.148572 0.165335
H4    H     H_    0.769234 0.424854 0.851486 0.165162
H5    H     H_    0.274839 0.074751 0.851169 0.172929
H6    H     H_    0.732039 0.924659 0.148599 0.165788
H7    H     H_    0.731037 0.924904 0.351384 0.165334
H8    H     H_    0.268955 0.075104 0.648607 0.165560
H9    H     H_    0.572502 0.599602 0.518603 0.168246
H10   H     H_    0.427497 0.400398 0.481396 0.168137
H11   H     H_    0.426966 0.400126 0.018501 0.166488
H12   H     H_    0.572872 0.599725 0.981596 0.168308
H13   H     H_    0.074133 0.900951 0.981558 0.168467
H14   H     H_    0.929559 0.100073 0.019362 0.154363
H15   H     H_    0.927763 0.099726 0.481488 0.168145
H16   H     H_    0.072219 0.900288 0.518499 0.168246
O17   O     O_3   0.453640 0.707610 0.250000 -0.370298
O18   O     O_3   0.546360 0.292390 0.750000 -0.373990
O19   O     O_3   0.953640 0.792390 0.250000 -0.370216
O20   O     O_3   0.046360 0.207610 0.750000 -0.365194
V1    V     V_3+5 0.178800 0.757860 0.250000 1.396715
V2    V     V_3+5 0.821200 0.242140 0.750000 1.416649
V3    V     V_3+5 0.678800 0.742140 0.250000 1.396603
V4    V     V_3+5 0.321200 0.257860 0.750000 1.404165
C9    C     C_R   0.176504 0.383555 0.571469 0.151038
C10   C     C_R   0.823496 0.616445 0.428530 0.150975
C11   C     C_R   0.823840 0.616523 0.071508 0.151300
C12   C     C_R   0.176080 0.383368 0.928558 0.151043
C13   C     C_R   0.669179 0.121777 0.932192 0.168792
C14   C     C_R   0.325290 0.883499 0.071298 0.151157
C15   C     C_R   0.323507 0.883488 0.428518 0.151134
C16   C     C_R   0.676483 0.116522 0.571474 0.151079
C17   C     C_R   0.033385 0.381920 0.616749 -0.140389
C18   C     C_R   0.966614 0.618080 0.383251 -0.141404
C19   C     C_R   0.966900 0.618129 0.116713 -0.141286
C20   C     C_R   0.033074 0.381799 0.883334 -0.143025
C21   C     C_R   0.531705 0.120814 0.885156 -0.133197
C22   C     C_R   0.467815 0.881835 0.116641 -0.140622
C23   C     C_R   0.466781 0.881877 0.383281 -0.141360
C24   C     C_R   0.533215 0.118129 0.616712 -0.140762
C25   C     C_R   0.877603 0.426617 0.613928 -0.222908
C26   C     C_R   0.122396 0.573383 0.386072 -0.222918
C27   C     C_R   0.122546 0.573375 0.113832 -0.223281
C28   C     C_R   0.877399 0.426536 0.886232 -0.225361
C29   C     C_R   0.380018 0.074327 0.886809 -0.215275
C30   C     C_R   0.623979 0.926481 0.113829 -0.225586
C31   C     C_R   0.622681 0.926606 0.386146 -0.223007
C32   C     C_R   0.377310 0.073403 0.613845 -0.222564
C33   C     C_R   0.861905 0.473764 0.567833 0.096852
C34   C     C_R   0.138094 0.526236 0.432167 0.096924
C35   C     C_R   0.138094 0.526175 0.067769 0.096944
C36   C     C_R   0.861801 0.473706 0.932314 0.097166
C37   C     C_R   0.363586 0.027304 0.932898 0.091871
C38   C     C_R   0.639978 0.973853 0.067892 0.096063
C39   C     C_R   0.638305 0.973775 0.432226 0.096903
C40   C     C_R   0.361682 0.026236 0.567763 0.096718
C41   C     C_R   0.006268 0.476188 0.523252 -0.039498
C42   C     C_R   0.993732 0.523812 0.476747 -0.039424
C43   C     C_R   0.993759 0.523775 0.023276 -0.039653
C44   C     C_R   0.006125 0.476098 0.976811 -0.039854
C45   C     C_R   0.507524 0.024892 0.977438 -0.031019
C46   C     C_R   0.495696 0.976556 0.023432 -0.037075
C47   C     C_R   0.493772 0.976180 0.476753 -0.039400
C48   C     C_R   0.506215 0.023832 0.523236 -0.039434
C49   C     C_R   0.163257 0.431019 0.525077 0.076802
C50   C     C_R   0.836742 0.568981 0.474923 0.076931
C51   C     C_R   0.836965 0.569022 0.025146 0.076627
C52   C     C_R   0.162919 0.430849 0.974938 0.076149
C53   C     C_R   0.662138 0.071227 0.976466 0.048117
C54   C     C_R   0.338845 0.931201 0.025071 0.074933
C55   C     C_R   0.336699 0.930966 0.474897 0.076839
C56   C     C_R   0.663288 0.069046 0.525093 0.076780
C57   C     C_R   0.705224 0.518898 0.565762 0.187485
C58   C     C_R   0.294776 0.481102 0.434238 0.187320
C59   C     C_R   0.294573 0.480955 0.065651 0.187633
C60   C     C_R   0.705291 0.518910 0.934441 0.187709
C61   C     C_R   0.206758 0.982133 0.934837 0.188318
C62   C     C_R   0.796861 0.018960 0.065890 0.200071
C63   C     C_R   0.795070 0.018958 0.434331 0.187318
C64   C     C_R   0.204913 0.981055 0.565657 0.187402
C65   C     C_R   0.694418 0.565749 0.519543 -0.190277
C66   C     C_R   0.305581 0.434251 0.480456 -0.190567
C67   C     C_R   0.305198 0.434044 0.019478 -0.193182
C68   C     C_R   0.694655 0.565814 0.980616 -0.190258
C69   C     C_R   0.196284 0.934775 0.980653 -0.189787
C70   C     C_R   0.806442 0.066714 0.020371 -0.212209
C71   C     C_R   0.805779 0.065837 0.480524 -0.190696
C72   C     C_R   0.194204 0.934176 0.519464 -0.190366
N1    N     N_3   0.558232 0.517677 0.611066 -0.659524
H17   H     H_    0.459908 0.556706 0.605103 0.237285
H18   H     H_    0.479658 0.473576 0.605826 0.229643
N2    N     N_3   0.441767 0.482323 0.388934 -0.660023
H19   H     H_    0.540091 0.443294 0.394897 0.236966
H20   H     H_    0.520341 0.526424 0.394173 0.229782
N3    N     N_3   0.441545 0.482152 0.110860 -0.660576
H21   H     H_    0.539778 0.443092 0.104857 0.235782
H22   H     H_    0.520227 0.526229 0.105547 0.230016
N4    N     N_3   0.558311 0.517710 0.889234 -0.659364
H23   H     H_    0.460032 0.556754 0.895250 0.237353
H24   H     H_    0.479681 0.473621 0.894536 0.229874
N5    N     N_3   0.057935 0.984445 0.890224 -0.658024
H25   H     H_    0.958403 0.945735 0.896297 0.236181
H26   H     H_    0.981254 0.028838 0.896219 0.242417
N6    N     N_3   0.944870 0.017020 0.110760 -0.662174
H27   H     H_    0.043907 0.055908 0.104836 0.235791
H28   H     H_    0.022343 0.972817 0.104985 0.230004
N7    N     N_3   0.942248 0.017758 0.389086 -0.660097
H29   H     H_    0.040681 0.056801 0.395077 0.236932
H30   H     H_    0.020648 0.973668 0.394366 0.229815
N8    N     N_3   0.057733 0.982256 0.610901 -0.659080
H31   H     H_    0.959295 0.943215 0.604908 0.237299
H32   H     H_    0.979338 0.026347 0.605621 0.229763
N9    N     N_3   0.332687 0.336268 0.570778 -0.686964
H33   H     H_    0.424926 0.345869 0.606500 0.240635
H34   H     H_    0.276356 0.288010 0.574377 0.235262
N10   N     N_3   0.667312 0.663732 0.429221 -0.686709
H35   H     H_    0.575074 0.654131 0.393499 0.240927
H36   H     H_    0.723644 0.711991 0.425622 0.235531
N11   N     N_3   0.667790 0.663862 0.070866 -0.686718
H37   H     H_    0.575335 0.654262 0.106602 0.240981
H38   H     H_    0.724220 0.712103 0.074456 0.235519
N12   N     N_3   0.332108 0.336018 0.929198 -0.691118
H39   H     H_    0.424584 0.345613 0.893466 0.240143
H40   H     H_    0.275654 0.287781 0.925598 0.236174
N13   N     N_3   0.810432 0.174658 0.937524 -0.670221
H41   H     H_    0.778810 0.214665 0.909677 0.229732
H42   H     H_    0.794787 0.195568 0.979821 0.222340
N14   N     N_3   0.169176 0.836106 0.070452 -0.686596
H43   H     H_    0.076574 0.845533 0.106174 0.240735
H44   H     H_    0.225569 0.787884 0.073989 0.235465
N15   N     N_3   0.167178 0.836172 0.429176 -0.686737
H45   H     H_    0.075017 0.845781 0.393445 0.240976
H46   H     H_    0.223357 0.787924 0.425580 0.235501
N16   N     N_3   0.832810 0.163839 0.570816 -0.687041
H47   H     H_    0.924973 0.154230 0.606547 0.240575
H48   H     H_    0.776627 0.212086 0.574415 0.235076

loop_
_geom_bond_atom_site_label_1
_geom_bond_atom_site_label_2
_ccdc_geom_bond_type
N16   H48   S    
C47   C48   A    
C48   C56   A    
O9    V1    S    
C9    N9    S    
C30   C38   A    
C29   C37   A    
C37   C61   A    
C2    C24   S    
N6    H27   S    
C36   C44   A    
C31   C39   A    
C41   C42   A    
C25   C33   A    
C34   C58   A    
C45   C46   A    
C15   N15   S    
N9    H34   S    
O11   C3    A    
C64   N8    S    
C40   C64   A    
H4    C28   S    
N10   H36   S    
N1    H17   S    
C62   N6    S    
C55   C72   A    
N13   H42   S    
C6    C20   S    
C10   N10   S    
C38   C62   A    
C61   C69   A    
N11   H37   S    
C26   C34   A    
O3    V4    S    
C9    C17   A    
N2    H19   S    
C22   C30   A    
O3    C2    A    
C63   C71   A    
O18   V2    S    
C33   C41   A    
H5    C29   S    
O8    V1    S    
C16   N16   S    
C12   C20   A    
C19   C27   A    
C13   C21   A    
C18   C26   A    
O20   V2    S    
C47   C55   A    
C49   C66   A    
O10   V2    S    
C61   N5    S    
C16   C24   A    
C58   C66   A    
H14   C70   S    
C46   C54   A    
H13   C69   S    
C53   C70   A    
C41   C49   A    
C38   C46   A    
O15   C7    A    
C37   C45   A    
O16   C8    A    
C13   N13   S    
C39   C63   A    
C45   C53   A    
O15   V4    S    
C34   C42   A    
O16   V3    S    
C39   C47   A    
H6    C30   S    
C10   C50   A    
N12   H40   S    
N3    H22   S    
O10   C2    A    
C56   C71   A    
C60   C68   A    
C13   C53   A    
H2    C26   S    
O7    V2    S    
C36   C60   A    
H9    C65   S    
N10   H35   S    
C15   C55   A    
C17   C25   A    
O13   V3    S    
O1    V3    S    
C14   N14   S    
C14   C22   A    
O2    V4    S    
O5    V1    S    
C32   C40   A    
C15   C23   A    
C10   C18   A    
C33   C57   A    
C4    C22   S    
C52   C67   A    
C58   N2    S    
C43   C44   A    
O12   C4    A    
C35   C59   A    
O8    C5    A    
O17   V3    S    
O13   C5    A    
H3    C27   S    
O18   V4    S    
N14   H43   S    
N5    H26   S    
N15   H46   S    
O19   V1    S    
C7    C17   S    
O4    C1    A    
O9    C1    A    
C23   C31   A    
N16   H47   S    
C12   C52   A    
C27   C35   A    
C57   N1    S    
N7    H29   S    
C59   C67   A    
C64   C72   A    
N12   H39   S    
N14   H44   S    
C21   C29   A    
N11   H38   S    
O1    C4    A    
C12   N12   S    
O6    V2    S    
O2    C3    A    
C51   C68   A    
C50   C65   A    
C9    C49   A    
O12   V1    S    
N7    H30   S    
N6    H28   S    
N8    H32   S    
N3    H21   S    
C5    C19   S    
N8    H31   S    
C11   N11   S    
C28   C36   A    
O7    C6    A    
C43   C51   A    
N9    H33   S    
C54   C69   A    
C42   C50   A    
O14   C6    A    
C63   N7    S    
C57   C65   A    
C40   C48   A    
O17   V1    S    
N13   H41   S    
C1    C23   S    
H16   C72   S    
C35   C43   A    
N5    H25   S    
O5    C8    A    
O19   V3    S    
C3    C21   S    
C62   C70   A    
O6    C7    A    
H15   C71   S    
N2    H20   S    
H10   C66   S    
C60   N4    S    
C24   C32   A    
C16   C56   A    
C14   C54   A    
H11   C67   S    
C59   N3    S    
C11   C19   A    
H12   C68   S    
C20   C28   A    
C8    C18   S    
N15   H45   S    
C11   C51   A    
H1    C25   S    
O14   V4    S    
O11   V2    S    
C44   C52   A    
N1    H18   S    
N4    H23   S    
N4    H24   S    
O20   V4    S    
H7    C31   S    
H8    C32   S    
O4    V3    S    
