data_mof_unit_4164.cif
_audit_creation_date              2012-12-11T14:33:09-0500
_audit_creation_method            fapswitch 2.2
_symmetry_space_group_name_H-M    P1
_symmetry_Int_Tables_number       1
_space_group_crystal_system       triclinic
_cell_length_a                    7.020286
_cell_length_b                    14.341585
_cell_length_c                    17.997553
_cell_angle_alpha                 113.597741
_cell_angle_beta                  95.29139
_cell_angle_gamma                 90.844939
_cell_volume                      1650.77698563

loop_
_atom_site_label
_atom_site_type_symbol
_atom_type_description
_atom_site_fract_x
_atom_site_fract_y
_atom_site_fract_z
_atom_type_partial_charge
O1    O     O_R   0.484560 0.544530 0.414330 -0.542664
O2    O     O_R   0.197040 0.638810 0.585080 -0.495503
O3    O     O_R   0.026800 0.455470 0.585670 -0.526756
C1    C     C_R   0.372495 0.684762 0.596662 0.857749
O4    O     O_R   0.155000 0.556150 0.414940 -0.539823
O5    O     O_R   0.984450 0.372220 0.414320 -0.553630
C2    C     C_R   0.318389 0.565497 0.387028 0.665621
O6    O     O_R   0.526900 0.627780 0.585680 -0.466609
O7    O     O_3   0.339170 0.439750 0.499990 -0.366306
V1    V     V_3+5 0.064350 0.511180 0.500000 1.585464
O8    O     O_R   0.654880 0.361190 0.414920 -0.562817
C3    C     C_R   0.817426 0.325919 0.387576 0.698618
O9    O     O_R   0.696930 0.443850 0.585060 -0.508352
C4    C     C_R   0.872760 0.434932 0.613665 0.711984
V2    V     V_3+5 0.564340 0.488820 0.500000 1.607480
O10   O     O_3   0.839390 0.560250 0.500010 -0.313443
C5    C     C_R   0.041819 0.878047 0.822409 -0.048365
C6    C     C_R   0.902633 0.405096 0.685780 -0.068828
C7    C     C_R   0.923968 0.864002 0.680282 0.396783
C8    C     C_R   0.987853 0.817900 0.735952 -0.322489
C9    C     C_R   0.046763 0.988449 0.845589 -0.077330
C10   C     C_R   0.970764 0.034628 0.790673 -0.020388
C11   C     C_R   0.888121 0.967566 0.713033 0.015816
C12   C     C_R   0.967948 0.143402 0.805815 0.005198
C13   C     C_R   0.896637 0.173760 0.740805 0.067916
C14   C     C_R   0.785625 0.103453 0.674548 -0.191367
C15   C     C_R   0.768114 0.005491 0.665989 -0.057275
C16   C     C_R   0.024728 0.223286 0.881388 -0.069528
C17   C     C_R   0.025327 0.325641 0.889910 -0.071951
C18   C     C_R   0.987957 0.351358 0.822264 0.030302
C19   C     C_R   0.919976 0.275374 0.746117 0.109108
C20   C     C_R   0.012964 0.452438 0.830171 -0.167783
C21   C     C_R   0.971021 0.478668 0.763214 -0.053860
C22   C     C_R   0.878319 0.303355 0.677796 -0.225619
H1    H     H_    0.665687 0.957237 0.616484 0.200843
H2    H     H_    0.836733 0.246756 0.616982 0.100213
H3    H     H_    0.992788 0.557250 0.772012 0.168574
H4    H     H_    0.057142 0.385829 0.950109 0.182788
H5    H     H_    0.987942 0.735822 0.712255 0.153533
H6    H     H_    0.098863 0.037740 0.907682 0.173535
H7    H     H_    0.699853 0.123525 0.630792 0.133120
H8    H     H_    0.063172 0.207726 0.934632 0.195257
H9    H     H_    0.067232 0.511490 0.888470 0.150432
H10   H     H_    0.082881 0.236286 0.284969 0.140191
C23   C     C_2   0.116239 0.039924 0.179217 -0.331720
C24   C     C_2   0.949587 0.080604 0.211922 0.128387
H11   H     H_    0.690141 0.175074 0.322724 0.133860
C25   C     C_2   0.814146 0.222208 0.325362 -0.322982
C26   C     C_2   0.957539 0.186467 0.276990 -0.150386
H12   H     H_    0.248864 0.087130 0.200563 0.110133
C27   C     C_R   0.406353 0.800191 0.658083 -0.144322
C28   C     C_R   0.528824 0.470997 0.828901 -0.230885
C29   C     C_R   0.540720 0.910763 0.796171 0.432894
C30   C     C_R   0.523202 0.817590 0.728511 -0.223162
C31   C     C_R   0.344083 0.893431 0.651405 -0.178419
C32   C     C_R   0.388464 0.995271 0.718645 0.002805
C33   C     C_R   0.482955 0.999084 0.791612 -0.069693
C34   C     C_R   0.363959 0.094183 0.716325 0.038443
C35   C     C_R   0.427771 0.189558 0.787529 -0.061848
C36   C     C_R   0.482086 0.183667 0.862853 0.370400
C37   C     C_R   0.527396 0.091046 0.860242 -0.162268
C38   C     C_R   0.291235 0.100715 0.643935 -0.149495
C39   C     C_R   0.291839 0.193592 0.637819 -0.187444
C40   C     C_R   0.368801 0.282793 0.702912 0.042334
C41   C     C_R   0.443597 0.283789 0.778371 0.112487
C42   C     C_R   0.372424 0.371663 0.691449 -0.226074
C43   C     C_R   0.442850 0.464023 0.754147 0.470568
C44   C     C_R   0.539304 0.377803 0.838306 -0.206979
H13   H     H_    0.605518 0.094406 0.915488 0.247805
H14   H     H_    0.630022 0.380188 0.890223 0.208078
H15   H     H_    0.234664 0.195332 0.580342 0.116867
H16   H     H_    0.596084 0.755502 0.732525 0.237793
H17   H     H_    0.274521 0.887209 0.593933 0.151918
H18   H     H_    0.236496 0.034470 0.590564 0.155792
H19   H     H_    0.315409 0.367651 0.632332 0.172929
H20   H     H_    0.340990 0.668862 0.193534 0.151382
H21   H     H_    0.600306 0.573845 0.295908 0.134273
C45   C     C_2   0.314530 0.607694 0.322280 -0.059520
C46   C     C_2   0.470254 0.605771 0.281025 -0.099335
H22   H     H_    0.764198 0.624422 0.197522 0.125947
C47   C     C_2   0.630992 0.649770 0.178649 -0.305210
C48   C     C_2   0.472317 0.644121 0.214427 -0.111484
O11   O     O_R   0.421600 0.630430 0.917010 -0.501251
O12   O     O_R   0.793840 0.702190 0.087630 -0.566571
O13   O     O_R   0.964010 0.886170 0.088190 -0.545963
C49   C     C_R   0.629823 0.691007 0.114184 0.692858
O14   O     O_R   0.751460 0.619510 0.917500 -0.537206
O15   O     O_R   0.921330 0.802900 0.916840 -0.466392
C50   C     C_R   0.573606 0.577036 0.897461 0.836839
O16   O     O_R   0.464290 0.713700 0.088350 -0.557646
O17   O     O_3   0.609200 0.818520 0.002630 -0.315138
V3    V     V_3+5 0.884140 0.747190 0.002530 1.536953
O18   O     O_R   0.251150 0.814630 0.917340 -0.464066
C51   C     C_R   0.074531 0.827840 0.888352 0.848297
O19   O     O_R   0.293530 0.897310 0.087470 -0.560984
C52   C     C_R   0.128200 0.934426 0.114888 0.723490
V4    V     V_3+5 0.384070 0.769710 0.002370 1.592547
O20   O     O_3   0.109180 0.698190 0.002460 -0.409534
C53   C     C_3   0.754077 0.021408 0.192140 -0.237053
C54   C     C_3   0.747150 0.959336 0.244595 -0.323107
C55   C     C_3   0.546540 0.942722 0.264846 -0.800613
H23   H     H_    0.556555 0.907094 0.309559 0.224307
H24   H     H_    0.456886 0.890505 0.209834 0.241448
H25   H     H_    0.477331 0.016209 0.292086 0.220131
H26   H     H_    0.807151 0.884873 0.211952 0.191483
H27   H     H_    0.837785 0.999058 0.303572 0.197896
H28   H     H_    0.635389 0.073573 0.202111 0.144176
H29   H     H_    0.712436 0.975780 0.126894 0.192255
S1    S     S_3+6 0.445135 0.568758 0.732493 -0.064542
O21   O     O_2   0.649124 0.608903 0.744588 -0.391716
O22   O     O_2   0.366803 0.531199 0.646607 -0.352077
O23   O     O_3   0.302321 0.655589 0.787550 -0.519103
H30   H     H_    0.270980 0.696022 0.755381 0.325311
S2    S     S_3+6 0.587618 0.909132 0.890597 -0.034730
O24   O     O_2   0.581169 0.797138 0.869924 -0.282637
O25   O     O_2   0.775372 0.962715 0.934145 -0.409370
O26   O     O_3   0.422429 0.973670 0.951108 -0.532031
H31   H     H_    0.484912 0.997978 0.007731 0.352488
S3    S     S_3+6 0.495684 0.280056 0.965389 -0.078705
O27   O     O_2   0.395041 0.374776 0.974125 -0.382611
O28   O     O_2   0.409376 0.234782 0.017788 -0.337874
O29   O     O_3   0.727372 0.312251 0.001403 -0.534045
H32   H     H_    0.725840 0.363431 0.058044 0.362850
C56   C     C_3   0.132921 0.655924 0.305904 -0.366838
C57   C     C_3   0.160285 0.772876 0.343158 -0.306714
C58   C     C_3   0.967939 0.821339 0.348289 -0.701712
H33   H     H_    0.895040 0.798912 0.286197 0.204121
H34   H     H_    0.874510 0.795067 0.383344 0.292819
H35   H     H_    0.990133 0.905558 0.378329 0.221617
H36   H     H_    0.238661 0.800981 0.405189 0.201021
H37   H     H_    0.246550 0.798894 0.305717 0.187244
H38   H     H_    0.088222 0.626362 0.239458 0.161150
H39   H     H_    0.011420 0.633369 0.331647 0.205318
S4    S     S_3+6 0.886118 0.805946 0.567857 -0.069182
O30   O     O_2   0.916198 0.887780 0.536830 -0.407636
O31   O     O_2   0.682734 0.765212 0.540420 -0.364392
O32   O     O_3   0.022460 0.717217 0.512991 -0.469647
H40   H     H_    0.120762 0.751504 0.495417 0.310763

loop_
_geom_bond_atom_site_label_1
_geom_bond_atom_site_label_2
_ccdc_geom_bond_type
H10   C26   S    
C34   C38   A    
C31   C32   A    
C13   C19   A    
O18   C51   A    
O19   C52   A    
C4    C6    S    
O2    C1    A    
C7    C8    A    
C1    O6    A    
S4    O32   S    
S2    O24   D    
V3    O20   S    
C23   C24   D    
C7    S4    S    
C53   H29   S    
C24   C26   S    
C54   H26   S    
C55   H23   S    
C56   H39   S    
C16   C17   A    
C47   C48   D    
O12   C49   A    
S1    O22   D    
O5    C3    A    
C18   C19   A    
O13   C52   A    
V2    O10   S    
C5    C8    A    
C32   C33   A    
C56   H38   S    
C36   S3    S    
O8    V2    S    
C57   H36   S    
C43   S1    S    
H11   C25   S    
C17   H4    S    
O1    V2    S    
C11   C15   A    
C45   C56   S    
O7    V1    S    
O16   V4    S    
C27   C31   A    
C47   C49   S    
C28   C44   A    
C3    C25   S    
H21   C46   S    
C42   C43   A    
C35   C36   A    
C55   H24   S    
O9    C4    A    
C28   C50   S    
O23   H30   S    
O13   V3    S    
V4    O20   S    
S3    O28   D    
O11   C50   A    
O15   C51   A    
C1    C27   S    
O15   V3    S    
C12   C13   A    
C49   O16   A    
S1    O23   S    
H20   C48   S    
O17   V3    S    
O4    C2    A    
C8    H5    S    
C29   C33   A    
C45   C46   D    
S4    O31   D    
C58   H35   S    
C15   H1    S    
C34   C35   A    
C29   C30   A    
C21   H3    S    
C36   C37   A    
C40   C42   A    
C7    C11   A    
C17   C18   A    
C57   H37   S    
C53   C54   S    
S3    O27   D    
C41   C44   A    
C38   C39   A    
O26   H31   S    
C14   C15   A    
C19   C22   A    
O17   V4    S    
C6    C22   A    
O3    C4    A    
C2    C45   S    
C25   C26   D    
C39   H15   S    
O6    V2    S    
O14   C50   A    
C57   C58   S    
C10   C12   A    
O2    V1    S    
O18   V4    S    
O14   V3    S    
C29   S2    S    
S3    O29   S    
C37   H13   S    
C58   H34   S    
O1    C2    A    
C12   C16   A    
C28   C43   A    
H22   C47   S    
O5    V1    S    
C46   C48   S    
S2    O25   D    
O8    C3    A    
O19   V4    S    
C33   C37   A    
S4    O30   D    
C55   H25   S    
C53   H28   S    
O32   H40   S    
C54   H27   S    
C27   C30   A    
C20   C21   A    
C24   C53   S    
O9    V2    S    
C13   C14   A    
O4    V1    S    
O3    V1    S    
V1    O10   S    
S1    O21   D    
C35   C41   A    
C18   C20   A    
C9    H6    S    
C23   H12   S    
C58   H33   S    
C42   H19   S    
C40   C41   A    
C16   H8    S    
C54   C55   S    
C20   H9    S    
C32   C34   A    
C22   H2    S    
O7    V2    S    
C6    C21   A    
C5    C9    A    
S2    O26   S    
C39   C40   A    
C31   H17   S    
C30   H16   S    
C44   H14   S    
O11   V4    S    
C10   C11   A    
C38   H18   S    
C5    C51   S    
O12   V3    S    
O29   H32   S    
C9    C10   A    
C23   C52   S    
C14   H7    S    
C56   C57   S    
