data_mof_unit_3143.cif
_audit_creation_date              2012-12-10T20:45:35-0500
_audit_creation_method            fapswitch 2.2
_symmetry_space_group_name_H-M    P1
_symmetry_Int_Tables_number       1
_space_group_crystal_system       triclinic
_cell_length_a                    10.867873
_cell_length_b                    10.629411
_cell_length_c                    10.020183
_cell_angle_alpha                 89.332579
_cell_angle_beta                  90.863236
_cell_angle_gamma                 89.296356
_cell_volume                      1157.22269676

loop_
_atom_site_label
_atom_site_type_symbol
_atom_type_description
_atom_site_fract_x
_atom_site_fract_y
_atom_site_fract_z
_atom_type_partial_charge
C1    C     C_R   0.495971 0.261107 0.500337 0.899713
C2    C     C_R   0.827613 0.449192 0.973609 0.073850
C3    C     C_R   0.840505 0.315970 0.978805 0.055342
C4    C     C_R   0.260046 0.505379 0.498333 0.908952
C5    C     C_R   0.896199 0.253326 0.872119 -0.020995
C6    C     C_R   0.931162 0.321479 0.759568 0.615782
C7    C     C_R   0.907443 0.451711 0.748441 -0.012499
C8    C     C_R   0.546579 0.062525 0.602730 0.013862
C9    C     C_R   0.485965 0.129458 0.502070 -0.164028
C10   C     C_R   0.414890 0.067917 0.405800 -0.285256
C11   C     C_R   0.416211 0.937458 0.404287 0.582882
C12   C     C_R   0.185915 0.450954 0.983115 0.617368
C13   C     C_R   0.488180 0.871398 0.500013 -0.221016
C14   C     C_R   0.546305 0.934324 0.603585 0.005119
C15   C     C_3   0.676858 0.924955 0.655089 -0.081049
C16   C     C_R   0.497211 0.739186 0.499295 0.929694
C17   C     C_3   0.677646 0.069021 0.650287 -0.127166
C18   C     C_R   0.532674 0.395637 0.072238 0.216284
C19   C     C_R   0.477745 0.607458 0.069865 -0.186545
C20   C     C_R   0.477793 0.607524 0.926847 -0.056523
C21   C     C_R   0.534024 0.395696 0.931524 0.220916
C22   C     C_3   0.479544 0.267732 0.927975 -0.484779
C23   C     C_R   0.934733 0.448954 0.392818 0.604113
C24   C     C_3   0.477967 0.268751 0.080002 -0.528879
C25   C     C_R   0.739709 0.492771 0.501855 0.892060
C26   C     C_R   0.171467 0.567948 0.044980 0.038898
C27   C     C_R   0.131730 0.573153 0.176992 -0.000857
C28   C     C_R   0.110126 0.460336 0.248000 0.102650
C29   C     C_R   0.122560 0.344333 0.184784 -0.161554
C30   C     C_R   0.158648 0.338915 0.051936 -0.056976
C31   C     C_R   0.873087 0.483663 0.506529 -0.234511
C32   C     C_R   0.940048 0.514681 0.621717 -0.066256
C33   C     C_R   0.062729 0.548476 0.607904 0.140619
C34   C     C_R   0.126156 0.509797 0.494433 -0.203865
C35   C     C_R   0.059703 0.465465 0.383148 -0.095234
C36   C     C_R   0.855597 0.516512 0.856216 -0.005319
F1    F     F_    0.225962 0.445963 0.856288 -0.652703
F2    F     F_    0.988000 0.259846 0.659110 -0.650385
F3    F     F_    0.351322 0.876764 0.308346 -0.694285
F4    F     F_    0.874127 0.391451 0.293685 -0.683529
H1    H     H_    0.362632 0.120249 0.330268 0.176556
H2    H     H_    0.101036 0.258184 0.237960 0.197989
H3    H     H_    0.741659 0.295400 0.149793 0.271137
H4    H     H_    0.747578 0.169611 0.057443 0.133692
H5    H     H_    0.838734 0.071912 0.884046 0.157217
H6    H     H_    0.969904 0.098886 0.966084 0.225309
H7    H     H_    0.744061 0.890616 0.464458 0.200109
H8    H     H_    0.850794 0.885162 0.589221 0.216886
H9    H     H_    0.732781 0.103651 0.454798 0.197868
H10   H     H_    0.756077 0.221482 0.561010 0.207856
H11   H     H_    0.113732 0.735912 0.970751 0.181595
H12   H     H_    0.683046 0.885008 0.758064 0.151717
H13   H     H_    0.259679 0.733567 0.025834 0.216406
H14   H     H_    0.019161 0.698682 0.267634 0.166856
H15   H     H_    0.168737 0.703263 0.318542 0.239193
H16   H     H_    0.182699 0.228164 0.886548 0.259416
H17   H     H_    0.231375 0.162747 0.033225 0.190792
H18   H     H_    0.159816 0.702736 0.653553 0.160530
H19   H     H_    0.054070 0.668186 0.763382 0.169940
H20   H     H_    0.888035 0.696451 0.909542 0.161043
H21   H     H_    0.834305 0.684606 0.751632 0.210767
H22   H     H_    0.863039 0.572610 0.119571 0.206723
H23   H     H_    0.684653 0.113566 0.749079 0.134249
H24   H     H_    0.718351 0.579018 0.060853 0.190798
H25   H     H_    0.459208 0.694271 0.121349 0.194495
H26   H     H_    0.457991 0.694303 0.872980 0.152467
H27   H     H_    0.387736 0.267666 0.879089 0.253065
H28   H     H_    0.544700 0.196615 0.889230 0.181101
H29   H     H_    0.385843 0.272304 0.124815 0.217988
H30   H     H_    0.541041 0.197790 0.127115 0.200078
N1    N     N_R   0.499160 0.499140 0.142800 -0.108385
N2    N     N_3   0.121335 0.626845 0.704758 -0.329733
N3    N     N_3   0.825885 0.648834 0.848333 -0.461818
N4    N     N_3   0.789435 0.517128 0.088661 -0.363350
N5    N     N_R   0.499160 0.499180 0.857150 -0.076240
N6    N     N_3   0.801901 0.243021 0.092221 -0.372773
N7    N     N_3   0.921287 0.120226 0.877944 -0.388824
N8    N     N_3   0.760573 0.861425 0.563176 -0.460511
N9    N     N_3   0.761434 0.123748 0.552287 -0.366150
N10   N     N_3   0.194784 0.681896 0.972524 -0.412578
N11   N     N_3   0.110233 0.693880 0.235769 -0.435237
N12   N     N_3   0.162972 0.218965 0.987826 -0.452622
O1    O     O_R   0.500020 0.316790 0.614690 -0.619522
O2    O     O_R   0.500000 0.316760 0.385350 -0.630614
O3    O     O_R   0.316770 0.500030 0.614670 -0.514324
O4    O     O_R   0.316750 0.499990 0.385330 -0.632510
O5    O     O_R   0.500000 0.683240 0.614650 -0.633197
O6    O     O_R   0.499980 0.683210 0.385310 -0.592521
O7    O     O_R   0.683250 0.500010 0.614670 -0.628559
O8    O     O_R   0.683230 0.499970 0.385330 -0.562984
Zn1   Zn    Zn3+2 0.500010 0.500020 0.653130 1.000032
Zn2   Zn    Zn3+2 0.499990 0.499980 0.346870 0.974685

loop_
_geom_bond_atom_site_label_1
_geom_bond_atom_site_label_2
_ccdc_geom_bond_type
C25   C31   S    
O5    Zn1   S    
C29   H2    S    
C18   C21   A    
C7    C36   A    
C19   N1    A    
C19   C20   A    
H10   N9    S    
O3    Zn1   S    
C24   H30   S    
C1    O2    A    
C25   O8    A    
C18   C24   S    
C20   H26   S    
C28   C29   A    
C5    C6    A    
C15   N8    S    
C4    O4    A    
C23   F4    S    
H20   N3    S    
C17   N9    S    
C34   C35   A    
H8    N8    S    
C12   F1    S    
H4    N6    S    
H11   N10   S    
C33   N2    S    
N1    Zn2   S    
O6    Zn2   S    
C28   C35   S    
C8    C9    A    
C16   O5    A    
C6    F2    S    
O7    Zn1   S    
C9    C10   A    
C2    N4    S    
N5    Zn1   S    
H19   N2    S    
C13   C14   A    
C10   H1    S    
C24   H29   S    
C4    C34   S    
C27   N11   S    
H13   N10   S    
C1    C9    S    
C36   N3    S    
C4    O3    A    
H21   N3    S    
C26   N10   S    
H9    N9    S    
C20   N5    A    
C12   C26   A    
C23   C31   A    
C30   N12   S    
C29   C30   A    
O8    Zn2   S    
C31   C32   A    
C33   C34   A    
C26   C27   A    
C15   H12   S    
C11   F3    S    
C3    N6    S    
C22   H28   S    
C23   C35   A    
C22   C24   S    
H15   N11   S    
C5    N7    S    
C2    C36   A    
C18   N1    A    
C15   C17   S    
C8    C14   A    
C7    C32   S    
C12   C30   A    
C14   C15   S    
H22   N4    S    
C3    C5    A    
H6    N7    S    
H16   N12   S    
C6    C7    A    
C1    O1    A    
O1    Zn1   S    
C21   N5    A    
C25   O7    A    
C8    C17   S    
C32   C33   A    
C2    C3    A    
O4    Zn2   S    
C17   H23   S    
C11   C13   A    
H18   N2    S    
C19   H25   S    
C22   H27   S    
C10   C11   A    
C13   C16   S    
C27   C28   A    
C16   O6    A    
H24   N4    S    
H17   N12   S    
H3    N6    S    
H5    N7    S    
O2    Zn2   S    
H7    N8    S    
C21   C22   S    
H14   N11   S    
