data_mof_unit_454.cif
_audit_creation_date              2012-10-26T21:00:17-0400
_audit_creation_method            fapswitch 2.2
_symmetry_space_group_name_H-M    P1
_symmetry_Int_Tables_number       1
_space_group_crystal_system       triclinic
_cell_length_a                    19.359669
_cell_length_b                    8.769895
_cell_length_c                    7.422542
_cell_angle_alpha                 102.666391
_cell_angle_beta                  94.548165
_cell_angle_gamma                 92.574607
_cell_volume                      1223.15693549

loop_
_atom_site_label
_atom_site_type_symbol
_atom_type_description
_atom_site_fract_x
_atom_site_fract_y
_atom_site_fract_z
_atom_type_partial_charge
C1    C     C_R   0.498566 0.200412 0.454473 0.558158
C2    C     C_R   0.809755 0.419285 0.338158 0.400506
C3    C     C_R   0.146422 0.495722 0.509509 -0.036958
C4    C     C_R   0.853660 0.505786 0.489970 -0.036661
C5    C     C_R   0.175902 0.407079 0.357113 -0.165905
C6    C     C_R   0.824145 0.593401 0.642946 -0.166121
C7    C     C_R   0.247793 0.407566 0.351415 0.052631
C8    C     C_R   0.752253 0.592327 0.648886 0.052462
C9    C     C_R   0.291642 0.495494 0.503526 -0.013205
C10   C     C_R   0.708406 0.504933 0.496407 -0.012016
C11   C     C_R   0.929914 0.503759 0.493920 0.362408
C12   C     C_R   0.501545 0.799306 0.545948 0.596003
C13   C     C_R   0.070178 0.498071 0.505424 0.362662
C14   C     C_3   0.273094 0.385816 0.034801 -0.222175
C15   C     C_3   0.727206 0.610759 0.964967 -0.221215
C16   C     C_3   0.603193 0.956357 0.255806 -0.281083
C17   C     C_3   0.399853 0.059701 0.751956 -0.271717
C18   C     C_2   0.506070 0.035606 0.431482 0.108000
C19   C     C_2   0.495466 0.963930 0.572018 0.129942
C20   C     C_R   0.367518 0.498235 0.501405 0.588370
C21   C     C_R   0.632498 0.501812 0.498588 0.586638
C22   C     C_R   0.262239 0.582304 0.657795 0.336835
C23   C     C_R   0.737862 0.419280 0.341505 0.334118
C24   C     C_R   0.190349 0.582767 0.660953 0.400038
Cu1   Cu    Cu3+1 0.507710 0.517380 0.684380 1.008660
Cu2   Cu    Cu3+1 0.492290 0.482620 0.315620 1.008528
F1    F     F_    0.303107 0.671536 0.803466 -0.612348
F2    F     F_    0.697060 0.330865 0.195174 -0.624754
F3    F     F_    0.164265 0.670887 0.811253 -0.569870
F4    F     F_    0.835860 0.332234 0.187196 -0.571107
H1    H     H_    0.143207 0.337766 0.239864 0.179837
H2    H     H_    0.781953 0.603081 0.018152 0.174769
H3    H     H_    0.700911 0.491449 0.926008 0.235890
H4    H     H_    0.700233 0.682109 0.077480 0.122056
H5    H     H_    0.504025 0.981296 0.143949 0.288453
H6    H     H_    0.616240 0.889718 0.118872 0.154192
H7    H     H_    0.626937 0.901406 0.365177 0.141870
H8    H     H_    0.625203 0.078899 0.277227 0.207582
H9    H     H_    0.506733 0.126422 0.831621 0.282888
H10   H     H_    0.388058 0.100616 0.898030 0.159610
H11   H     H_    0.370045 0.945999 0.693247 0.204814
H12   H     H_    0.856816 0.662220 0.760570 0.179721
H13   H     H_    0.383359 0.147081 0.671984 0.132072
H14   H     H_    0.443645 0.383882 0.949166 0.233116
H15   H     H_    0.556108 0.616784 0.051029 0.247383
H16   H     H_    0.254657 0.201477 0.159922 0.271135
H17   H     H_    0.218408 0.393117 0.980831 0.172912
H18   H     H_    0.300186 0.313298 0.923410 0.119909
H19   H     H_    0.299423 0.505114 0.072229 0.236365
H20   H     H_    0.745334 0.796989 0.842747 0.269923
N1    N     N_R   0.029452 0.429488 0.348596 -0.213545
N2    N     N_2   0.473520 0.040593 0.746706 -0.529609
N3    N     N_R   0.970642 0.572372 0.650735 -0.213624
N4    N     N_R   0.960746 0.432180 0.342961 -0.105908
N5    N     N_R   0.039348 0.569680 0.656372 -0.105843
N6    N     N_2   0.480680 0.456420 0.038530 -0.248439
N7    N     N_2   0.519320 0.543580 0.961470 -0.237557
N8    N     N_2   0.275488 0.315567 0.194207 -0.505026
N9    N     N_2   0.724572 0.682854 0.807045 -0.506094
N10   N     N_2   0.528577 0.953240 0.259783 -0.512942
O1    O     O_R   0.505010 0.286130 0.619770 -0.529111
O2    O     O_R   0.494990 0.713870 0.380230 -0.490719
O3    O     O_R   0.491990 0.256780 0.308370 -0.503984
O4    O     O_R   0.508010 0.743220 0.691630 -0.476948
O5    O     O_R   0.406650 0.514660 0.655750 -0.470383
O6    O     O_R   0.593350 0.485340 0.344250 -0.473134
O7    O     O_R   0.393640 0.485310 0.344340 -0.484587
O8    O     O_R   0.606360 0.514690 0.655660 -0.487868

loop_
_geom_bond_atom_site_label_1
_geom_bond_atom_site_label_2
_ccdc_geom_bond_type
C2    C4    A    
Cu2   O3    S    
C17   H13   S    
C14   H17   S    
C21   O6    A    
C12   O2    A    
H14   N6    S    
C15   H4    S    
C11   N3    A    
C16   H7    S    
C2    F4    S    
N1    N4    A    
H9    N2    S    
C1    C18   S    
C5    C7    A    
C15   H2    S    
C21   O8    A    
Cu1   O1    S    
C23   F2    S    
H16   N8    S    
C4    C11   S    
Cu1   O8    S    
C16   H8    S    
H15   N7    S    
C3    C24   A    
C11   N4    A    
Cu1   N7    S    
C14   H18   S    
C14   N8    S    
Cu2   O7    S    
C1    O3    A    
C12   C19   S    
C4    C6    A    
Cu1   O4    S    
C22   C24   A    
C22   F1    S    
N3    N5    A    
C10   C21   S    
C6    H12   S    
C10   C23   A    
C9    C20   S    
C17   H11   S    
C9    C22   A    
C14   H19   S    
H20   N9    S    
Cu2   N6    S    
Cu2   O6    S    
C7    N8    S    
C3    C5    A    
C20   O5    A    
Cu1   O5    S    
N6    N7    D    
C17   N2    S    
C18   N10   S    
C8    C10   A    
C18   C19   D    
C16   N10   S    
C8    N9    S    
C2    C23   A    
C7    C9    A    
C12   O4    A    
Cu2   O2    S    
C24   F3    S    
C6    C8    A    
C20   O7    A    
C13   N5    A    
Cu1   Cu2   S    
C13   N1    A    
C15   N9    S    
C19   N2    S    
C15   H3    S    
C16   H6    S    
C1    O1    A    
H5    N10   S    
C5    H1    S    
C17   H10   S    
C3    C13   S    
