data_mof_unit_2156.cif
_audit_creation_date              2012-12-10T18:44:20-0500
_audit_creation_method            fapswitch 2.2
_symmetry_space_group_name_H-M    P1
_symmetry_Int_Tables_number       1
_space_group_crystal_system       triclinic
_cell_length_a                    12.84297
_cell_length_b                    10.61585
_cell_length_c                    9.930779
_cell_angle_alpha                 90.275808
_cell_angle_beta                  97.992394
_cell_angle_gamma                 91.78157
_cell_volume                      1340.09611179

loop_
_atom_site_label
_atom_site_type_symbol
_atom_type_description
_atom_site_fract_x
_atom_site_fract_y
_atom_site_fract_z
_atom_type_partial_charge
C1    C     C_R   0.501162 0.260533 0.499978 0.943511
C2    C     C_R   0.700984 0.485156 0.527748 0.924187
C3    C     C_R   0.811598 0.449320 0.547706 -0.211127
C4    C     C_R   0.181736 0.492435 0.453474 -0.197990
C5    C     C_R   0.023928 0.388787 0.333333 -0.095521
C6    C     C_R   0.981068 0.460890 0.687129 -0.179477
C7    C     C_R   0.125603 0.439782 0.333303 0.364075
C8    C     C_R   0.871851 0.455573 0.677909 0.395125
C9    C     C_R   0.130375 0.512941 0.566994 -0.074718
C10   C     C_R   0.859193 0.407587 0.435450 -0.083268
C11   C     C_R   0.027832 0.463668 0.567053 -0.029497
C12   C     C_R   0.498647 0.739419 0.500026 0.947795
C13   C     C_R   0.970046 0.415241 0.444885 -0.001446
C14   C     C_R   0.422478 0.063032 0.415360 -0.187660
C15   C     C_R   0.576801 0.936832 0.585373 -0.190286
C16   C     C_R   0.419657 0.933550 0.414773 0.404635
C17   C     C_R   0.579832 0.066297 0.585598 0.418165
C18   C     C_2   0.792453 0.366920 0.307285 0.969960
C19   C     C_2   0.172298 0.613533 0.666914 0.941359
C20   C     C_2   0.983763 0.290831 0.229708 0.989671
C21   C     C_2   0.046358 0.443753 0.819813 1.087241
C22   C     C_R   0.497493 0.871784 0.500176 -0.190009
C23   C     C_R   0.502120 0.128119 0.500015 -0.167069
C24   C     C_R   0.560624 0.586044 0.082941 0.328648
C25   C     C_R   0.440459 0.413139 0.916888 0.367716
C26   C     C_R   0.561268 0.585217 0.939654 0.344524
C27   C     C_R   0.442314 0.411371 0.060316 0.348332
C28   C     C_R   0.297015 0.503078 0.471983 0.905558
Cl1   Cl    Cl    0.814155 0.446429 0.830288 -0.413378
Cl2   Cl    Cl    0.176370 0.449114 0.177845 -0.440137
Cl3   Cl    Cl    0.315844 0.852358 0.311400 -0.466245
Cl4   Cl    Cl    0.683661 0.147244 0.689033 -0.478283
Cl5   Cl    Cl    0.642227 0.696095 0.184338 -0.393827
Cl6   Cl    Cl    0.361300 0.301080 0.815263 -0.423589
Cl7   Cl    Cl    0.643847 0.693371 0.868085 -0.413792
Cl8   Cl    Cl    0.373940 0.288441 0.131236 -0.449822
H1    H     H_    0.361645 0.112873 0.352440 0.227449
H2    H     H_    0.637196 0.886911 0.649048 0.230255
H3    H     H_    0.743336 0.402068 0.109850 0.371174
H4    H     H_    0.179221 0.798971 0.713023 0.378873
H5    H     H_    0.924140 0.113901 0.193865 0.389190
H6    H     H_    0.158809 0.341841 0.927666 0.419848
N1    N     N_R   0.499970 0.499970 0.857200 -0.191731
N2    N     N_R   0.500030 0.500030 0.142800 -0.197480
O1    O     O_R   0.499990 0.316750 0.614620 -0.556334
O2    O     O_R   0.793588 0.438143 0.189424 -0.707426
O3    O     O_2   0.229181 0.587890 0.771784 -0.560936
O4    O     O_R   0.146192 0.738354 0.638875 -0.731790
O5    O     O_2   0.978908 0.312669 0.108286 -0.489319
O6    O     O_R   0.950627 0.172832 0.272691 -0.745620
O7    O     O_2   0.038244 0.513859 0.915508 -0.460704
O8    O     O_R   0.118180 0.346892 0.833248 -0.704461
O9    O     O_R   0.500010 0.683250 0.385380 -0.545678
O10   O     O_R   0.499990 0.316780 0.385290 -0.571367
O11   O     O_R   0.500010 0.683220 0.614710 -0.589832
O12   O     O_R   0.346360 0.499970 0.595710 -0.578187
O13   O     O_R   0.653640 0.500030 0.404290 -0.595159
O14   O     O_R   0.346360 0.499990 0.366380 -0.535542
O15   O     O_R   0.653640 0.500010 0.633620 -0.537612
O16   O     O_2   0.734065 0.273617 0.306758 -0.563854
Zn1   Zn    Zn3+2 0.500000 0.499980 0.653120 1.125657
Zn2   Zn    Zn3+2 0.500000 0.500020 0.346880 1.127226

loop_
_geom_bond_atom_site_label_1
_geom_bond_atom_site_label_2
_ccdc_geom_bond_type
C14   C23   A    
O14   Zn2   S    
C6    C8    A    
C1    O10   A    
C5    C7    A    
C15   H2    S    
C20   O5    D    
C28   O14   A    
C27   Cl8   S    
C25   C27   A    
C11   C13   A    
O9    Zn2   S    
C26   Cl7   S    
C5    C13   A    
C24   Cl5   S    
C25   Cl6   S    
C25   N1    A    
C2    C3    S    
C28   O12   A    
C2    O13   A    
O13   Zn2   S    
C15   C22   A    
C7    Cl2   S    
C16   Cl3   S    
C9    C11   A    
C1    O1    A    
C17   C23   A    
C2    O15   A    
C10   C18   S    
C4    C7    A    
C3    C10   A    
C8    Cl1   S    
C18   O2    S    
C18   O16   D    
C4    C28   S    
C24   C26   A    
C26   N1    A    
C1    C23   S    
C19   O3    D    
H3    O2    S    
C24   N2    A    
C5    C20   S    
C14   C16   A    
O15   Zn1   S    
C12   O11   A    
O11   Zn1   S    
H5    O6    S    
C21   O7    D    
C12   C22   S    
N1    Zn1   S    
H4    O4    S    
C3    C8    A    
O1    Zn1   S    
C6    C11   A    
C15   C17   A    
C17   Cl4   S    
O12   Zn1   S    
C16   C22   A    
O10   Zn2   S    
N2    Zn2   S    
C4    C9    A    
C19   O4    S    
C6    C21   S    
C27   N2    A    
C9    C19   S    
C21   O8    S    
C12   O9    A    
H6    O8    S    
C20   O6    S    
C14   H1    S    
C10   C13   A    
