data_mof_unit_1673.cif
_audit_creation_date              2012-10-26T20:25:29-0400
_audit_creation_method            fapswitch 2.2
_symmetry_space_group_name_H-M    P1
_symmetry_Int_Tables_number       1
_space_group_crystal_system       triclinic
_cell_length_a                    23.520782
_cell_length_b                    10.654847
_cell_length_c                    9.407786
_cell_angle_alpha                 90.316331
_cell_angle_beta                  89.841338
_cell_angle_gamma                 90.201315
_cell_volume                      2357.62898737

loop_
_atom_site_label
_atom_site_type_symbol
_atom_type_description
_atom_site_fract_x
_atom_site_fract_y
_atom_site_fract_z
_atom_type_partial_charge
C1    C     C_R   0.499893 0.259959 0.499475 0.591548
C2    C     C_R   0.701692 0.543531 0.610156 -0.174039
C3    C     C_R   0.239244 0.455524 0.390994 -0.079619
C4    C     C_R   0.760756 0.544475 0.609007 -0.079619
C5    C     C_R   0.209258 0.509076 0.504424 0.217959
C6    C     C_R   0.790742 0.490923 0.495576 0.217960
C7    C     C_3   0.547722 0.042815 0.563848 -0.072340
C8    C     C_3   0.452278 0.957185 0.436152 -0.072340
C9    C     C_3   0.545482 0.957978 0.430711 0.204012
C10   C     C_3   0.454518 0.042022 0.569288 0.204012
C11   C     C_3   0.499727 0.875820 0.501521 0.037659
C12   C     C_R   0.500107 0.740041 0.500525 0.591548
C13   C     C_3   0.500273 0.124180 0.498479 0.037659
C14   C     C_3   0.501468 0.961171 0.634116 0.214437
C15   C     C_3   0.498532 0.038829 0.365884 0.214437
C16   C     C_R   0.391129 0.504574 0.500367 0.542338
C17   C     C_R   0.608871 0.495426 0.499633 0.542338
C18   C     C_3   0.516998 0.607145 0.051047 0.003746
C19   C     C_3   0.483002 0.392855 0.948953 0.003746
C20   C     C_3   0.466552 0.585768 0.950052 0.007270
C21   C     C_3   0.533448 0.414232 0.049948 0.007270
C22   C     C_3   0.550498 0.521338 0.949441 0.000726
C23   C     C_R   0.238880 0.566413 0.618078 0.091271
C24   C     C_3   0.449502 0.478662 0.050559 0.000726
C25   C     C_R   0.879490 0.602069 0.467871 0.394701
C26   C     C_R   0.120510 0.397930 0.532129 0.394701
C27   C     C_R   0.880423 0.385871 0.532897 0.392131
C28   C     C_R   0.119577 0.614128 0.467103 0.392131
C29   C     C_R   0.940734 0.383975 0.532649 0.039094
C30   C     C_R   0.059266 0.616024 0.467351 0.039094
C31   C     C_R   0.969914 0.497574 0.500432 -0.044301
C32   C     C_R   0.030086 0.502424 0.499568 -0.044301
C33   C     C_R   0.938957 0.606778 0.468886 0.012785
C34   C     C_R   0.761120 0.433587 0.381922 0.091271
C35   C     C_R   0.061043 0.393221 0.531114 0.012785
C36   C     C_R   0.973023 0.274161 0.562390 -0.017718
C37   C     C_R   0.026977 0.725838 0.437611 -0.017718
C38   C     C_R   0.032434 0.281118 0.561472 -0.104725
C39   C     C_R   0.967566 0.718881 0.438528 -0.104725
C40   C     C_3   0.946622 0.147733 0.594090 -0.345108
C41   C     C_3   0.053377 0.852266 0.405910 -0.345108
C42   C     C_3   0.207910 0.622880 0.743734 -0.301860
C43   C     C_3   0.792089 0.377120 0.256266 -0.301860
C44   C     C_3   0.601426 0.091818 0.634966 -0.368100
C45   C     C_R   0.298633 0.572900 0.613823 0.229508
C46   C     C_3   0.398574 0.908182 0.365034 -0.368100
C47   C     C_R   0.701367 0.427100 0.386177 0.229507
C48   C     C_R   0.328656 0.512907 0.501272 -0.003468
C49   C     C_R   0.671344 0.487093 0.498728 -0.003469
C50   C     C_R   0.298308 0.456468 0.389845 -0.174039
Cu1   Cu    Cu3+1 0.500010 0.499990 0.643150 0.981028
Cu2   Cu    Cu3+1 0.499990 0.500010 0.356850 0.981028
H1    H     H_    0.438471 0.657937 0.902966 0.149619
H2    H     H_    0.679638 0.588916 0.697546 0.141063
H3    H     H_    0.216476 0.411849 0.303785 0.141836
H4    H     H_    0.783524 0.588149 0.696216 0.141836
H5    H     H_    0.920110 0.116249 0.503088 0.180068
H6    H     H_    0.979127 0.073951 0.611157 0.100183
H7    H     H_    0.920794 0.153328 0.692831 0.186950
H8    H     H_    0.079890 0.883750 0.496913 0.180068
H9    H     H_    0.079206 0.846671 0.307169 0.186950
H10   H     H_    0.020873 0.926048 0.388843 0.100183
H11   H     H_    0.215226 0.725867 0.746560 0.169222
H12   H     H_    0.561529 0.342063 0.097034 0.149619
H13   H     H_    0.224243 0.581295 0.843538 0.157591
H14   H     H_    0.161443 0.605526 0.741077 0.126888
H15   H     H_    0.775757 0.418705 0.156462 0.157591
H16   H     H_    0.784773 0.274133 0.253439 0.169222
H17   H     H_    0.838557 0.394473 0.258923 0.126888
H18   H     H_    0.360445 0.679322 0.678675 0.328264
H19   H     H_    0.639554 0.320678 0.321324 0.328264
H20   H     H_    0.613343 0.985547 0.322103 0.340468
H21   H     H_    0.386657 0.014453 0.677897 0.340468
H22   H     H_    0.627870 0.011653 0.669696 0.178820
H23   H     H_    0.531393 0.697393 0.098531 0.146844
H24   H     H_    0.625977 0.149919 0.558657 0.126640
H25   H     H_    0.589900 0.150018 0.728837 0.142739
H26   H     H_    0.372130 0.988347 0.330304 0.178820
H27   H     H_    0.410100 0.849982 0.271163 0.142739
H28   H     H_    0.374023 0.850081 0.441343 0.126640
H29   H     H_    0.502199 0.995073 0.834409 0.333668
H30   H     H_    0.497801 0.004927 0.165591 0.333668
H31   H     H_    0.468607 0.302607 0.901469 0.146844
H32   H     H_    0.593077 0.539575 0.902634 0.124015
H33   H     H_    0.406923 0.460425 0.097366 0.124015
H34   H     H_    0.056689 0.197399 0.584611 0.163864
H35   H     H_    0.943311 0.802600 0.415390 0.163864
H36   H     H_    0.320362 0.411082 0.302454 0.141063
N1    N     N_R   0.851759 0.493009 0.498821 -0.398901
N2    N     N_R   0.148241 0.506990 0.501179 -0.398901
N3    N     N_3   0.500040 0.499970 0.858290 -0.244106
N4    N     N_3   0.499960 0.500030 0.141710 -0.244106
O1    O     O_R   0.500030 0.316850 0.620870 -0.501274
O2    O     O_2   0.150636 0.294378 0.564597 -0.493129
O3    O     O_2   0.850087 0.282651 0.566483 -0.513090
O4    O     O_2   0.149912 0.717348 0.433517 -0.513090
O5    O     O_3   0.325996 0.639828 0.719779 -0.708194
O6    O     O_3   0.674004 0.360172 0.280221 -0.708195
O7    O     O_3   0.592534 0.910729 0.357038 -0.676868
O8    O     O_3   0.407466 0.089271 0.642961 -0.676868
O9    O     O_3   0.502184 0.918346 0.774350 -0.689024
O10   O     O_3   0.497816 0.081653 0.225650 -0.689024
O11   O     O_R   0.499970 0.683150 0.379130 -0.501274
O12   O     O_R   0.500000 0.316860 0.379090 -0.468484
O13   O     O_R   0.500000 0.683140 0.620910 -0.468484
O14   O     O_R   0.417890 0.499960 0.620920 -0.475436
O15   O     O_R   0.582110 0.500040 0.379080 -0.475436
O16   O     O_R   0.417870 0.499970 0.379140 -0.519173
O17   O     O_R   0.582130 0.500030 0.620860 -0.519173
O18   O     O_2   0.849364 0.705620 0.435403 -0.493129

loop_
_geom_bond_atom_site_label_1
_geom_bond_atom_site_label_2
_ccdc_geom_bond_type
C26   O2    S    
H21   O8    S    
C30   C32   A    
Cu2   O11   S    
C18   H23   S    
C23   C45   A    
C27   C29   A    
C27   O3    S    
C39   H35   S    
C16   C48   S    
C47   O6    S    
C47   C49   A    
H29   O9    S    
C29   C36   A    
C33   C39   A    
C23   C42   S    
C38   H34   S    
C44   H25   S    
C19   C21   S    
C17   O15   A    
C46   H27   S    
C11   C14   S    
C44   H24   S    
C21   H12   S    
Cu1   N3    S    
C3    H3    S    
C7    C14   S    
C20   C24   S    
Cu2   O15   S    
C43   H16   S    
C42   H13   S    
C22   N3    S    
C31   C33   A    
C41   H9    S    
C24   H33   S    
C5    N2    S    
H18   O5    S    
C16   O14   A    
C48   C50   A    
C9    O7    S    
C40   H7    S    
C21   C22   S    
C4    H4    S    
C41   H10   S    
C19   H31   S    
C24   N4    S    
H19   O6    S    
C3    C50   A    
C37   C39   A    
C20   N3    S    
C40   H6    S    
Cu1   Cu2   S    
C32   C35   A    
C36   C40   S    
C35   C38   A    
C12   O11   A    
C4    C6    A    
C10   C14   S    
C17   C49   S    
C46   H26   S    
C14   O9    S    
C6    C34   A    
C30   C37   A    
C22   H32   S    
C10   O8    S    
C43   H15   S    
C2    C49   A    
C31   C32   A    
C5    C23   A    
C8    C11   S    
Cu1   O13   S    
H30   O10   S    
C7    C44   S    
C44   H22   S    
C9    C11   S    
C1    O12   A    
C25   O18   S    
Cu1   O1    S    
C8    C10   S    
C8    C15   S    
C13   C15   S    
C2    H2    S    
Cu2   N4    S    
C1    C13   S    
C45   C48   A    
C7    C9    S    
Cu2   O12   S    
C40   H5    S    
C18   C22   S    
C34   C43   S    
C41   H8    S    
C20   H1    S    
C3    C5    A    
C10   C13   S    
C17   O17   A    
C11   C12   S    
C50   H36   S    
C26   N2    A    
C6    N1    S    
C25   N1    A    
C28   O4    S    
C18   N4    S    
C28   C30   A    
C19   C24   S    
Cu1   O17   S    
C29   C31   A    
C45   O5    S    
C46   H28   S    
C12   O13   A    
Cu1   O14   S    
C2    C4    A    
C36   C38   A    
C27   N1    A    
C18   C20   S    
C15   O10   S    
C37   C41   S    
C8    C46   S    
C19   N3    S    
C16   O16   A    
C26   C35   A    
C7    C13   S    
Cu2   O16   S    
C1    O1    A    
C42   H14   S    
C28   N2    A    
C34   C47   A    
C43   H17   S    
C42   H11   S    
H20   O7    S    
C9    C15   S    
C25   C33   A    
C21   N4    S    
