data_mof_unit_2903.cif
_audit_creation_date              2012-10-26T21:12:34-0400
_audit_creation_method            fapswitch 2.2
_symmetry_space_group_name_H-M    P1
_symmetry_Int_Tables_number       1
_space_group_crystal_system       triclinic
_cell_length_a                    23.540641
_cell_length_b                    10.884146
_cell_length_c                    9.5668
_cell_angle_alpha                 90.973557
_cell_angle_beta                  90.31734
_cell_angle_gamma                 92.818006
_cell_volume                      2447.83589822

loop_
_atom_site_label
_atom_site_type_symbol
_atom_type_description
_atom_site_fract_x
_atom_site_fract_y
_atom_site_fract_z
_atom_type_partial_charge
C1    C     C_R   0.503893 0.263245 0.499270 0.550397
C2    C     C_R   0.121471 0.590602 0.580917 0.405280
C3    C     C_R   0.236335 0.524097 0.384578 -0.058418
C4    C     C_R   0.390851 0.500810 0.499496 0.555304
C5    C     C_R   0.295684 0.526474 0.377860 -0.039306
C6    C     C_R   0.327879 0.501515 0.499332 -0.012231
C7    C     C_R   0.298893 0.476438 0.624899 -0.145661
C8    C     C_R   0.239739 0.474952 0.630067 -0.053758
C9    C     C_R   0.208360 0.498262 0.509927 0.226715
C10   C     C_R   0.760369 0.492673 0.630870 -0.056893
C11   C     C_R   0.701176 0.492702 0.629159 -0.150285
C12   C     C_R   0.965181 0.305293 0.379946 -0.120694
C13   C     C_R   0.671561 0.501613 0.501991 0.001490
C14   C     C_R   0.702278 0.511447 0.376782 -0.147809
C15   C     C_R   0.761529 0.511898 0.378858 -0.055968
C16   C     C_R   0.496401 0.737747 0.501997 0.536829
C17   C     C_R   0.790810 0.502147 0.505826 0.238871
C18   C     C_R   0.553219 0.128503 0.732908 -0.086077
C19   C     C_R   0.556167 0.073954 0.862993 -0.128164
C20   C     C_R   0.529173 0.959525 0.882882 -0.119511
C21   C     C_R   0.504658 0.894059 0.769394 -0.090237
C22   C     C_R   0.506893 0.942409 0.632453 0.011973
C23   C     C_R   0.024418 0.304322 0.381327 -0.120544
C24   C     C_R   0.523308 0.067976 0.620512 0.024480
C25   C     C_R   0.507614 0.129872 0.498720 -0.018275
C26   C     C_R   0.486419 0.063478 0.382062 -0.159644
C27   C     C_R   0.480219 0.936338 0.383833 -0.044217
C28   C     C_R   0.609017 0.500656 0.500422 0.532576
C29   C     C_R   0.492409 0.872919 0.507774 -0.020186
C30   C     C_R   0.577482 0.660749 0.148041 -0.086874
C31   C     C_R   0.616536 0.736030 0.077334 -0.182387
C32   C     C_R   0.616880 0.734781 0.933331 -0.172227
C33   C     C_R   0.577794 0.659128 0.859293 -0.101854
C34   C     C_R   0.057063 0.399904 0.448034 0.029148
C35   C     C_R   0.538227 0.578441 0.926994 0.147124
C36   C     C_R   0.538135 0.578784 0.076765 0.168567
C37   C     C_R   0.463870 0.424732 0.072060 0.019503
C38   C     C_R   0.463824 0.424897 0.923945 0.010995
C39   C     C_R   0.882619 0.595252 0.573816 0.400968
C40   C     C_R   0.877856 0.405164 0.444433 0.401647
C41   C     C_R   0.937360 0.401990 0.445008 0.029746
C42   C     C_R   0.969673 0.498037 0.512663 -0.027757
C43   C     C_R   0.942212 0.595444 0.578140 0.029731
C44   C     C_1   0.457147 0.875179 0.258971 0.220993
C45   C     C_R   0.029601 0.496873 0.514442 -0.028023
C46   C     C_1   0.321570 0.557360 0.245628 0.231034
C47   C     C_R   0.061932 0.592965 0.582058 0.028858
C48   C     C_R   0.034098 0.689335 0.647701 -0.119936
C49   C     C_R   0.974858 0.690634 0.645627 -0.121037
C50   C     C_R   0.116681 0.401580 0.449505 0.403552
Cu1   Cu    Cu3+1 0.500000 0.499990 0.640660 0.922172
Cu2   Cu    Cu3+1 0.500000 0.500010 0.359340 0.959896
H1    H     H_    0.941312 0.230276 0.327380 0.170835
H2    H     H_    0.434295 0.363139 0.125994 0.122064
H3    H     H_    0.044509 0.228649 0.329696 0.171415
H4    H     H_    0.580195 0.671491 0.258288 0.181771
H5    H     H_    0.646293 0.796982 0.135012 0.131734
H6    H     H_    0.646674 0.795238 0.878271 0.141732
H7    H     H_    0.579710 0.670075 0.749435 0.189161
H8    H     H_    0.434209 0.363389 0.866841 0.124886
H9    H     H_    0.057972 0.764288 0.700370 0.172128
H10   H     H_    0.954775 0.766508 0.696876 0.170377
H11   H     H_    0.211478 0.543178 0.292370 0.135603
H12   H     H_    0.678672 0.485049 0.727312 0.132917
H13   H     H_    0.321928 0.456946 0.719652 0.144275
H14   H     H_    0.218195 0.454958 0.727387 0.141404
H15   H     H_    0.782654 0.484637 0.729371 0.136581
H16   H     H_    0.680621 0.518996 0.277352 0.132169
H17   H     H_    0.784764 0.519838 0.281794 0.136391
H18   H     H_    0.473543 0.111148 0.289224 0.137260
H19   H     H_    0.574452 0.218133 0.721516 0.143913
H20   H     H_    0.577479 0.122528 0.949587 0.119027
H21   H     H_    0.528001 0.920391 0.986095 0.145783
H22   H     H_    0.481549 0.809429 0.793921 0.170600
N1    N     N_R   0.851765 0.500985 0.507818 -0.398154
N2    N     N_R   0.147480 0.496229 0.514693 -0.398666
N3    N     N_R   0.500540 0.501210 0.147910 -0.238398
N4    N     N_R   0.500560 0.501290 0.852040 -0.250364
N5    N     N_1   0.438590 0.826438 0.159134 -0.272301
N6    N     N_1   0.342104 0.582187 0.139482 -0.263495
O1    O     O_R   0.500000 0.319640 0.618810 -0.507101
O2    O     O_R   0.582120 0.500020 0.618760 -0.530568
O3    O     O_R   0.582120 0.500050 0.381190 -0.524743
O4    O     O_2   0.855707 0.688995 0.633967 -0.496753
O5    O     O_2   0.846267 0.312752 0.382115 -0.495336
O6    O     O_2   0.143734 0.309434 0.386505 -0.487414
O7    O     O_2   0.153170 0.682479 0.643894 -0.483494
O8    O     O_R   0.500000 0.319660 0.381240 -0.507063
O9    O     O_R   0.417880 0.499950 0.618810 -0.498478
O10   O     O_R   0.417880 0.499980 0.381240 -0.479804
O11   O     O_R   0.500000 0.680340 0.618760 -0.536824
O12   O     O_R   0.500000 0.680360 0.381190 -0.502948

loop_
_geom_bond_atom_site_label_1
_geom_bond_atom_site_label_2
_ccdc_geom_bond_type
C8    H14   S    
C22   C29   A    
C27   C29   A    
C41   C42   A    
Cu2   O10   S    
C19   C20   A    
C32   H6    S    
C7    C8    A    
C10   H15   S    
C12   C23   A    
C26   C27   A    
C37   C38   A    
C18   C24   A    
C39   O4    S    
C36   N3    A    
C30   C31   A    
C10   C17   A    
C1    O1    A    
C18   C19   A    
Cu1   O11   S    
C27   C44   S    
C31   C32   A    
C8    C9    A    
C13   C28   S    
C9    N2    S    
C39   N1    A    
Cu1   O1    S    
C12   H1    S    
C1    O8    A    
C33   H7    S    
C13   C14   A    
C28   O3    A    
C1    C25   S    
C19   H20   S    
C4    O10   A    
C45   C47   A    
C15   H17   S    
C34   C50   A    
C28   O2    A    
Cu1   Cu2   S    
Cu2   O8    S    
C24   C25   A    
C4    C6    S    
C11   H12   S    
C43   C49   A    
C39   C43   A    
C38   N4    A    
C25   C26   A    
C30   H4    S    
C21   H22   S    
C42   C45   A    
C40   O5    S    
Cu2   O3    S    
C12   C41   A    
C3    C9    A    
C50   N2    A    
C7    H13   S    
C47   C48   A    
C23   C34   A    
C2    O7    S    
C34   C45   A    
Cu1   O2    S    
C38   H8    S    
C37   H2    S    
C48   C49   A    
C16   O12   A    
C26   H18   S    
C22   C24   A    
Cu2   O12   S    
C42   C43   A    
Cu2   N3    S    
C2    N2    A    
C4    O9    A    
C18   H19   S    
C15   C17   A    
C40   C41   A    
C49   H10   S    
C44   N5    T    
C3    C5    A    
C23   H3    S    
C6    C7    A    
C3    H11   S    
C2    C47   A    
C5    C46   S    
C35   N4    A    
C40   N1    A    
C30   C36   A    
C32   C33   A    
C31   H5    S    
C16   C29   S    
Cu1   N4    S    
Cu1   O9    S    
C46   N6    T    
C11   C13   A    
C48   H9    S    
C5    C6    A    
C37   N3    A    
C33   C35   A    
C20   H21   S    
C10   C11   A    
C50   O6    S    
C20   C21   A    
C16   O11   A    
C17   N1    S    
C14   H16   S    
C14   C15   A    
C35   C36   A    
C21   C22   A    
