data_mof_unit_3097.cif
_audit_creation_date              2012-12-11T15:57:08-0500
_audit_creation_method            fapswitch 2.2
_symmetry_space_group_name_H-M    P1
_symmetry_Int_Tables_number       1
_space_group_crystal_system       triclinic
_cell_length_a                    17.464075
_cell_length_b                    24.404049
_cell_length_c                    14.956312
_cell_angle_alpha                 89.988664
_cell_angle_beta                  126.154876
_cell_angle_gamma                 90.042829
_cell_volume                      5146.76277861

loop_
_atom_site_label
_atom_site_type_symbol
_atom_type_description
_atom_site_fract_x
_atom_site_fract_y
_atom_site_fract_z
_atom_type_partial_charge
C1    C     C_R   0.308423 0.123402 0.906212 -0.002727
C2    C     C_R   0.308230 0.876910 0.906646 0.003329
C3    C     C_R   0.808421 0.623398 0.906214 -0.002719
C4    C     C_R   0.808230 0.376911 0.906645 0.003336
C5    C     C_R   0.647779 0.152097 0.093115 -0.166190
C6    C     C_R   0.647807 0.847948 0.093324 -0.168840
C7    C     C_R   0.147775 0.652098 0.093115 -0.166177
C8    C     C_R   0.147802 0.347947 0.093323 -0.168826
C9    C     C_R   0.556041 0.847157 0.909472 -0.151107
C10   C     C_R   0.556115 0.152796 0.909273 -0.155213
C11   C     C_R   0.056035 0.347156 0.909471 -0.151111
C12   C     C_R   0.056112 0.652797 0.909273 -0.155224
C13   C     C_R   0.551927 0.000029 0.728224 -0.009890
C14   C     C_R   0.051927 0.500029 0.728224 -0.009890
C15   C     C_R   0.824497 0.000520 0.275593 0.025960
C16   C     C_R   0.324501 0.500520 0.275617 0.025982
C17   C     C_R   0.617075 0.183928 0.001919 0.069391
C18   C     C_R   0.616849 0.816002 0.002271 0.068678
C19   C     C_R   0.117067 0.683931 0.001918 0.069374
C20   C     C_R   0.116836 0.315999 0.002270 0.068669
C21   C     C_3   0.040650 0.947265 0.474014 -0.164232
C22   C     C_3   0.020497 0.026492 0.527248 -0.142355
C23   C     C_3   0.540722 0.447265 0.473885 -0.164247
C24   C     C_3   0.520503 0.526408 0.527316 -0.142247
C25   C     C_3   0.959888 0.975304 0.469793 -0.132112
C26   C     C_3   0.459942 0.475217 0.469753 -0.132154
C27   C     C_3   0.925776 0.000727 0.358181 0.186183
C28   C     C_3   0.425784 0.500729 0.358195 0.186182
C29   C     C_3   0.005336 0.972605 0.360833 -0.161746
C30   C     C_3   0.986226 0.052062 0.415375 -0.174222
C31   C     C_3   0.505359 0.472695 0.360756 -0.161705
C32   C     C_3   0.486188 0.552065 0.415499 -0.174244
C33   C     C_3   0.068196 0.024109 0.420393 -0.152622
C34   C     C_3   0.568172 0.524200 0.420426 -0.152642
C35   C     C_R   0.402092 0.875867 0.092180 -0.182940
C36   C     C_R   0.401896 0.124324 0.091845 -0.185351
C37   C     C_R   0.902092 0.375867 0.092180 -0.182954
C38   C     C_R   0.901896 0.624320 0.091847 -0.185384
C39   C     C_3   0.100704 0.998660 0.531105 0.184956
C40   C     C_3   0.600727 0.498661 0.531085 0.184936
C41   C     C_3   0.276009 0.811024 0.114658 -0.590052
C42   C     C_3   0.272815 0.187823 0.112919 -0.597646
C43   C     C_3   0.776024 0.311017 0.114660 -0.590103
C44   C     C_3   0.772855 0.687839 0.112942 -0.597660
C45   C     C_3   0.723507 0.261532 0.117288 -0.425077
C46   C     C_3   0.722457 0.737978 0.117191 -0.426117
C47   C     C_3   0.223491 0.761539 0.117286 -0.425070
C48   C     C_3   0.222419 0.237963 0.117175 -0.426129
C49   C     C_3   0.788229 0.262698 0.975124 0.454554
C50   C     C_3   0.788095 0.737353 0.975934 0.477942
C51   C     C_3   0.288233 0.762698 0.975138 0.454533
C52   C     C_3   0.288113 0.237357 0.975975 0.477968
C53   C     C_3   0.144513 0.826213 0.913271 0.491485
C54   C     C_3   0.143789 0.174702 0.908825 0.477228
C55   C     C_3   0.644521 0.326213 0.913284 0.491505
C56   C     C_3   0.643794 0.674690 0.908868 0.477237
C57   C     C_3   0.254851 0.817033 0.997604 0.111978
C58   C     C_3   0.253898 0.182967 0.996841 0.142056
C59   C     C_3   0.754856 0.317032 0.997605 0.112002
C60   C     C_3   0.753905 0.682966 0.996848 0.142065
C61   C     C_3   0.663362 0.233861 0.001842 0.315281
C62   C     C_3   0.663142 0.766048 0.002413 0.331731
C63   C     C_3   0.163354 0.733864 0.001841 0.315282
C64   C     C_3   0.163131 0.266045 0.002410 0.331739
C65   C     C_3   0.729629 0.214966 0.970805 -0.528227
C66   C     C_3   0.730244 0.785118 0.972743 -0.533147
C67   C     C_3   0.229630 0.714966 0.970818 -0.528221
C68   C     C_3   0.230259 0.285121 0.972785 -0.533168
C69   C     C_3   0.590341 0.276666 0.917243 -0.586001
C70   C     C_3   0.590152 0.723371 0.917407 -0.612071
C71   C     C_3   0.090331 0.776667 0.917232 -0.585971
C72   C     C_3   0.090144 0.223375 0.917377 -0.612058
C73   C     C_3   0.619185 0.051442 0.643348 -0.400892
C74   C     C_3   0.619115 0.948628 0.643335 -0.400433
C75   C     C_3   0.119186 0.551442 0.643349 -0.400895
C76   C     C_3   0.119116 0.448628 0.643336 -0.400437
C77   C     C_R   0.549724 0.045537 0.305270 -0.144777
C78   C     C_R   0.549806 0.954499 0.305333 -0.146103
C79   C     C_R   0.049726 0.545537 0.305271 -0.144777
C80   C     C_R   0.049807 0.454499 0.305333 -0.146099
C81   C     C_3   0.622737 0.051539 0.542937 -0.402356
C82   C     C_3   0.622626 0.948514 0.542896 -0.401135
C83   C     C_3   0.122738 0.551539 0.542939 -0.402354
C84   C     C_3   0.122628 0.448514 0.542897 -0.401131
C85   C     C_3   0.463068 0.000001 0.529223 -0.393326
C86   C     C_3   0.963069 0.500001 0.529223 -0.393318
C87   C     C_3   0.564573 0.000025 0.639239 0.397498
C88   C     C_3   0.064574 0.500025 0.639240 0.397496
C89   C     C_3   0.571215 0.000022 0.470155 0.399406
C90   C     C_3   0.071216 0.500022 0.470156 0.399401
C91   C     C_3   0.467054 0.000010 0.430458 -0.396983
C92   C     C_3   0.967056 0.500010 0.430458 -0.396983
C93   C     C_R   0.240999 0.953713 0.696204 -0.134343
C94   C     C_R   0.240554 0.045414 0.695145 -0.155335
C95   C     C_R   0.741012 0.453714 0.696190 -0.134329
C96   C     C_R   0.740564 0.545415 0.695137 -0.155312
C97   C     C_R   0.311963 0.138126 0.998334 0.025085
C98   C     C_R   0.312242 0.862088 0.998932 0.031731
C99   C     C_R   0.811964 0.638123 0.998338 0.025110
C100  C     C_R   0.812243 0.362088 0.998932 0.031737
C101  C     C_R   0.566819 0.000026 0.369026 -0.008047
C102  C     C_R   0.066820 0.500026 0.369027 -0.008041
C103  C     C_R   0.192624 0.999221 0.635807 0.048926
C104  C     C_R   0.692647 0.499222 0.635786 0.048889
C105  C     C_R   0.521192 0.045927 0.753757 -0.137898
C106  C     C_R   0.521207 0.954109 0.753801 -0.138154
C107  C     C_R   0.021193 0.545927 0.753758 -0.137899
C108  C     C_R   0.021207 0.454109 0.753802 -0.138152
C109  C     C_R   0.769542 0.954124 0.249141 -0.142765
C110  C     C_R   0.769244 0.046444 0.249925 -0.124950
C111  C     C_R   0.269545 0.454124 0.249153 -0.142776
C112  C     C_R   0.269245 0.546444 0.249936 -0.124943
H1    H     H_    0.253464 0.131116 0.820364 0.176575
H2    H     H_    0.252523 0.869414 0.821070 0.143102
H3    H     H_    0.753457 0.631111 0.820366 0.176592
H4    H     H_    0.752522 0.369416 0.821067 0.143118
H5    H     H_    0.063983 0.904219 0.499527 0.108105
H6    H     H_    0.028177 0.047747 0.597773 0.133382
H7    H     H_    0.564106 0.404218 0.499293 0.108061
H8    H     H_    0.528178 0.547595 0.597895 0.133375
H9    H     H_    0.996127 0.950832 0.289923 0.106626
H10   H     H_    0.963301 0.095172 0.390147 0.107506
H11   H     H_    0.496156 0.450992 0.289786 0.106628
H12   H     H_    0.463225 0.595179 0.390384 0.107524
H13   H     H_    0.115828 0.043900 0.403699 0.106398
H14   H     H_    0.615771 0.544064 0.403760 0.106402
H15   H     H_    0.352507 0.803779 0.180259 0.183211
H16   H     H_    0.349226 0.193552 0.180467 0.183815
H17   H     H_    0.852521 0.303770 0.180251 0.183222
H18   H     H_    0.849271 0.693580 0.180465 0.183816
H19   H     H_    0.255550 0.848932 0.137139 0.184967
H20   H     H_    0.249012 0.149998 0.131548 0.187255
H21   H     H_    0.755572 0.348922 0.137151 0.184976
H22   H     H_    0.749080 0.650016 0.131613 0.187254
H23   H     H_    0.177528 0.774659 0.142194 0.164013
H24   H     H_    0.176318 0.225438 0.142283 0.165616
H25   H     H_    0.677549 0.274650 0.142204 0.164016
H26   H     H_    0.676372 0.725456 0.142324 0.165616
H27   H     H_    0.777264 0.232470 0.181086 0.164820
H28   H     H_    0.777202 0.766610 0.181292 0.164992
H29   H     H_    0.277249 0.732479 0.181091 0.164812
H30   H     H_    0.277166 0.266586 0.181296 0.164991
H31   H     H_    0.863919 0.256280 0.047475 0.011081
H32   H     H_    0.863957 0.743309 0.048276 -0.005061
H33   H     H_    0.363923 0.756282 0.047497 0.011086
H34   H     H_    0.363970 0.243305 0.048337 -0.005059
H35   H     H_    0.778964 0.182598 0.029276 0.136179
H36   H     H_    0.780054 0.817024 0.032423 0.133554
H37   H     H_    0.278965 0.682600 0.029297 0.136180
H38   H     H_    0.280068 0.317019 0.032489 0.133555
H39   H     H_    0.431925 0.869582 0.178159 0.105810
H40   H     H_    0.431658 0.130618 0.177788 0.105469
H41   H     H_    0.931924 0.369583 0.178159 0.105815
H42   H     H_    0.931657 0.630611 0.177791 0.105489
H43   H     H_    0.129161 0.861068 0.948505 0.069580
H44   H     H_    0.125649 0.137868 0.936820 0.058434
H45   H     H_    0.629174 0.361065 0.948528 0.069581
H46   H     H_    0.625675 0.637864 0.936905 0.058438
H47   H     H_    0.047432 0.791327 0.945302 0.143135
H48   H     H_    0.049486 0.207137 0.947367 0.148966
H49   H     H_    0.547448 0.291324 0.945323 0.143152
H50   H     H_    0.549503 0.707141 0.947415 0.148963
H51   H     H_    0.538144 0.258101 0.835426 0.171896
H52   H     H_    0.535816 0.742962 0.837933 0.145141
H53   H     H_    0.038138 0.758101 0.835413 0.171883
H54   H     H_    0.035812 0.242971 0.837909 0.145138
H55   H     H_    0.687490 0.196027 0.886948 0.174262
H56   H     H_    0.688843 0.804726 0.889548 0.173966
H57   H     H_    0.187498 0.696024 0.886962 0.174263
H58   H     H_    0.188881 0.304740 0.889602 0.173958
H59   H     H_    0.583980 0.089854 0.640877 0.145393
H60   H     H_    0.583880 0.910199 0.640890 0.144652
H61   H     H_    0.083981 0.589854 0.640878 0.145393
H62   H     H_    0.083880 0.410198 0.640890 0.144649
H63   H     H_    0.692413 0.051729 0.721518 0.155635
H64   H     H_    0.692354 0.948383 0.721488 0.156250
H65   H     H_    0.192414 0.551729 0.721520 0.155638
H66   H     H_    0.192354 0.448382 0.721488 0.156253
H67   H     H_    0.697727 0.052244 0.571458 0.157044
H68   H     H_    0.697606 0.947807 0.571380 0.158258
H69   H     H_    0.197729 0.552243 0.571460 0.157048
H70   H     H_    0.197608 0.447806 0.571382 0.158263
H71   H     H_    0.588203 0.089747 0.495319 0.145247
H72   H     H_    0.587979 0.910301 0.495252 0.145855
H73   H     H_    0.088205 0.589747 0.495320 0.145246
H74   H     H_    0.087980 0.410301 0.495253 0.145853
H75   H     H_    0.422982 0.036742 0.524446 0.153973
H76   H     H_    0.422949 0.963234 0.524432 0.153705
H77   H     H_    0.922983 0.536741 0.524446 0.153974
H78   H     H_    0.922950 0.463233 0.524432 0.153706
H79   H     H_    0.563238 0.087847 0.331402 0.083337
H80   H     H_    0.563469 0.912214 0.331576 0.084716
H81   H     H_    0.063241 0.587847 0.331404 0.083337
H82   H     H_    0.063469 0.412213 0.331576 0.084716
H83   H     H_    0.429150 0.036793 0.378470 0.154670
H84   H     H_    0.429070 0.963227 0.378418 0.154304
H85   H     H_    0.929152 0.536793 0.378470 0.154669
H86   H     H_    0.929071 0.463227 0.378418 0.154304
H87   H     H_    0.227529 0.911739 0.667547 0.082076
H88   H     H_    0.225664 0.087144 0.665026 0.101073
H89   H     H_    0.727544 0.411740 0.667537 0.082076
H90   H     H_    0.725677 0.587145 0.665022 0.101062
H91   H     H_    0.527028 0.088385 0.738652 0.089768
H92   H     H_    0.527064 0.911653 0.738768 0.087875
H93   H     H_    0.027029 0.588385 0.738653 0.089769
H94   H     H_    0.027065 0.411652 0.738769 0.087872
H95   H     H_    0.793087 0.912001 0.265082 0.100391
H96   H     H_    0.791724 0.088743 0.265740 0.091469
H97   H     H_    0.293088 0.412001 0.265091 0.100380
H98   H     H_    0.291720 0.588745 0.265742 0.091455
H99   H     H_    0.688806 0.164812 0.178754 0.086843
H100  H     H_    0.689216 0.835370 0.179061 0.089655
H101  H     H_    0.188801 0.664813 0.178754 0.086841
H102  H     H_    0.189213 0.335369 0.179060 0.089650
H103  H     H_    0.514438 0.834194 0.823936 0.081569
H104  H     H_    0.514320 0.165853 0.823787 0.088407
H105  H     H_    0.014431 0.334195 0.823935 0.081569
H106  H     H_    0.014316 0.665854 0.823787 0.088414
H107  H     H_    0.914183 0.955366 0.489351 0.115209
H108  H     H_    0.414273 0.455206 0.489285 0.115179
N1    N     N_R   0.392450 0.103580 0.942190 -0.061950
N2    N     N_R   0.392450 0.896420 0.942190 -0.059811
N3    N     N_R   0.892450 0.603580 0.942190 -0.061958
N4    N     N_R   0.892450 0.396420 0.942190 -0.059814
N5    N     N_R   0.450490 0.896000 0.057360 -0.040752
N6    N     N_R   0.450490 0.104000 0.057360 -0.040038
N7    N     N_R   0.950490 0.396000 0.057360 -0.040751
N8    N     N_R   0.950490 0.604000 0.057360 -0.040038
N9    N     N_R   0.525490 0.028390 0.207550 -0.030369
N10   N     N_R   0.525490 0.971610 0.207550 -0.030413
N11   N     N_R   0.025490 0.528390 0.207550 -0.030368
N12   N     N_R   0.025490 0.471610 0.207550 -0.030412
N13   N     N_R   0.317450 0.971190 0.792000 -0.042968
N14   N     N_R   0.317450 0.028810 0.792000 -0.042959
N15   N     N_R   0.817450 0.471190 0.792000 -0.042969
N16   N     N_R   0.817450 0.528810 0.792000 -0.042958
N17   N     N_R   0.473900 0.028390 0.792280 -0.036517
N18   N     N_R   0.473900 0.971610 0.792280 -0.036839
N19   N     N_R   0.973900 0.528390 0.792280 -0.036516
N20   N     N_R   0.973900 0.471610 0.792280 -0.036838
N21   N     N_R   0.682310 0.971180 0.208170 -0.037583
N22   N     N_R   0.682310 0.028820 0.208170 -0.038415
N23   N     N_R   0.182310 0.471180 0.208170 -0.037578
N24   N     N_R   0.182310 0.528820 0.208170 -0.038413
N25   N     N_R   0.606470 0.103570 0.057210 -0.033028
N26   N     N_R   0.606470 0.896430 0.057210 -0.032440
N27   N     N_R   0.106470 0.603570 0.057210 -0.033030
N28   N     N_R   0.106470 0.396430 0.057210 -0.032441
N29   N     N_R   0.549740 0.896000 0.943240 -0.034332
N30   N     N_R   0.549740 0.104000 0.943240 -0.034056
N31   N     N_R   0.049740 0.396000 0.943240 -0.034334
N32   N     N_R   0.049740 0.604000 0.943240 -0.034055
Ni1   Ni    Ni4+2 0.433780 0.065390 0.868430 0.205258
Ni2   Ni    Ni4+2 0.433780 0.934610 0.868430 0.205224
Ni3   Ni    Ni4+2 0.933780 0.565390 0.868430 0.205251
Ni4   Ni    Ni4+2 0.933780 0.434610 0.868430 0.205219
Ni5   Ni    Ni4+2 0.565800 0.934190 0.131570 0.206736
Ni6   Ni    Ni4+2 0.565800 0.065810 0.131570 0.205955
Ni7   Ni    Ni4+2 0.065800 0.434190 0.131570 0.206738
Ni8   Ni    Ni4+2 0.065800 0.565810 0.131570 0.205955
O1    O     O_3   0.111291 0.845924 0.806006 -0.652471
C113  C     C_3   0.088325 0.806016 0.724700 0.377316
H109  H     H_    0.105650 0.763252 0.754506 0.113586
H110  H     H_    0.129162 0.815167 0.691181 0.119274
C114  C     C_3   0.983630 0.810298 0.628734 -1.045625
H111  H     H_    0.967425 0.852187 0.592844 0.272118
H112  H     H_    0.966114 0.780264 0.563391 0.221229
H113  H     H_    0.939027 0.801610 0.657385 0.264997
O2    O     O_3   0.116979 0.159846 0.801227 -0.649335
C115  C     C_3   0.071406 0.200589 0.718054 0.364894
H114  H     H_    0.103122 0.241755 0.748799 0.128209
H115  H     H_    0.994710 0.201684 0.682352 0.071942
C116  C     C_3   0.079537 0.186148 0.625007 -0.966173
H116  H     H_    0.048253 0.145199 0.590828 0.251534
H117  H     H_    0.040855 0.216947 0.557677 0.206885
H118  H     H_    0.155018 0.186012 0.656037 0.271987
O3    O     O_3   0.611297 0.345929 0.806024 -0.652480
C117  C     C_3   0.588305 0.306026 0.724704 0.377322
H119  H     H_    0.605649 0.263262 0.754508 0.113605
H120  H     H_    0.629110 0.315185 0.691147 0.119261
C118  C     C_3   0.483595 0.310301 0.628778 -1.045609
H121  H     H_    0.467375 0.352188 0.592876 0.272108
H122  H     H_    0.466051 0.280263 0.563430 0.221228
H123  H     H_    0.439025 0.301616 0.657476 0.265002
O4    O     O_3   0.616965 0.659810 0.801273 -0.649321
C119  C     C_3   0.571353 0.700534 0.718063 0.364854
H124  H     H_    0.603065 0.741706 0.748759 0.128226
H125  H     H_    0.494665 0.701626 0.682400 0.071960
C120  C     C_3   0.579439 0.686064 0.624992 -0.966214
H126  H     H_    0.548202 0.645096 0.590905 0.251599
H127  H     H_    0.540688 0.716831 0.557609 0.206885
H128  H     H_    0.654906 0.685954 0.655968 0.271951
O5    O     O_3   0.779311 0.265376 0.874598 -0.665503
C121  C     C_3   0.848371 0.232702 0.879587 0.259783
H129  H     H_    0.847755 0.190030 0.905588 0.088802
H130  H     H_    0.919961 0.251023 0.938352 0.102899
C122  C     C_3   0.826765 0.230593 0.765168 -0.968463
H131  H     H_    0.833106 0.272232 0.740107 0.250334
H132  H     H_    0.877325 0.202718 0.765938 0.218881
H133  H     H_    0.753616 0.215035 0.703908 0.256304
O6    O     O_3   0.778148 0.735149 0.874719 -0.637858
C123  C     C_3   0.847942 0.767402 0.880290 0.258912
H134  H     H_    0.918906 0.748156 0.937538 0.098417
H135  H     H_    0.849262 0.809836 0.908626 0.084734
C124  C     C_3   0.825465 0.770770 0.765580 -0.946462
H136  H     H_    0.752537 0.786863 0.705484 0.261483
H137  H     H_    0.876301 0.798828 0.767291 0.219671
H138  H     H_    0.830891 0.729479 0.738490 0.248767
O7    O     O_3   0.279326 0.765371 0.874616 -0.665506
C125  C     C_3   0.348385 0.732688 0.879617 0.259834
H139  H     H_    0.347775 0.690018 0.905647 0.088758
H140  H     H_    0.419974 0.751014 0.938368 0.102890
C126  C     C_3   0.326772 0.730557 0.765189 -0.968396
H141  H     H_    0.333097 0.772194 0.740092 0.250318
H142  H     H_    0.377337 0.702677 0.765971 0.218870
H143  H     H_    0.253625 0.714988 0.703946 0.256286
O8    O     O_3   0.278198 0.235166 0.874779 -0.637838
C127  C     C_3   0.347996 0.267431 0.880386 0.258918
H144  H     H_    0.418959 0.248183 0.937633 0.098417
H145  H     H_    0.349310 0.309857 0.908746 0.084728
C128  C     C_3   0.325534 0.270824 0.765688 -0.946514
H146  H     H_    0.252604 0.286913 0.705591 0.261499
H147  H     H_    0.376366 0.298896 0.767426 0.219685
H148  H     H_    0.330976 0.229544 0.738580 0.248783

loop_
_geom_bond_atom_site_label_1
_geom_bond_atom_site_label_2
_ccdc_geom_bond_type
N25   N30   A    
C55   C59   S    
C67   H37   S    
C15   C109  A    
C77   C101  A    
C42   C58   S    
N27   N32   A    
C67   H57   S    
C118  H123  S    
N18   Ni2   S    
N15   Ni4   S    
C8    H102  S    
C54   H44   S    
C86   C88   S    
C51   H33   S    
C44   H18   S    
C29   C33   S    
C45   H27   S    
C116  H118  S    
C62   C70   S    
C1    N1    A    
C43   H21   S    
C21   H5    S    
C17   C61   S    
C30   H10   S    
C19   C63   S    
C111  N23   A    
C79   C102  A    
C49   O5    S    
C36   C97   A    
C51   C57   S    
C65   H35   S    
C66   H36   S    
C119  C120  S    
C42   H16   S    
N30   Ni1   S    
C78   C101  A    
N22   Ni6   S    
N6    Ni6   S    
C1    H1    S    
C50   O6    S    
C70   H50   S    
C12   H106  S    
C44   C46   S    
N1    Ni1   S    
N2    Ni2   S    
C125  H140  S    
C11   C20   A    
C24   H8    S    
C86   H78   S    
C28   C32   S    
C108  H94   S    
C41   H19   S    
C94   N14   A    
O6    C123  S    
C21   C29   S    
C32   C34   S    
C73   H63   S    
C24   C32   S    
C74   H64   S    
N9    N10   A    
N28   Ni7   S    
C91   H83   S    
C110  N22   A    
C90   C92   S    
C33   H13   S    
N25   Ni6   S    
C79   N11   A    
C52   C58   S    
C14   C107  A    
C46   C62   S    
C55   O3    S    
C7    C19   A    
C96   C104  A    
N19   Ni3   S    
C115  H115  S    
C53   C71   S    
N4    Ni4   S    
C22   H6    S    
C52   H34   S    
C127  C128  S    
C89   C101  S    
C35   N5    A    
C72   H54   S    
C6    N26   A    
C18   C62   S    
C13   C106  A    
C96   H90   S    
C47   H29   S    
C77   N9    A    
N5    Ni5   S    
C84   H70   S    
C14   C88   S    
C119  H125  S    
C2    H2    S    
N31   Ni4   S    
N16   Ni3   S    
C75   H65   S    
C107  H93   S    
C105  H91   S    
C61   C65   S    
C112  N24   A    
C128  H146  S    
C105  N17   A    
C23   C40   S    
C16   C111  A    
C27   C29   S    
C41   H15   S    
N24   Ni8   S    
C54   O2    S    
C9    H103  S    
C82   C89   S    
C64   C68   S    
C24   C26   S    
C23   H7    S    
O1    C113  S    
C126  H142  S    
C7    N27   A    
C53   O1    S    
C83   H69   S    
N21   N22   A    
C90   C102  S    
C127  H145  S    
C124  H137  S    
N12   Ni7   S    
C74   C87   S    
C89   C91   S    
N13   N14   A    
C43   C59   S    
N9    Ni6   S    
O3    C117  S    
C59   C100  S    
C122  H132  S    
C84   C90   S    
C80   N12   A    
C92   H86   S    
C50   H32   S    
C44   H22   S    
C123  H135  S    
N20   Ni4   S    
C62   C66   S    
C43   H17   S    
C36   H40   S    
C42   C48   S    
N2    N5    A    
C80   C102  A    
C10   N30   A    
O5    C121  S    
C114  H112  S    
N10   Ni5   S    
C37   N7    A    
C128  H148  S    
C13   C87   S    
C120  H126  S    
C41   C47   S    
C31   C34   S    
C51   C67   S    
C43   C45   S    
C55   C69   S    
N13   Ni2   S    
N32   Ni3   S    
C8    C20   A    
C53   H43   S    
C52   O8    S    
C21   C25   S    
C3    N3    A    
C22   C30   S    
C47   H23   S    
C48   H24   S    
C42   H20   S    
N8    Ni8   S    
C113  H109  S    
C118  H122  S    
C79   H81   S    
C50   C60   S    
C76   H62   S    
N26   Ni5   S    
C10   H104  S    
C85   H76   S    
C22   C39   S    
C116  H117  S    
C68   H38   S    
C3    C99   A    
C9    C18   A    
C71   H53   S    
C81   H71   S    
C117  H119  S    
C37   C100  A    
N26   N29   A    
C85   H75   S    
C84   H74   S    
N19   N20   A    
C15   C110  A    
C76   C84   S    
C113  C114  S    
N27   Ni8   S    
N17   Ni1   S    
C93   H87   S    
C76   H66   S    
C47   C63   S    
C121  H129  S    
C48   C64   S    
C5    C17   A    
N23   N24   A    
C2    N2    A    
C120  H128  S    
C23   C26   S    
C73   C81   S    
C109  H95   S    
C73   C87   S    
C68   H58   S    
C117  C118  S    
C29   H9    S    
N15   N16   A    
C35   C98   A    
C11   H105  S    
C81   C89   S    
C14   C108  A    
N29   Ni2   S    
O2    C115  S    
C115  C116  S    
C93   C103  A    
C35   H39   S    
C74   C82   S    
C5    H99   S    
C77   H79   S    
C37   H41   S    
C78   H80   S    
C81   H67   S    
C121  C122  S    
C13   C105  A    
C53   C57   S    
C93   N13   A    
C107  N19   A    
N1    N6    A    
C56   C60   S    
C112  H98   S    
O4    C119  S    
C109  N21   A    
C34   H14   S    
N23   Ni7   S    
N21   Ni5   S    
C94   C103  A    
C25   H107  S    
C95   H89   S    
N4    N7    A    
C71   H47   S    
C16   C112  A    
C46   H28   S    
C125  H139  S    
C36   N6    A    
C4    H4    S    
C28   C31   S    
C5    N25   A    
C38   C99   A    
C49   C59   S    
C39   C103  S    
C78   N10   A    
N11   Ni8   S    
C65   H55   S    
C12   N32   A    
C66   H56   S    
C41   C57   S    
C3    H3    S    
C91   H84   S    
C75   C83   S    
C126  H141  S    
C44   C60   S    
C57   C98   S    
C49   H31   S    
C12   C19   A    
C45   C61   S    
C94   H88   S    
C106  H92   S    
C55   H45   S    
C8    N28   A    
C124  H136  S    
C106  N18   A    
C115  H114  S    
C110  H96   S    
C23   C31   S    
C51   O7    S    
C125  C126  S    
C16   C28   S    
C82   H72   S    
C75   H61   S    
C122  H131  S    
C32   H12   S    
C60   C99   S    
C85   C91   S    
O7    C125  S    
C123  C124  S    
C33   C39   S    
C49   C65   S    
C34   C40   S    
C69   H49   S    
C119  H124  S    
C6    H100  S    
C10   C17   A    
C56   H46   S    
C24   C40   S    
C15   C27   S    
C108  N20   A    
C128  H147  S    
C56   O4    S    
C73   H59   S    
C114  H111  S    
C76   C88   S    
C74   H60   S    
C52   C68   S    
N28   N31   A    
N7    Ni7   S    
C46   H26   S    
C27   C30   S    
C58   C97   S    
C95   N15   A    
C85   C87   S    
C6    C18   A    
C63   C67   S    
C26   H108  S    
C1    C97   A    
N3    N8    A    
C126  H143  S    
C113  H110  S    
C118  H121  S    
C4    N4    A    
C22   C25   S    
C11   N31   A    
C20   C64   S    
C9    N29   A    
C111  H97   S    
C127  H144  S    
C40   C104  S    
C21   C39   S    
C124  H138  S    
C45   H25   S    
C116  H116  S    
C96   N16   A    
C48   H30   S    
C50   C66   S    
N14   Ni1   S    
C7    H101  S    
C56   C70   S    
C4    C100  A    
C122  H133  S    
C117  H120  S    
C38   H42   S    
C92   H85   S    
C95   C104  A    
C38   N8    A    
C54   C58   S    
C61   C69   S    
C83   C90   S    
C123  H134  S    
C86   H77   S    
C30   C33   S    
C69   H51   S    
C63   C71   S    
C70   H52   S    
C25   C27   S    
C80   H82   S    
C26   C28   S    
C72   H48   S    
C31   H11   S    
C86   C92   S    
C121  H130  S    
C120  H127  S    
C64   C72   S    
O8    C127  S    
C114  H113  S    
N3    Ni3   S    
C75   C88   S    
C54   C72   S    
C2    C98   A    
C82   H68   S    
N11   N12   A    
C83   H73   S    
N17   N18   A    
