data_mof_unit_1221.cif
_audit_creation_date              2012-12-10T17:17:22-0500
_audit_creation_method            fapswitch 2.2
_symmetry_space_group_name_H-M    P1
_symmetry_Int_Tables_number       1
_space_group_crystal_system       triclinic
_cell_length_a                    10.199638
_cell_length_b                    10.769897
_cell_length_c                    12.725722
_cell_angle_alpha                 90.649313
_cell_angle_beta                  111.49921
_cell_angle_gamma                 97.729593
_cell_volume                      1286.0385175

loop_
_atom_site_label
_atom_site_type_symbol
_atom_type_description
_atom_site_fract_x
_atom_site_fract_y
_atom_site_fract_z
_atom_type_partial_charge
C1    C     C_R   0.053645 0.733600 0.491949 0.882000
C2    C     C_R   0.221981 0.523308 0.838403 -0.259998
C3    C     C_2   0.088510 0.870150 0.487422 -0.049943
C4    C     C_R   0.138960 0.515025 0.714053 0.902730
C5    C     C_2   0.977697 0.936589 0.454115 0.173088
C6    C     C_2   0.895907 0.133570 0.489793 -0.379528
C7    C     C_2   0.996097 0.060435 0.512860 -0.165736
C8    C     C_2   0.419019 0.529491 0.454061 0.577436
C9    C     C_2   0.566439 0.499852 0.468422 -0.185538
C10   C     C_R   0.944789 0.267319 0.505691 0.902626
C11   C     C_R   0.860199 0.469563 0.290247 0.865105
C12   C     C_R   0.429784 0.470917 0.992573 -0.004008
C13   C     C_R   0.769786 0.386003 0.985641 -0.176224
C14   C     C_R   0.778353 0.417887 0.174982 -0.094120
C15   C     C_R   0.156509 0.541103 0.916583 0.563248
C16   C     C_R   0.231656 0.534090 0.033001 0.090235
C17   C     C_R   0.363848 0.491454 0.069520 -0.283252
C18   C     C_3   0.837768 0.886645 0.356759 -0.360326
C19   C     C_3   0.821124 0.960100 0.251617 -0.885818
C20   C     C_3   0.241719 0.936810 0.547449 -0.531663
C21   C     C_3   0.352674 0.881868 0.516172 -0.721000
C22   C     C_3   0.689947 0.681316 0.587264 -0.182537
C23   C     C_R   0.366810 0.504403 0.880538 -0.011133
C24   C     C_3   0.813929 0.720610 0.698962 -0.769317
C25   C     C_3   0.324720 0.312716 0.450247 -0.296812
C26   C     C_3   0.223539 0.249619 0.335790 -0.829735
C27   C     C_3   0.608622 0.410489 0.741364 -0.406077
C28   C     C_3   0.584412 0.267752 0.719402 -0.885656
C29   C     C_3   0.570603 0.256818 0.150018 -0.403452
C30   C     C_3   0.548842 0.243215 0.260907 -0.924874
C31   C     C_3   0.173848 0.574106 0.119383 -0.379947
C32   C     C_3   0.250701 0.702743 0.176202 -0.766962
C33   C     C_3   0.469653 0.643718 0.759910 -0.411228
C34   C     C_R   0.563552 0.429139 0.026181 -0.002785
C35   C     C_3   0.426098 0.755886 0.807585 -0.877060
C36   C     C_R   0.630501 0.416615 0.947104 0.098820
C37   C     C_R   0.563316 0.448255 0.836137 0.059714
C38   C     C_R   0.453134 0.520766 0.815078 0.179047
C39   C     C_R   0.630035 0.390045 0.134639 0.144004
C40   C     C_R   0.846757 0.392912 0.101314 -0.272147
F1    F     F_    0.394560 0.648749 0.435998 -0.726569
F2    F     F_    0.021798 0.568429 0.880688 -0.716536
H1    H     H_    0.959383 0.387456 0.132022 0.169060
H2    H     H_    0.832386 0.787132 0.329873 0.213632
H3    H     H_    0.745947 0.891076 0.383009 0.199229
H4    H     H_    0.377860 0.797541 0.563038 0.302430
H5    H     H_    0.314288 0.860780 0.423313 0.292791
H6    H     H_    0.452814 0.949959 0.542612 0.218381
H7    H     H_    0.251705 0.034916 0.522425 0.226498
H8    H     H_    0.270344 0.938631 0.640525 0.207385
H9    H     H_    0.809667 0.654357 0.763641 0.281937
H10   H     H_    0.918314 0.727708 0.690161 0.298133
H11   H     H_    0.805111 0.814887 0.729724 0.203715
H12   H     H_    0.784560 0.100234 0.440498 0.160768
H13   H     H_    0.593367 0.691848 0.603759 0.174944
H14   H     H_    0.697150 0.748041 0.523017 0.206639
H15   H     H_    0.110759 0.253132 0.323011 0.285956
H16   H     H_    0.245411 0.297551 0.266056 0.224109
H17   H     H_    0.238120 0.149668 0.330774 0.237159
H18   H     H_    0.432672 0.291176 0.465117 0.151380
H19   H     H_    0.297561 0.268349 0.519047 0.217794
H20   H     H_    0.471085 0.229255 0.701027 0.248747
H21   H     H_    0.611779 0.243681 0.645626 0.253070
H22   H     H_    0.652342 0.222250 0.793338 0.262222
H23   H     H_    0.573094 0.424347 0.416066 0.140120
H24   H     H_    0.542931 0.449096 0.663014 0.202310
H25   H     H_    0.721667 0.448181 0.759235 0.248197
H26   H     H_    0.650449 0.272831 0.332754 0.274160
H27   H     H_    0.510783 0.143386 0.268471 0.256501
H28   H     H_    0.466767 0.299632 0.262163 0.257668
H29   H     H_    0.466491 0.223620 0.080454 0.215193
H30   H     H_    0.643830 0.190936 0.145496 0.212186
H31   H     H_    0.366255 0.699957 0.221466 0.276068
H32   H     H_    0.236799 0.773991 0.112030 0.243399
H33   H     H_    0.205016 0.730918 0.238151 0.270255
H34   H     H_    0.825963 0.374072 0.929726 0.189487
H35   H     H_    0.058442 0.580207 0.079434 0.252180
H36   H     H_    0.187933 0.504435 0.184864 0.208613
H37   H     H_    0.308547 0.749857 0.776274 0.249233
H38   H     H_    0.470735 0.761413 0.901611 0.267493
H39   H     H_    0.468871 0.844086 0.779369 0.246279
H40   H     H_    0.584392 0.671401 0.776301 0.202570
H41   H     H_    0.412899 0.630455 0.667368 0.235811
H42   H     H_    0.417559 0.480703 0.158935 0.181467
H43   H     H_    0.099113 0.099576 0.575531 0.143217
H44   H     H_    0.820988 0.061250 0.268490 0.262210
H45   H     H_    0.909801 0.950277 0.222642 0.262655
H46   H     H_    0.718844 0.922174 0.182502 0.249199
N1    N     N_2   0.313640 0.446500 0.454900 -0.089903
N2    N     N_2   0.686360 0.553430 0.545150 -0.068219
O1    O     O_R   0.936910 0.692950 0.509080 -0.635590
O2    O     O_R   0.138320 0.658600 0.480130 -0.542869
O3    O     O_R   0.002900 0.525670 0.675280 -0.544833
O4    O     O_R   0.204310 0.491320 0.646330 -0.622797
O5    O     O_R   0.861680 0.341400 0.519870 -0.617896
O6    O     O_R   0.063090 0.307050 0.490920 -0.611617
O7    O     O_R   0.795690 0.508680 0.353670 -0.613830
O8    O     O_R   0.997100 0.474330 0.324720 -0.605186
Zn1   Zn    Zn3+2 0.865520 0.522940 0.519330 0.939300
Zn2   Zn    Zn3+2 0.134480 0.477060 0.480670 0.952911

loop_
_geom_bond_atom_site_label_1
_geom_bond_atom_site_label_2
_ccdc_geom_bond_type
C24   H10   S    
C19   H44   S    
C32   H33   S    
C35   H39   S    
C16   C31   S    
C12   C23   A    
C29   C30   S    
C11   O8    A    
C36   C37   A    
C37   C38   A    
C19   H45   S    
C32   H32   S    
C11   C14   S    
O5    Zn1   S    
C15   C16   A    
C35   H38   S    
C18   C19   S    
C13   C40   A    
C20   H8    S    
C30   H28   S    
C14   C39   A    
C40   H1    S    
C8    C9    S    
C12   C17   A    
C25   H18   S    
O4    Zn2   S    
C26   H17   S    
O3    Zn1   S    
C29   H30   S    
C24   H9    S    
C1    O1    A    
C21   H5    S    
C6    H12   S    
O7    Zn1   S    
C31   H35   S    
N1    Zn2   S    
C34   C39   A    
C8    F1    S    
C13   C36   A    
C19   H46   S    
C32   H31   S    
C5    C7    S    
C16   C17   A    
C22   H14   S    
C5    C18   S    
C25   C26   S    
C1    C3    S    
C2    C4    S    
C20   H7    S    
C18   H2    S    
C33   H41   S    
C31   C32   S    
C13   H34   S    
C10   O6    A    
C29   C39   S    
C22   N2    S    
C3    C20   S    
C25   H19   S    
C2    C15   A    
C26   H16   S    
C6    C7    D    
C4    O4    A    
C28   H22   S    
C1    O2    A    
O8    Zn2   S    
C22   C24   S    
C12   C34   A    
C18   H3    S    
N2    Zn1   S    
C2    C23   A    
C30   H27   S    
O2    Zn2   S    
C31   H36   S    
C21   H4    S    
C33   H40   S    
C15   F2    S    
C3    C5    D    
C9    N2    D    
C6    C10   S    
C22   H13   S    
C23   C38   A    
C25   N1    S    
C33   C38   S    
C11   O7    A    
C17   H42   S    
C21   H6    S    
C24   H11   S    
C27   H24   S    
C7    H43   S    
C10   O5    A    
C27   C37   S    
O6    Zn2   S    
C35   H37   S    
C33   C35   S    
C34   C36   A    
C26   H15   S    
C9    H23   S    
C27   H25   S    
C14   C40   A    
C4    O3    A    
C28   H21   S    
C20   C21   S    
C27   C28   S    
C8    N1    D    
O1    Zn1   S    
C30   H26   S    
C29   H29   S    
C28   H20   S    
