data_mof_unit_456.cif
_audit_creation_date              2012-12-11T17:37:48-0500
_audit_creation_method            fapswitch 2.2
_symmetry_space_group_name_H-M    P1
_symmetry_Int_Tables_number       1
_space_group_crystal_system       triclinic
_cell_length_a                    12.988677
_cell_length_b                    12.96362
_cell_length_c                    15.417549
_cell_angle_alpha                 116.325411
_cell_angle_beta                  64.106521
_cell_angle_gamma                 97.277915
_cell_volume                      2085.95255571

loop_
_atom_site_label
_atom_site_type_symbol
_atom_type_description
_atom_site_fract_x
_atom_site_fract_y
_atom_site_fract_z
_atom_type_partial_charge
C1    C     C_R   0.007166 0.834310 0.047644 -0.107880
C2    C     C_R   0.298364 0.595364 0.792699 -0.164006
C3    C     C_R   0.260313 0.429985 0.060516 -0.140872
C4    C     C_R   0.683904 0.445125 0.219630 -0.065785
C5    C     C_R   0.996832 0.295224 0.693195 -0.130670
C6    C     C_R   0.360839 0.439120 0.979276 0.059771
C7    C     C_R   0.947339 0.194835 0.690305 0.073920
C8    C     C_R   0.295779 0.563982 0.696538 0.089269
C9    C     C_R   0.039514 0.141512 0.010605 0.072260
C10   C     C_R   0.434675 0.863311 0.319725 -0.085365
C11   C     C_R   0.315239 0.873375 0.374247 -0.055677
C12   C     C_R   0.678038 0.509612 0.321001 0.116293
C13   C     C_R   0.248151 0.937812 0.361802 -0.027346
C14   C     C_R   0.302403 0.993035 0.292913 -0.200211
C15   C     C_R   0.423695 0.981213 0.238072 0.467437
C16   C     C_R   0.741845 0.554786 0.925290 -0.081950
C17   C     C_R   0.488491 0.916484 0.251884 -0.212474
C18   C     C_R   0.088353 0.052300 0.533008 -0.184401
C19   C     C_R   0.972858 0.094793 0.592752 0.044189
C20   C     C_R   0.889603 0.046541 0.554702 0.101356
C21   C     C_R   0.923643 0.947829 0.459305 -0.170108
C22   C     C_R   0.038897 0.904389 0.400411 0.014449
C23   C     C_R   0.640197 0.524257 0.987042 0.091495
C24   C     C_R   0.123638 0.960759 0.432945 0.079772
C25   C     C_R   0.673298 0.044775 0.629945 0.456826
C26   C     C_R   0.566334 0.095848 0.661428 -0.116130
C27   C     C_R   0.557659 0.204832 0.666339 -0.197080
C28   C     C_R   0.010593 0.703718 0.304151 -0.132827
C29   C     C_R   0.655689 0.264016 0.640832 -0.068497
C30   C     C_R   0.762871 0.213740 0.608969 -0.112759
C31   C     C_R   0.773140 0.103696 0.602821 -0.050273
C32   C     C_R   0.864249 0.317208 0.379656 -0.082928
C33   C     C_R   0.759574 0.355218 0.393526 -0.154227
C34   C     C_R   0.064430 0.802032 0.304529 0.099507
C35   C     C_R   0.700008 0.459308 0.481119 0.111757
C36   C     C_R   0.744952 0.521960 0.556342 -0.146915
C37   C     C_R   0.848604 0.482569 0.542919 -0.177912
C38   C     C_R   0.908765 0.380857 0.454097 -0.076451
C39   C     C_R   0.496353 0.525696 0.588594 -0.205341
C40   C     C_R   0.662253 0.465637 0.032361 0.001592
C41   C     C_R   0.391526 0.566227 0.605979 0.024199
C42   C     C_R   0.378678 0.591833 0.531723 -0.114136
C43   C     C_R   0.474655 0.571245 0.435683 0.434583
C44   C     C_R   0.579696 0.526991 0.417774 -0.062318
C45   C     C_R   0.334523 0.505526 0.942210 -0.099704
C46   C     C_R   0.591376 0.504796 0.494829 0.003638
C47   C     C_R   0.209517 0.588599 0.491893 -0.052380
C48   C     C_R   0.107648 0.640828 0.513855 -0.128380
C49   C     C_R   0.062626 0.748456 0.601052 -0.134110
C50   C     C_R   0.119246 0.803975 0.666706 -0.124913
C51   C     C_R   0.221589 0.752459 0.644627 -0.121459
C52   C     C_R   0.090974 0.803461 0.208904 -0.103552
C53   C     C_R   0.268077 0.644689 0.556493 0.143171
C54   C     C_2   0.476190 0.429348 0.965102 -0.205031
C55   C     C_2   0.531102 0.528333 0.988562 -0.182585
C56   C     C_R   0.916453 0.192955 0.787117 -0.104004
C57   C     C_2   0.853539 0.963221 0.069517 -0.192996
C58   C     C_2   0.838086 0.048090 0.165048 -0.125774
C59   C     C_R   0.784820 0.543390 0.314463 -0.110332
C60   C     C_R   0.910381 0.750300 0.947798 -0.130173
C61   C     C_R   0.924998 0.855266 0.020860 0.111919
C62   C     C_2   0.253100 0.410552 0.151144 1.071213
C63   C     C_2   0.234404 0.065287 0.280204 1.048106
C64   C     C_2   0.529862 0.309096 0.914572 1.073083
C65   C     C_2   0.477578 0.647453 0.037689 1.026381
C66   C     C_R   0.200448 0.505262 0.694770 -0.121881
C67   C     C_R   0.069385 0.248072 0.069099 -0.136320
C68   C     C_R   0.971611 0.165752 0.971925 -0.113470
Cl1   Cl    Cl    0.499280 0.053405 0.157665 -0.614876
Cl2   Cl    Cl    0.678680 0.908443 0.627706 -0.692965
Cl3   Cl    Cl    0.464741 0.607910 0.341451 -0.720540
H1    H     H_    0.038890 0.897300 0.102722 0.101838
H2    H     H_    0.275016 0.833663 0.428688 0.154801
H3    H     H_    0.617961 0.395969 0.198733 0.154162
H4    H     H_    0.152120 0.095728 0.561723 0.134211
H5    H     H_    0.861445 0.907439 0.427451 0.157631
H6    H     H_    0.489594 0.051186 0.682513 0.163598
H7    H     H_    0.474710 0.243976 0.691059 0.135998
H8    H     H_    0.648665 0.348604 0.645148 0.125205
H9    H     H_    0.838382 0.259471 0.586590 0.129777
H10   H     H_    0.989630 0.351074 0.443227 0.151194
H11   H     H_    0.754248 0.588257 0.868821 0.118993
H12   H     H_    0.872025 0.127547 0.811875 0.109740
H13   H     H_    0.911444 0.238751 0.310974 0.117012
H14   H     H_    0.726065 0.304908 0.335218 0.137751
H15   H     H_    0.700406 0.602142 0.624621 0.158674
H16   H     H_    0.882684 0.531380 0.601030 0.127323
H17   H     H_    0.503072 0.503831 0.646383 0.126464
H18   H     H_    0.243096 0.504875 0.424368 0.177491
H19   H     H_    0.063569 0.597928 0.463268 0.159411
H20   H     H_    0.983844 0.788747 0.617767 0.143430
H21   H     H_    0.084138 0.887227 0.734413 0.119682
H22   H     H_    0.981534 0.674511 0.366145 0.112460
H23   H     H_    0.169607 0.474521 0.633462 0.102607
H24   H     H_    0.265222 0.796947 0.695502 0.131775
H25   H     H_    0.806245 0.971573 0.029474 0.175293
H26   H     H_    0.879493 0.042954 0.210902 0.119113
H27   H     H_    0.603196 0.419078 0.073995 0.131879
H28   H     H_    0.138366 0.865794 0.181213 0.113855
H29   H     H_    0.810591 0.590088 0.378677 0.132126
H30   H     H_    0.854223 0.737147 0.909741 0.116853
H31   H     H_    0.394280 0.537019 0.886072 0.093449
H32   H     H_    0.087278 0.476313 0.246287 0.274653
H33   H     H_    0.210093 0.109975 0.180224 0.327816
H34   H     H_    0.114054 0.259769 0.116734 0.124087
H35   H     H_    0.673112 0.200939 0.831705 0.327889
H36   H     H_    0.488042 0.799780 0.029944 0.353158
H37   H     H_    0.927929 0.103893 0.927810 0.098430
H38   H     H_    0.356488 0.651011 0.822413 0.129728
H39   H     H_    0.028706 0.325109 0.631428 0.114244
H40   H     H_    0.581374 0.908830 0.211094 0.168644
H41   H     H_    0.486395 0.816558 0.331751 0.194546
N1    N     N_R   0.037320 0.720000 0.995830 -0.044954
N2    N     N_R   0.824900 0.517970 0.936430 -0.053101
N3    N     N_R   0.003190 0.648180 0.211390 -0.052847
N4    N     N_R   0.774330 0.457010 0.995830 -0.049561
N5    N     N_R   0.053760 0.709130 0.151980 -0.044819
N6    N     N_R   0.853840 0.498830 0.211390 -0.057229
N7    N     N_R   0.974250 0.667320 0.936430 -0.047405
N8    N     N_R   0.225670 0.542990 0.004170 -0.029687
N9    N     N_R   0.946240 0.290870 0.848020 -0.043185
N10   N     N_R   0.146160 0.501170 0.788610 -0.045863
N11   N     N_R   0.025750 0.332680 0.063570 -0.055592
N12   N     N_R   0.962680 0.280000 0.004170 -0.044293
N13   N     N_R   0.209230 0.553860 0.848010 -0.045470
N14   N     N_R   0.175100 0.482030 0.063570 -0.077195
N15   N     N_R   0.996810 0.351820 0.788610 -0.045807
N16   N     N_R   0.790770 0.446140 0.151990 -0.057439
Ni1   Ni    Ni4+2 0.130310 0.630310 0.000000 0.242639
Ni2   Ni    Ni4+2 0.869690 0.369690 0.000000 0.243195
Ni3   Ni    Ni4+2 0.985660 0.509480 0.863750 0.214829
Ni4   Ni    Ni4+2 0.014340 0.490520 0.136250 0.215157
O1    O     O_2   0.336622 0.367783 0.143895 -0.555460
O2    O     O_R   0.153100 0.443056 0.246923 -0.812518
O3    O     O_2   0.153812 0.131951 0.358052 -0.679097
O4    O     O_R   0.262626 0.056946 0.178659 -0.739506
O5    O     O_2   0.468626 0.230494 0.921181 -0.598051
O6    O     O_R   0.648695 0.284101 0.856208 -0.817844
O7    O     O_2   0.385010 0.678970 0.116462 -0.630935
O8    O     O_R   0.534960 0.723606 0.993864 -0.811157

loop_
_geom_bond_atom_site_label_1
_geom_bond_atom_site_label_2
_ccdc_geom_bond_type
C25   C31   A    
C2    H38   S    
C8    C66   A    
C18   H4    S    
C6    C45   A    
N11   Ni4   S    
C27   C29   A    
N2    Ni3   S    
C19   C20   A    
N9    Ni2   S    
C27   H7    S    
C68   N12   A    
C3    N14   A    
N11   N12   A    
C39   C41   A    
C64   O6    S    
C21   H5    S    
C26   C27   A    
C29   C30   A    
N1    Ni1   S    
C18   C24   A    
C39   H17   S    
C62   O1    D    
C36   C37   A    
H32   O2    S    
C49   H20   S    
N9    N15   A    
C42   C53   S    
C40   H27   S    
C30   C31   A    
N8    N14   A    
H35   O6    S    
C5    H39   S    
C10   C17   A    
C23   C40   A    
C60   N7    A    
C18   C19   A    
C41   C42   A    
H36   O8    S    
C33   H14   S    
C16   N2    A    
N1    N7    A    
C65   O8    S    
N6    N16   A    
C35   C36   A    
N3    N5    A    
C57   H25   S    
N7    Ni3   S    
C66   N10   A    
C10   H41   S    
C32   C38   A    
C4    C12   A    
N5    Ni1   S    
C4    H3    S    
C47   C53   A    
C30   H9    S    
C52   N5    A    
C3    C6    A    
C28   C34   A    
C48   H19   S    
C13   C14   A    
C59   H29   S    
C47   H18   S    
C58   H26   S    
C1    N1    A    
C7    C56   A    
C6    C54   S    
C15   Cl1   S    
C17   H40   S    
C55   C65   S    
C44   C46   A    
N3    Ni4   S    
C22   C34   S    
C26   H6    S    
C4    N16   A    
N8    Ni1   S    
C1    H1    S    
C8    C41   S    
C11   H2    S    
C5    C7    A    
C67   H34   S    
C36   H15   S    
C25   C26   A    
C13   C24   S    
N16   Ni2   S    
C28   H22   S    
C51   C53   A    
C63   O3    D    
C43   C44   A    
C9    C67   A    
C37   C38   A    
C28   N3    A    
C47   C48   A    
C29   H8    S    
N14   Ni4   S    
C5    N15   A    
C16   H11   S    
C50   C51   A    
N12   Ni2   S    
C57   C61   S    
C39   C46   A    
C45   N8    A    
C50   H21   S    
C48   C49   A    
C16   C23   A    
C7    C19   S    
C38   H10   S    
C22   C24   A    
C42   C43   A    
C60   H30   S    
N10   Ni3   S    
C56   H12   S    
C3    C62   S    
C15   C17   A    
C54   C55   D    
C43   Cl3   S    
H33   O4    S    
C67   N11   A    
C45   H31   S    
C37   H16   S    
C2    C8    A    
C32   H13   S    
C1    C61   A    
N2    N4    A    
C23   C55   S    
C59   N6    A    
C52   H28   S    
C34   C52   A    
C66   H23   S    
C56   N9    A    
C62   O2    S    
N10   N13   A    
C9    C68   A    
C12   C44   S    
C32   C33   A    
C11   C13   A    
C57   C58   D    
C40   N4    A    
C54   C64   S    
C14   C63   S    
C33   C35   A    
C12   C59   A    
N15   Ni3   S    
N6    Ni4   S    
C10   C11   A    
C65   O7    D    
C2    N13   A    
N13   Ni1   S    
N4    Ni2   S    
C20   C21   A    
C49   C50   A    
C64   O5    D    
C14   C15   A    
C60   C61   A    
C63   O4    S    
C25   Cl2   S    
C68   H37   S    
C21   C22   A    
C35   C46   S    
C51   H24   S    
C20   C31   S    
