data_mof_unit_2858.cif
_audit_creation_date              2012-12-10T17:31:26-0500
_audit_creation_method            fapswitch 2.2
_symmetry_space_group_name_H-M    P1
_symmetry_Int_Tables_number       1
_space_group_crystal_system       triclinic
_cell_length_a                    19.016417
_cell_length_b                    18.497594
_cell_length_c                    12.368559
_cell_angle_alpha                 90.000869
_cell_angle_beta                  129.127492
_cell_angle_gamma                 89.998165
_cell_volume                      3375.05845467

loop_
_atom_site_label
_atom_site_type_symbol
_atom_type_description
_atom_site_fract_x
_atom_site_fract_y
_atom_site_fract_z
_atom_type_partial_charge
C1    C     C_R   0.612090 0.898097 0.652633 0.777412
C2    C     C_R   0.662218 0.724752 0.018976 0.167120
C3    C     C_R   0.162279 0.775058 0.019305 0.167164
C4    C     C_R   0.162371 0.225133 0.019562 0.168756
C5    C     C_R   0.585344 0.241276 0.903987 -0.237564
C6    C     C_R   0.585178 0.758145 0.903022 -0.236125
C7    C     C_R   0.085247 0.741570 0.903516 -0.236274
C8    C     C_R   0.085326 0.258650 0.903849 -0.237524
C9    C     C_R   0.587996 0.207800 0.806503 -0.197429
C10   C     C_R   0.588094 0.791925 0.806038 -0.193975
C11   C     C_R   0.088038 0.707928 0.806297 -0.193964
C12   C     C_R   0.611992 0.101975 0.652507 0.777210
C13   C     C_R   0.088010 0.292159 0.806426 -0.197434
C14   C     C_R   0.317440 0.815110 0.149692 -0.248469
C15   C     C_R   0.317392 0.184796 0.149499 -0.250576
C16   C     C_R   0.817354 0.315251 0.149415 -0.250600
C17   C     C_R   0.817560 0.685036 0.149952 -0.248379
C18   C     C_R   0.233857 0.844292 0.231075 -0.183953
C19   C     C_R   0.234108 0.156097 0.231572 -0.186527
C20   C     C_R   0.734165 0.343829 0.231700 -0.186543
C21   C     C_R   0.733641 0.655404 0.230579 -0.183949
C22   C     C_R   0.676775 0.160395 0.738546 -0.104642
C23   C     C_R   0.112006 0.398034 0.652522 0.777242
C24   C     C_R   0.677181 0.839929 0.739103 -0.104048
C25   C     C_R   0.176973 0.660233 0.738836 -0.104120
C26   C     C_R   0.176833 0.339646 0.738617 -0.104651
C27   C     C_R   0.686255 0.000067 0.289235 -0.106169
C28   C     C_R   0.186256 0.499959 0.289236 -0.106176
C29   C     C_R   0.343201 0.000059 0.628959 0.349512
C30   C     C_R   0.843201 0.499920 0.628962 0.349560
C31   C     C_R   0.309602 0.000206 0.702813 0.070859
C32   C     C_R   0.809605 0.499730 0.702818 0.070852
C33   C     C_R   0.384609 0.099146 0.342958 0.799574
C34   C     C_R   0.112040 0.601939 0.652571 0.777485
C35   C     C_R   0.384585 0.900882 0.342927 0.800900
C36   C     C_R   0.884576 0.599108 0.342916 0.800847
C37   C     C_R   0.884611 0.400853 0.342959 0.799562
C38   C     C_R   0.369983 0.000057 0.848300 -0.265210
C39   C     C_R   0.869986 0.499878 0.848305 -0.265149
C40   C     C_R   0.464102 0.000008 0.922721 -0.028647
C41   C     C_R   0.964105 0.499969 0.922723 -0.028639
C42   C     C_R   0.495274 0.000012 0.843015 0.222024
C43   C     C_R   0.995276 0.499986 0.843016 0.221983
C44   C     C_R   0.528100 0.000006 0.073374 -0.023158
C45   C     C_R   0.242479 0.778680 0.033778 0.075125
C46   C     C_R   0.028102 0.499984 0.073375 -0.023167
C47   C     C_R   0.622336 0.000040 0.141688 0.114494
C48   C     C_R   0.122338 0.499973 0.141689 0.114484
C49   C     C_R   0.651021 0.000040 0.061626 -0.257566
C50   C     C_R   0.151022 0.499979 0.061627 -0.257547
C51   C     C_R   0.589390 0.000015 0.917044 -0.148569
C52   C     C_R   0.089391 0.499996 0.917044 -0.148578
C53   C     C_R   0.502687 0.999969 0.160023 0.004582
C54   C     C_R   0.002688 0.500018 0.160023 0.004620
C55   C     C_R   0.656023 0.000050 0.366741 0.020657
C56   C     C_R   0.242436 0.221286 0.033688 0.074874
C57   C     C_R   0.156024 0.499967 0.366742 0.020590
C58   C     C_R   0.659563 0.306097 0.120072 -0.192567
C59   C     C_R   0.659032 0.693036 0.118735 -0.191443
C60   C     C_R   0.159259 0.806592 0.119359 -0.191453
C61   C     C_R   0.159504 0.193813 0.119908 -0.192567
C62   C     C_R   0.312128 0.850519 0.243917 -0.052966
C63   C     C_R   0.312207 0.149576 0.244011 -0.051802
C64   C     C_R   0.812214 0.350419 0.244017 -0.051798
C65   C     C_R   0.812093 0.649440 0.243863 -0.052906
C66   C     C_R   0.752435 0.167893 0.744124 -0.183226
C67   C     C_R   0.742401 0.278737 0.033651 0.074868
C68   C     C_R   0.753222 0.832958 0.745546 -0.180022
C69   C     C_R   0.252823 0.667471 0.744846 -0.180150
C70   C     C_R   0.252549 0.332223 0.744320 -0.183184
C71   C     C_R   0.322550 0.714273 0.839581 -0.143249
C72   C     C_R   0.322176 0.285290 0.838832 -0.150685
C73   C     C_R   0.822018 0.214875 0.838546 -0.150694
C74   C     C_R   0.823099 0.786338 0.840589 -0.143329
C75   C     C_R   0.320081 0.751862 0.934383 -0.178527
C76   C     C_R   0.319771 0.247772 0.933757 -0.184360
C77   C     C_R   0.819636 0.252365 0.933520 -0.184362
C78   C     C_R   0.742593 0.721393 0.033896 0.075141
C79   C     C_R   0.820552 0.748649 0.935224 -0.178546
C80   C     C_R   0.744887 0.245535 0.932401 0.083158
C81   C     C_R   0.745372 0.754909 0.933163 0.083263
C82   C     C_R   0.245117 0.745313 0.932796 0.083200
C83   C     C_R   0.244960 0.254523 0.932502 0.083170
C84   C     C_R   0.669222 0.204020 0.825089 0.080541
C85   C     C_R   0.669555 0.796137 0.825381 0.081115
C86   C     C_R   0.169381 0.703937 0.825253 0.081138
C87   C     C_R   0.169270 0.295996 0.825119 0.080534
C88   C     C_1   0.782988 0.000119 0.364211 0.200485
C89   C     C_R   0.662386 0.274821 0.019649 0.168770
C90   C     C_1   0.282989 0.499930 0.364213 0.200476
Cu1   Cu    Cu3+1 0.526340 1.000000 0.421010 0.936527
Cu2   Cu    Cu3+1 0.026340 0.500000 0.421010 0.936516
Cu3   Cu    Cu3+1 0.473640 0.000000 0.578990 0.937771
Cu4   Cu    Cu3+1 0.973640 0.500000 0.578990 0.937753
H1    H     H_    0.228881 0.870753 0.303749 0.153070
H2    H     H_    0.841216 0.499600 0.900366 0.144440
H3    H     H_    0.619203 0.000004 0.867560 0.206475
H4    H     H_    0.119205 0.500007 0.867561 0.206489
H5    H     H_    0.522593 0.240889 0.888619 0.135762
H6    H     H_    0.522207 0.758148 0.887004 0.136703
H7    H     H_    0.022385 0.741371 0.887820 0.136786
H8    H     H_    0.022545 0.258986 0.888392 0.135746
H9    H     H_    0.598808 0.302959 0.110220 0.132494
H10   H     H_    0.597978 0.695700 0.108124 0.133697
H11   H     H_    0.098345 0.803713 0.109104 0.133607
H12   H     H_    0.229263 0.129884 0.304554 0.149891
H13   H     H_    0.098710 0.196895 0.109956 0.132527
H14   H     H_    0.380994 0.817719 0.168845 0.149158
H15   H     H_    0.380843 0.182011 0.168360 0.148635
H16   H     H_    0.880770 0.318084 0.168174 0.148669
H17   H     H_    0.881229 0.682595 0.169437 0.149030
H18   H     H_    0.759059 0.136009 0.677505 0.153882
H19   H     H_    0.759928 0.865019 0.679189 0.153496
H20   H     H_    0.259490 0.635503 0.678355 0.153579
H21   H     H_    0.259187 0.364134 0.677744 0.153866
H22   H     H_    0.377239 0.786513 0.005496 0.127286
H23   H     H_    0.729359 0.369994 0.304762 0.149855
H24   H     H_    0.376853 0.213019 0.004704 0.127157
H25   H     H_    0.876681 0.287163 0.004391 0.127167
H26   H     H_    0.877839 0.714160 0.006602 0.127226
H27   H     H_    0.380423 0.719710 0.842592 0.131613
H28   H     H_    0.379933 0.279701 0.841583 0.132043
H29   H     H_    0.879724 0.220531 0.841184 0.132037
H30   H     H_    0.881142 0.781128 0.843975 0.131633
H31   H     H_    0.524710 0.186409 0.715121 0.175261
H32   H     H_    0.524836 0.813211 0.714414 0.175885
H33   H     H_    0.024769 0.686582 0.714804 0.176082
H34   H     H_    0.728529 0.628764 0.302967 0.153089
H35   H     H_    0.024727 0.313534 0.715006 0.175205
H36   H     H_    0.704206 0.000076 0.479583 0.125568
H37   H     H_    0.204206 0.499951 0.479583 0.125602
H38   H     H_    0.239097 0.954304 0.448406 0.206420
H39   H     H_    0.239924 0.045144 0.446744 0.185428
H40   H     H_    0.739059 0.545675 0.448449 0.206417
H41   H     H_    0.739956 0.454839 0.446723 0.185434
H42   H     H_    0.189249 0.051761 0.586140 0.216362
H43   H     H_    0.199073 0.991318 0.695957 0.234150
H44   H     H_    0.689288 0.448129 0.586145 0.216353
H45   H     H_    0.722425 0.000054 0.110550 0.165700
H46   H     H_    0.699072 0.508550 0.695963 0.234161
H47   H     H_    0.222426 0.499978 0.110551 0.165696
H48   H     H_    0.432859 0.999902 0.117300 0.131146
H49   H     H_    0.932860 0.500077 0.117300 0.131168
H50   H     H_    0.341211 0.000299 0.900360 0.144431
N1    N     N_R   0.566260 0.000000 0.302220 -0.186353
N2    N     N_3   0.713389 0.499804 0.628092 -0.597952
N3    N     N_R   0.066260 0.500000 0.302220 -0.186362
N4    N     N_R   0.434410 1.000000 0.697680 -0.220641
N5    N     N_R   0.934410 0.500000 0.697680 -0.220654
N6    N     N_1   0.860423 0.000161 0.424314 -0.282389
N7    N     N_1   0.360424 0.499907 0.424316 -0.282384
N8    N     N_3   0.281006 0.999406 0.480104 -0.522482
N9    N     N_3   0.781003 0.500597 0.480108 -0.522537
N10   N     N_3   0.213386 0.000090 0.628086 -0.597950
O1    O     O_R   0.608610 0.924520 0.551740 -0.578600
O2    O     O_R   0.435880 0.924530 0.314850 -0.586960
O3    O     O_R   0.935880 0.575470 0.314850 -0.586930
O4    O     O_R   0.935880 0.424530 0.314850 -0.587367
O5    O     O_R   0.391380 0.075460 0.448260 -0.564339
O6    O     O_R   0.391380 0.924540 0.448260 -0.562255
O7    O     O_R   0.891380 0.575460 0.448260 -0.562224
O8    O     O_R   0.891380 0.424540 0.448260 -0.564371
O9    O     O_R   0.608610 0.075480 0.551740 -0.579590
O10   O     O_R   0.108610 0.424520 0.551740 -0.579542
O11   O     O_R   0.108610 0.575480 0.551740 -0.578663
O12   O     O_R   0.564110 0.924510 0.685150 -0.603486
O13   O     O_R   0.564110 0.075490 0.685150 -0.603712
O14   O     O_R   0.064110 0.424510 0.685150 -0.603667
O15   O     O_R   0.064110 0.575490 0.685150 -0.603573
O16   O     O_R   0.435880 0.075470 0.314850 -0.587352

loop_
_geom_bond_atom_site_label_1
_geom_bond_atom_site_label_2
_ccdc_geom_bond_type
C51   H3    S    
C83   C87   A    
C13   C87   A    
C10   C85   A    
C8    C13   A    
C15   H15   S    
C74   H30   S    
C45   C82   A    
C80   C84   A    
C42   N4    A    
C37   C64   S    
C29   N4    A    
C16   H16   S    
C39   C41   A    
C28   C57   A    
Cu4   N5    S    
C7    C11   A    
C59   H10   S    
C38   C40   A    
H44   N2    S    
C21   C59   A    
C3    C7    A    
Cu4   O15   S    
C27   C55   A    
C43   C52   A    
C55   N1    A    
H40   N9    S    
C32   N2    S    
C13   H35   S    
C11   C86   A    
C68   C74   A    
C14   C62   A    
C12   C22   S    
C67   C89   A    
Cu3   N4    S    
Cu2   O4    S    
C53   H48   S    
C23   C26   S    
C52   H4    S    
C1    O1    A    
C35   O6    A    
C22   C66   A    
C44   C53   A    
C30   N9    S    
C5    H5    S    
C19   C63   A    
C26   C87   A    
C49   C51   A    
C50   C52   A    
C41   C46   A    
C34   O11   A    
C24   C85   A    
Cu4   O8    S    
C43   N5    A    
C50   H47   S    
C4    C8    A    
C25   C34   S    
C21   C65   A    
C3    C60   A    
Cu2   O10   S    
C40   C42   A    
C54   H49   S    
C4    C56   A    
Cu2   N3    S    
C18   H1    S    
C41   C43   A    
Cu1   O9    S    
C2    C6    A    
H39   N8    S    
C38   H50   S    
C12   O13   A    
C33   O16   A    
C17   H17   S    
C76   C83   A    
C53   N1    A    
C20   H23   S    
C57   H37   S    
C14   C45   A    
C5    C89   A    
C46   C48   A    
C69   H20   S    
C71   C75   A    
C69   C71   A    
C35   O2    A    
C47   C49   A    
Cu4   O14   S    
C79   C81   A    
C2    C59   A    
C18   C62   A    
C30   N5    A    
C73   H29   S    
C82   C86   A    
C66   C73   A    
C4    C61   A    
C3    C45   A    
C9    H31   S    
Cu2   O3    S    
C22   C84   A    
C37   O4    A    
C20   C64   A    
Cu3   O6    S    
C11   H33   S    
C5    C9    A    
C2    C78   A    
Cu1   Cu3   S    
H42   N10   S    
C33   C63   S    
C55   H36   S    
C79   H26   S    
C46   C54   A    
Cu2   Cu4   S    
C72   C76   A    
C16   C67   A    
C21   H34   S    
C48   C50   A    
Cu4   O7    S    
C34   O15   A    
C36   O3    A    
C18   C60   A    
Cu3   O12   S    
Cu2   O11   S    
C74   C79   A    
C57   N3    A    
C36   O7    A    
C26   C70   A    
C25   C86   A    
C25   C69   A    
Cu1   O1    S    
C20   C58   A    
Cu1   N1    S    
C31   N10   S    
C56   C83   A    
C23   O10   A    
C77   C80   A    
C27   C47   A    
C28   C48   A    
C15   C63   A    
Cu1   O16   S    
C72   H28   S    
C36   C65   S    
C88   N6    T    
C71   H27   S    
C67   C80   A    
C90   N7    T    
C77   H25   S    
C6    C10   A    
C28   C90   S    
C44   C47   A    
C75   C82   A    
C75   H22   S    
C42   C51   A    
C70   H21   S    
C68   H19   S    
C17   C65   A    
H41   N9    S    
C31   C38   A    
C15   C56   A    
C49   H45   S    
Cu1   O2    S    
C29   C31   A    
C29   N8    S    
C30   C32   A    
C78   C81   A    
C1    O12   A    
C19   C61   A    
H38   N8    S    
C14   H14   S    
C17   C78   A    
H43   N10   S    
C35   C62   S    
C27   C88   S    
C61   H13   S    
C58   C89   A    
C76   H24   S    
C39   H2    S    
C24   C68   A    
C9    C84   A    
C23   O14   A    
C19   H12   S    
H46   N2    S    
C40   C44   A    
Cu3   O13   S    
C1    C24   S    
Cu3   O5    S    
C7    H7    S    
C32   C39   A    
C73   C77   A    
C54   N3    A    
C70   C72   A    
C58   H9    S    
C16   C64   A    
C66   H18   S    
C10   H32   S    
C8    H8    S    
C81   C85   A    
C60   H11   S    
C33   O5    A    
C6    H6    S    
C37   O8    A    
C12   O9    A    
