data_mof_unit_877.cif
_audit_creation_date              2013-03-05T16:02:40-0500
_audit_creation_method            fapswitch 2.2
_symmetry_space_group_name_H-M    P1
_symmetry_Int_Tables_number       1
_space_group_crystal_system       triclinic
_cell_length_a                    6.952166
_cell_length_b                    17.259884
_cell_length_c                    18.859953
_cell_angle_alpha                 106.109307
_cell_angle_beta                  89.344483
_cell_angle_gamma                 90.197851
_cell_volume                      2174.06924904

loop_
_atom_site_label
_atom_site_type_symbol
_atom_site_description
_atom_site_fract_x
_atom_site_fract_y
_atom_site_fract_z
_atom_type_partial_charge
O1    O     O_R   0.494360 0.415680 0.413760 -0.596173
O2    O     O_R   0.818810 0.432910 0.557230 -0.556940
O3    O     O_R   0.994290 0.584320 0.586240 -0.547219
C1    C     C_R   0.649846 0.415887 0.580566 0.968971
O4    O     O_R   0.823740 0.406440 0.412520 -0.574464
O5    O     O_R   0.999250 0.557660 0.440500 -0.522629
C2    C     C_R   0.656313 0.384783 0.383784 0.954481
O6    O     O_R   0.489400 0.442340 0.559500 -0.555463
O7    O     O_3   0.662500 0.549650 0.509350 -0.246861
V1    V     V_3+5 0.935340 0.490790 0.498270 1.304088
O8    O     O_R   0.329270 0.567090 0.442770 -0.564941
C3    C     C_R   0.161544 0.583653 0.419041 1.062917
O9    O     O_R   0.324340 0.593560 0.587480 -0.609502
C4    C     C_R   0.153858 0.617609 0.613930 1.094719
V2    V     V_3+5 0.435970 0.509210 0.501730 1.270198
O10   O     O_3   0.158940 0.450350 0.490650 -0.270714
C5    C     C_R   0.244222 0.592313 0.753870 0.208684
C6    C     C_R   0.356179 0.582752 0.811935 0.478004
C7    C     C_R   0.377306 0.647965 0.874045 -0.365447
C8    C     C_R   0.280200 0.720222 0.879908 0.314468
C9    C     C_R   0.199348 0.736669 0.816139 -0.075024
C10   C     C_R   0.193952 0.671578 0.750279 -0.139065
C11   C     C_R   0.123493 0.814128 0.816108 -0.178734
C12   C     C_R   0.059720 0.827586 0.748173 -0.054312
C13   C     C_R   0.069673 0.763265 0.681125 -0.109741
C14   C     C_R   0.138165 0.685550 0.682702 -0.135106
C15   C     C_R   0.993552 0.905138 0.744596 0.322968
C16   C     C_R   0.908940 0.913877 0.679621 0.075158
C17   C     C_R   0.917411 0.850721 0.614366 0.307354
C18   C     C_R   0.012837 0.778788 0.613608 0.390281
H1    H     H_    0.445960 0.638701 0.922343 0.207476
C19   C     C_1   0.110768 0.867247 0.135507 -0.141898
C20   C     C_1   0.118601 0.824346 0.178781 0.158237
C21   C     C_1   0.128469 0.773404 0.230027 0.092167
C22   C     C_1   0.136863 0.730395 0.273202 0.086482
C23   C     C_1   0.146622 0.679318 0.324335 0.155216
C24   C     C_1   0.154212 0.636128 0.367361 -0.186708
C25   C     C_1   0.641618 0.364236 0.632861 -0.141897
C26   C     C_1   0.637614 0.322059 0.676793 0.176538
C27   C     C_1   0.634316 0.272335 0.729116 0.074379
C28   C     C_1   0.631814 0.230340 0.773214 0.099279
C29   C     C_1   0.628383 0.180224 0.825199 0.182031
C30   C     C_1   0.624118 0.137204 0.868411 -0.215445
C31   C     C_R   0.645107 0.413140 0.236349 0.212676
C32   C     C_R   0.597967 0.430256 0.170455 0.364685
C33   C     C_R   0.538010 0.368020 0.109593 0.069118
C34   C     C_R   0.537569 0.287314 0.113302 0.312029
C35   C     C_R   0.593911 0.268268 0.179458 -0.039592
C36   C     C_R   0.629908 0.333303 0.243851 -0.181399
C37   C     C_R   0.613169 0.186526 0.183109 -0.183422
C38   C     C_R   0.641667 0.170424 0.252892 -0.020059
C39   C     C_R   0.659590 0.236419 0.317609 -0.020598
C40   C     C_R   0.651184 0.317299 0.313716 -0.111286
C41   C     C_R   0.644119 0.089990 0.260802 0.301265
C42   C     C_R   0.680573 0.076874 0.330475 0.096237
C43   C     C_R   0.703405 0.143033 0.393135 0.460235
C44   C     C_R   0.687438 0.220734 0.386367 -0.288703
H2    H     H_    0.703059 0.269171 0.436596 0.144094
O11   O     O_R   0.775690 0.057750 0.940570 -0.566264
O12   O     O_R   0.441200 0.093570 0.087490 -0.563161
O13   O     O_R   0.265840 0.942320 0.059480 -0.553179
C45   C     C_R   0.608985 0.118137 0.114045 1.177157
O14   O     O_R   0.446270 0.067110 0.942790 -0.562349
O15   O     O_R   0.270950 0.915660 0.913750 -0.593262
C46   C     C_R   0.615363 0.084328 0.919612 1.023023
O16   O     O_R   0.770580 0.084400 0.086300 -0.606977
O17   O     O_3   0.602640 0.950400 0.990690 -0.242478
V3    V     V_3+5 0.329740 0.009200 0.001730 1.271743
O18   O     O_R   0.940900 0.906360 0.912450 -0.554656
C47   C     C_R   0.111381 0.881390 0.886226 1.122639
O19   O     O_R   0.935830 0.932820 0.057160 -0.550718
C48   C     C_R   0.103248 0.918801 0.082979 1.037004
V4    V     V_3+5 0.829130 0.990680 0.998180 1.282957
O20   O     O_3   0.106100 0.049590 0.009310 -0.277259
O21   O     O_3   0.834461 0.856802 0.549673 -0.698796
H3    H     H_    0.745391 0.903228 0.559931 0.382163
N1    N     N_R   0.742204 0.475225 0.290251 0.248710
O22   O     O_R   0.653831 0.542384 0.322207 -0.358206
O23   O     O_R   0.928713 0.472219 0.293043 -0.418395
O24   O     O_3   0.622074 0.508803 0.167007 -0.656450
H4    H     H_    0.622507 0.510631 0.115067 0.365840
N2    N     N_R   0.485625 0.386135 0.042490 0.237957
O25   O     O_R   0.344918 0.435654 0.042483 -0.353406
O26   O     O_R   0.578752 0.353290 0.981328 -0.382635
O27   O     O_3   0.475136 0.226973 0.053419 -0.768387
H5    H     H_    0.386195 0.249058 0.023315 0.356667
O28   O     O_3   0.603931 0.025054 0.200853 -0.758011
H6    H     H_    0.557065 0.978802 0.217606 0.355646
N3    N     N_R   0.693559 0.996243 0.337239 0.231840
O29   O     O_R   0.574440 0.971762 0.380208 -0.354940
O30   O     O_R   0.818802 0.946050 0.297915 -0.397110
N4    N     N_R   0.149942 0.522122 0.708228 0.236010
O31   O     O_R   0.962889 0.520487 0.706653 -0.411896
O32   O     O_R   0.243963 0.455141 0.681789 -0.358704
O33   O     O_3   0.423564 0.507089 0.810479 -0.674954
H7    H     H_    0.498596 0.510806 0.855720 0.345647
N5    N     N_R   0.237669 0.767676 0.952951 0.202452
O34   O     O_R   0.375366 0.783827 0.001038 -0.398595
O35   O     O_R   0.061009 0.766896 0.976230 -0.445315
O36   O     O_3   0.018259 0.972528 0.803970 -0.743312
H8    H     H_    0.001242 0.022716 0.789107 0.348771
N6    N     N_R   0.816055 0.987992 0.680060 0.232696
O37   O     O_R   0.887539 0.033802 0.641959 -0.357053
O38   O     O_R   0.654718 0.007713 0.715972 -0.415975
O39   O     O_3   0.049462 0.722657 0.546820 -0.784843
H9    H     H_    0.032148 0.746708 0.505400 0.360664
O40   O     O_3   0.743616 0.135008 0.462353 -0.699380
H10   H     H_    0.784201 0.079093 0.458334 0.375987

loop_
_geom_bond_atom_site_label_1
_geom_bond_atom_site_label_2
_geom_bond_distance
_ccdc_geom_bond_type
C31   C36   1.427179 A    
O28   H6    0.989490 S    
O14   C46   1.311214 A    
C28   C29   1.476471 S    
C41   C42   1.419582 A    
C7    C8    1.396746 A    
C12   C15   1.436284 A    
C1    O6    1.313337 A    
C7    H1    1.083710 S    
N5    O34   1.301664 A    
C19   C48   1.505536 S    
N1    O22   1.301193 A    
C31   C32   1.397448 A    
C34   O27   1.379837 S    
C16   C17   1.400226 A    
C6    C7    1.389881 A    
O5    C3    1.313368 A    
C41   O28   1.383623 S    
V3    O20   1.694362 S    
V2    O10   2.159388 S    
C43   C44   1.386927 A    
O12   C45   1.297450 A    
C21   C22   1.246733 T    
V4    O20   2.159374 S    
C3    C24   1.504751 S    
N4    O31   1.301132 A    
C33   N2    1.436300 S    
O8    V2    1.850740 S    
C8    N5    1.422048 S    
O33   H7    0.991868 S    
O40   H10   0.988706 S    
O18   V4    2.002330 S    
O17   V4    1.710463 S    
O15   C47   1.299322 A    
N3    O30   1.300998 A    
O7    V1    2.135449 S    
O11   V4    1.835443 S    
C35   C37   1.438255 A    
O9    C4    1.304163 A    
C6    O33   1.381932 S    
C11   C47   1.499947 S    
N6    O37   1.301131 A    
C5    N4    1.437711 S    
N5    O35   1.300829 A    
C20   C21   1.478330 S    
N1    O23   1.300111 A    
C15   O36   1.384406 S    
C45   O16   1.302680 A    
C38   C39   1.426091 A    
C12   C13   1.433799 A    
C26   C27   1.476540 S    
O19   V4    1.850780 S    
C37   C38   1.434559 A    
C13   C14   1.433081 A    
O27   H5    0.989827 S    
O16   V4    2.010359 S    
O17   V3    2.135386 S    
C22   C23   1.478333 S    
O2    C1    1.310505 A    
O21   H3    0.988745 S    
C43   O40   1.382200 S    
C17   C18   1.406206 A    
C16   N6    1.432876 S    
C34   C35   1.434554 A    
C30   C46   1.502124 S    
C42   C43   1.407079 A    
N4    O32   1.300115 A    
C5    C6    1.397486 A    
C4    C14   1.490945 S    
N6    O38   1.299997 A    
O3    C4    1.294542 A    
O1    V2    2.006553 S    
O13   C48   1.313062 A    
C35   C36   1.430395 A    
C1    C25   1.502361 S    
O6    V2    1.835006 S    
N2    O26   1.301430 A    
C9    C11   1.439021 A    
C18   O39   1.381023 S    
C37   C45   1.496055 S    
C29   C30   1.245605 T    
C2    C40   1.500288 S    
O2    V1    1.865770 S    
O15   V3    2.012761 S    
C39   C40   1.419555 A    
O4    C2    1.298966 A    
C13   C18   1.432121 A    
C33   C34   1.413966 A    
C27   C28   1.245599 T    
O1    C2    1.301531 A    
O24   H4    0.988778 S    
O5    V1    1.843866 S    
O8    C3    1.314129 A    
C17   O21   1.385575 S    
C31   N1    1.429541 S    
O39   H9    0.989699 S    
O14   V3    1.865854 S    
C5    C10   1.433069 A    
C38   C41   1.437015 A    
C19   C20   1.246595 T    
O9    V2    2.002446 S    
O7    V2    1.711722 S    
O4    V1    2.012782 S    
C42   N3    1.435562 S    
O3    V1    2.012786 S    
V1    O10   1.694414 S    
O11   C46   1.312743 A    
O13   V3    1.843697 S    
C44   H2    1.081824 S    
C25   C26   1.245504 T    
C36   C40   1.428661 A    
O36   H8    0.989526 S    
C32   O24   1.384695 S    
O18   C47   1.306490 A    
C39   C44   1.411856 A    
C11   C12   1.439089 A    
C32   C33   1.403139 A    
O19   C48   1.315546 A    
C8    C9    1.431451 A    
O12   V3    2.012690 S    
C23   C24   1.246565 T    
N2    O25   1.301253 A    
C10   C14   1.419659 A    
C15   C16   1.410718 A    
N3    O29   1.301279 A    
C9    C10   1.425763 A    
