data_mof_unit_1930.cif
_audit_creation_date              2012-12-10T18:11:02-0500
_audit_creation_method            fapswitch 2.2
_symmetry_space_group_name_H-M    P1
_symmetry_Int_Tables_number       1
_space_group_crystal_system       triclinic
_cell_length_a                    10.734322
_cell_length_b                    9.493187
_cell_length_c                    10.664713
_cell_angle_alpha                 90.712431
_cell_angle_beta                  88.217713
_cell_angle_gamma                 89.854868
_cell_volume                      1086.15110235

loop_
_atom_site_label
_atom_site_type_symbol
_atom_type_description
_atom_site_fract_x
_atom_site_fract_y
_atom_site_fract_z
_atom_type_partial_charge
C1    C     C_R   0.259767 0.499931 0.501409 0.825669
C2    C     C_3   0.497491 0.498099 0.121826 -0.005296
C3    C     C_3   0.067808 0.594273 0.610529 -0.480296
C4    C     C_3   0.070525 0.347593 0.522169 -0.439997
C5    C     C_3   0.923971 0.591437 0.612638 -0.388338
C6    C     C_3   0.927991 0.346760 0.518591 -0.390931
C7    C     C_3   0.074441 0.554400 0.375011 1.068012
C8    C     C_3   0.121367 0.499362 0.502045 0.033652
C9    C     C_3   0.877527 0.498846 0.502764 0.042244
C10   C     C_3   0.930428 0.557761 0.377346 -0.421711
C11   C     C_3   0.601934 0.083965 0.578436 -0.190851
C12   C     C_3   0.601705 0.917480 0.578750 -0.193478
C13   C     C_3   0.378319 0.085240 0.554169 0.179690
C14   C     C_3   0.378343 0.916528 0.554025 0.169909
C15   C     C_3   0.518368 0.081521 0.374879 -0.274609
C16   C     C_3   0.519119 0.915180 0.374740 -0.258665
C17   C     C_R   0.498023 0.499228 0.259350 0.839338
C18   C     C_R   0.739678 0.499680 0.501782 0.789925
C19   C     C_R   0.502215 0.500932 0.740023 0.778457
C20   C     C_3   0.410678 0.586106 0.041945 0.159213
C21   C     C_3   0.478198 0.369997 0.035332 0.229180
C22   C     C_3   0.389455 0.457207 0.955913 -0.166925
C23   C     C_3   0.502911 0.502936 0.876008 -0.047559
C24   C     C_3   0.522933 0.633277 0.959660 -0.149025
C25   C     C_3   0.591516 0.414357 0.953209 -0.167137
C26   C     C_3   0.610828 0.544253 0.040212 -0.260854
Cu1   Cu    Cu3+1 0.499860 0.642410 0.500060 0.913460
Cu2   Cu    Cu3+1 0.499860 0.357590 0.500060 0.901976
H1    H     H_    0.298821 0.421775 0.919329 0.129419
H2    H     H_    0.897152 0.667814 0.365322 0.167540
H3    H     H_    0.895129 0.494595 0.297325 0.152791
H4    H     H_    0.595761 0.125191 0.676189 0.148468
H5    H     H_    0.594953 0.879276 0.676577 0.144951
H6    H     H_    0.693828 0.119856 0.540191 0.139886
H7    H     H_    0.693702 0.879644 0.541079 0.142683
H8    H     H_    0.441823 0.117322 0.315549 0.160978
H9    H     H_    0.444407 0.877130 0.313341 0.160946
H10   H     H_    0.606981 0.120614 0.331215 0.163082
H11   H     H_    0.608651 0.875739 0.331976 0.162615
H12   H     H_    0.303835 0.116685 0.489609 0.113688
H13   H     H_    0.304054 0.883560 0.489238 0.151950
H14   H     H_    0.540950 0.741836 0.926136 0.132999
H15   H     H_    0.665722 0.343415 0.913916 0.129331
H16   H     H_    0.701479 0.579727 0.076612 0.142639
H17   H     H_    0.099849 0.704749 0.598467 0.207503
H18   H     H_    0.108772 0.274090 0.448382 0.213959
H19   H     H_    0.101936 0.557424 0.702063 0.164690
H20   H     H_    0.099635 0.307580 0.614430 0.172383
H21   H     H_    0.888301 0.549061 0.703715 0.168796
H22   H     H_    0.889078 0.300549 0.606888 0.171160
H23   H     H_    0.888070 0.701042 0.605387 0.175311
H24   H     H_    0.898833 0.278269 0.439248 0.184417
N1    N     N_3   0.500250 0.143650 0.502780 -0.125811
N2    N     N_3   0.500250 0.856350 0.502780 -0.129303
O1    O     O_R   0.317570 0.620260 0.500070 -0.566191
O2    O     O_R   0.317570 0.379740 0.500070 -0.602888
O3    O     O_R   0.499850 0.620240 0.316900 -0.586272
O4    O     O_R   0.499850 0.379760 0.316900 -0.582695
O5    O     O_R   0.682190 0.620260 0.500030 -0.597532
O6    O     O_R   0.682190 0.379740 0.500030 -0.596744
O7    O     O_R   0.499910 0.620280 0.683200 -0.596827
O8    O     O_R   0.499910 0.379720 0.683200 -0.592860
C27   C     C_3   0.334741 0.150423 0.683332 -0.784328
H25   H     H_    0.400038 0.126765 0.758666 0.220209
H26   H     H_    0.316931 0.263618 0.683290 0.256546
H27   H     H_    0.240644 0.112588 0.710995 0.177131
C28   C     C_3   0.335002 0.854728 0.683166 -0.789747
H28   H     H_    0.399257 0.881533 0.759171 0.216682
H29   H     H_    0.240103 0.892121 0.709961 0.179348
H30   H     H_    0.319135 0.741349 0.683295 0.260385
C29   C     C_3   0.307538 0.685993 0.086687 -0.784381
H31   H     H_    0.263302 0.733340 0.004388 0.212706
H32   H     H_    0.236420 0.627262 0.141622 0.313104
H33   H     H_    0.346426 0.771146 0.145435 0.230336
C30   C     C_3   0.451860 0.218463 0.070523 -0.890183
H34   H     H_    0.435948 0.154979 0.984537 0.222220
H35   H     H_    0.533405 0.174441 0.117917 0.223812
H36   H     H_    0.367069 0.214262 0.132500 0.250213
F1    F     F_    0.119254 0.689056 0.352764 -0.712221
F2    F     F_    0.117025 0.466227 0.278138 -0.721947

loop_
_geom_bond_atom_site_label_1
_geom_bond_atom_site_label_2
_ccdc_geom_bond_type
C7    C10   S    
C27   H26   S    
C22   H1    S    
C1    C8    S    
C24   H14   S    
C4    C8    S    
C25   H15   S    
C6    C9    S    
Cu2   O2    S    
Cu1   N2    S    
C26   H16   S    
C7    C8    S    
C4    H18   S    
C15   N1    S    
C1    O2    A    
C24   C26   S    
Cu1   O1    S    
C19   O8    A    
C15   C16   S    
C13   H12   S    
Cu1   O7    S    
C10   H3    S    
C20   C24   S    
C14   C28   S    
C20   C29   S    
C9    C10   S    
C11   N1    S    
C16   H9    S    
C27   H27   S    
C13   C14   S    
C2    C17   S    
C5    H21   S    
C13   N1    S    
Cu2   O6    S    
C17   O4    A    
C2    C20   S    
C28   H28   S    
C4    C6    S    
C3    C8    S    
Cu1   O3    S    
C29   H32   S    
C25   C26   S    
C3    H17   S    
C28   H29   S    
C19   C23   S    
C30   H34   S    
C15   H10   S    
C5    C9    S    
C10   H2    S    
C13   C27   S    
C23   C24   S    
C2    C21   S    
C2    C26   S    
C6    H22   S    
C12   H7    S    
C30   H35   S    
C18   O5    A    
C14   H13   S    
C18   O6    A    
C14   N2    S    
C20   C22   S    
C11   H4    S    
C15   H8    S    
C7    F1    S    
C4    H20   S    
C21   C25   S    
C11   H6    S    
C3    C5    S    
C29   H33   S    
Cu2   N1    S    
Cu2   O4    S    
C21   C30   S    
C28   H30   S    
C1    O1    A    
C29   H31   S    
Cu1   O5    S    
C19   O7    A    
C3    H19   S    
C23   C25   S    
C30   H36   S    
C16   N2    S    
C16   H11   S    
C27   H25   S    
C9    C18   S    
Cu1   Cu2   S    
C22   C23   S    
C5    H23   S    
C6    H24   S    
C12   H5    S    
C21   C22   S    
C12   N2    S    
C11   C12   S    
C17   O3    A    
C7    F2    S    
Cu2   O8    S    
