data_mof_unit_3012.cif
_audit_creation_date              2012-12-10T17:55:05-0500
_audit_creation_method            fapswitch 2.2
_symmetry_space_group_name_H-M    P1
_symmetry_Int_Tables_number       1
_space_group_crystal_system       triclinic
_cell_length_a                    8.725967
_cell_length_b                    10.79794
_cell_length_c                    9.690776
_cell_angle_alpha                 90.291686
_cell_angle_beta                  97.904967
_cell_angle_gamma                 95.062063
_cell_volume                      900.747457449

loop_
_atom_site_label
_atom_site_type_symbol
_atom_type_description
_atom_site_fract_x
_atom_site_fract_y
_atom_site_fract_z
_atom_type_partial_charge
C1    C     C_R   0.502182 0.262968 0.499668 0.787926
C2    C     C_R   0.497817 0.737036 0.500332 0.787937
C3    C     C_R   0.204273 0.499433 0.464041 0.860058
C4    C     C_R   0.795727 0.500570 0.535958 0.860024
C5    C     C_2   0.038011 0.499096 0.444689 -0.375471
C6    C     C_2   0.961990 0.500909 0.555310 -0.375454
C7    C     C_R   0.600808 0.068616 0.420018 0.175539
C8    C     C_R   0.399181 0.931389 0.579975 0.175571
C9    C     C_R   0.595381 0.939488 0.422356 -0.227871
C10   C     C_R   0.404638 0.060522 0.577663 -0.227842
C11   C     C_R   0.496410 0.871070 0.501512 -0.061374
C12   C     C_R   0.503594 0.128935 0.498493 -0.061366
C13   C     C_R   0.398276 0.418959 0.061118 0.231521
C14   C     C_R   0.601743 0.581024 0.938883 0.231510
C15   C     C_R   0.398065 0.419151 0.912881 0.244081
C16   C     C_R   0.601932 0.580852 0.087119 0.244090
Cu1   Cu    Cu3+1 0.500000 0.500020 0.640660 0.924184
Cu2   Cu    Cu3+1 0.500000 0.499980 0.359340 0.924190
H1    H     H_    0.977930 0.497229 0.338619 0.182165
H2    H     H_    0.022070 0.502778 0.661381 0.182158
H3    H     H_    0.670607 0.891782 0.364074 0.142850
H4    H     H_    0.329423 0.108230 0.635956 0.142851
N1    N     N_R   0.500040 0.500030 0.852080 -0.192406
N2    N     N_R   0.499960 0.499970 0.147920 -0.192396
O1    O     O_R   0.499990 0.319660 0.618740 -0.585465
O2    O     O_R   0.500010 0.680340 0.381260 -0.585447
O3    O     O_R   0.499990 0.319630 0.381170 -0.585013
O4    O     O_R   0.500010 0.680370 0.618830 -0.585044
O5    O     O_R   0.274840 0.500010 0.591370 -0.580442
O6    O     O_R   0.725160 0.499990 0.408630 -0.580459
O7    O     O_R   0.274830 0.499980 0.353800 -0.587569
O8    O     O_R   0.725170 0.500020 0.646200 -0.587552
C17   C     C_3   0.713951 0.139313 0.337907 -0.830481
H5    H     H_    0.787573 0.210997 0.405639 0.227820
H6    H     H_    0.792325 0.077054 0.296544 0.214266
H7    H     H_    0.649977 0.184400 0.247657 0.252803
C18   C     C_3   0.285958 0.860685 0.662000 -0.830555
H8    H     H_    0.212217 0.789152 0.594154 0.227775
H9    H     H_    0.349857 0.815429 0.752161 0.252871
H10   H     H_    0.207706 0.922970 0.703508 0.214267
C19   C     C_3   0.282993 0.325742 0.118122 -0.771359
H11   H     H_    0.306047 0.229681 0.091601 0.199970
H12   H     H_    0.283510 0.326482 0.229846 0.274114
H13   H     H_    0.162586 0.342592 0.074029 0.198664
C20   C     C_3   0.717115 0.674170 0.881890 -0.771363
H14   H     H_    0.694259 0.770250 0.908530 0.199958
H15   H     H_    0.837492 0.657148 0.925892 0.198696
H16   H     H_    0.716488 0.673519 0.770152 0.274117
C21   C     C_3   0.281184 0.326970 0.826480 -0.784792
H17   H     H_    0.282284 0.326588 0.714970 0.271289
H18   H     H_    0.301614 0.230664 0.858472 0.197192
H19   H     H_    0.161331 0.345903 0.840509 0.197789
C22   C     C_3   0.718768 0.673070 0.173514 -0.784821
H20   H     H_    0.717725 0.673408 0.285031 0.271289
H21   H     H_    0.838633 0.654227 0.159435 0.197805
H22   H     H_    0.698219 0.769364 0.141558 0.197200

loop_
_geom_bond_atom_site_label_1
_geom_bond_atom_site_label_2
_ccdc_geom_bond_type
C14   N1    A    
C3    O7    A    
C18   H8    S    
C5    H1    S    
C18   H10   S    
Cu1   O5    S    
C19   H11   S    
C16   N2    A    
Cu2   O2    S    
C13   C15   A    
Cu2   O3    S    
C21   H19   S    
Cu1   O1    S    
C22   H21   S    
C17   H5    S    
C2    O2    A    
Cu1   N1    S    
C22   H20   S    
C10   H4    S    
C1    O1    A    
C9    C11   A    
C9    H3    S    
C4    O8    A    
C1    C12   S    
C10   C12   A    
C8    C11   A    
Cu2   N2    S    
C2    C11   S    
C1    O3    A    
C15   N1    A    
C17   H6    S    
Cu1   Cu2   S    
C14   C20   S    
C15   C21   S    
C5    C6    D    
C19   H13   S    
C14   C16   A    
C7    C12   A    
C22   H22   S    
C4    C6    S    
C8    C18   S    
C7    C17   S    
Cu2   O6    S    
C20   H14   S    
C17   H7    S    
C6    H2    S    
C18   H9    S    
C21   H17   S    
C20   H15   S    
C7    C9    A    
Cu1   O8    S    
C13   C19   S    
C3    O5    A    
C2    O4    A    
Cu2   O7    S    
C20   H16   S    
C21   H18   S    
C16   C22   S    
Cu1   O4    S    
C8    C10   A    
C4    O6    A    
C19   H12   S    
C13   N2    A    
C3    C5    S    
