data_mof_unit_2527.cif
_audit_creation_date              2012-12-11T16:36:19-0500
_audit_creation_method            fapswitch 2.2
_symmetry_space_group_name_H-M    P1
_symmetry_Int_Tables_number       1
_space_group_crystal_system       triclinic
_cell_length_a                    25.82002
_cell_length_b                    7.281509
_cell_length_c                    23.198277
_cell_angle_alpha                 90.035209
_cell_angle_beta                  104.514463
_cell_angle_gamma                 90.066458
_cell_volume                      4222.27424061

loop_
_atom_site_label
_atom_site_type_symbol
_atom_type_description
_atom_site_fract_x
_atom_site_fract_y
_atom_site_fract_z
_atom_type_partial_charge
O1    O     O_R   0.438720 0.630760 0.439780 -0.535164
O2    O     O_R   0.061280 0.869240 0.060220 -0.546230
O3    O     O_R   0.561280 0.130760 0.560220 -0.534679
O4    O     O_R   0.938720 0.369240 0.939780 -0.545888
O5    O     O_R   0.546380 0.956770 0.446270 -0.527783
O6    O     O_R   0.953620 0.543230 0.053730 -0.544180
O7    O     O_R   0.453620 0.456770 0.553730 -0.527780
O8    O     O_R   0.046380 0.043230 0.946270 -0.543927
C1    C     C_R   0.561484 0.791500 0.433215 0.724307
C2    C     C_R   0.936908 0.708061 0.064581 0.748401
C3    C     C_R   0.438516 0.291448 0.566783 0.722848
C4    C     C_R   0.063044 0.208123 0.935359 0.747145
O9    O     O_R   0.438210 0.960230 0.432810 -0.539435
O10   O     O_R   0.061790 0.539770 0.067190 -0.510342
O11   O     O_R   0.561790 0.460230 0.567190 -0.539768
O12   O     O_R   0.938210 0.039770 0.932810 -0.511600
O13   O     O_R   0.452340 0.134240 0.546660 -0.510874
O14   O     O_R   0.047660 0.365760 0.953340 -0.511822
O15   O     O_R   0.547660 0.634240 0.453340 -0.510363
O16   O     O_R   0.952340 0.865760 0.046660 -0.511372
C5    C     C_R   0.418839 0.791590 0.416576 0.709266
C6    C     C_R   0.080965 0.708353 0.083118 0.745810
C7    C     C_R   0.581109 0.291806 0.583526 0.713680
C8    C     C_R   0.918984 0.208066 0.916918 0.749526
O17   O     O_3   0.504760 0.798440 0.537370 -0.346067
O18   O     O_3   0.995240 0.701560 0.962630 -0.380685
O19   O     O_3   0.495240 0.298440 0.462630 -0.346073
O20   O     O_3   0.004760 0.201560 0.037370 -0.380591
V1    V     V_3+5 0.499120 0.071860 0.493070 1.617239
V2    V     V_3+5 0.000880 0.428140 0.006930 1.591292
V3    V     V_3+5 0.500880 0.571860 0.506930 1.617276
V4    V     V_3+5 0.999120 0.928140 0.993070 1.589711
C9    C     C_R   0.685088 0.106932 0.717832 0.434528
C10   C     C_R   0.775826 0.322783 0.836850 0.453628
C11   C     C_R   0.314065 0.608368 0.282352 0.383118
C12   C     C_R   0.224453 0.818059 0.163874 0.508580
C13   C     C_R   0.640025 0.120583 0.669263 -0.204273
C14   C     C_R   0.824586 0.312299 0.880410 -0.116784
C15   C     C_R   0.359562 0.621506 0.330487 -0.208404
C16   C     C_R   0.176035 0.806768 0.119739 -0.103475
H1    H     H_    0.612287 0.006704 0.659315 0.212515
H2    H     H_    0.827842 0.374053 0.923710 0.194893
H3    H     H_    0.387547 0.508452 0.339470 0.212911
H4    H     H_    0.173720 0.863350 0.075959 0.188777
C17   C     C_R   0.629694 0.280434 0.634233 -0.127986
C18   C     C_R   0.868580 0.218170 0.869685 -0.090546
C19   C     C_R   0.369930 0.779996 0.366310 -0.114678
C20   C     C_R   0.131065 0.719299 0.130745 -0.085694
C21   C     C_R   0.666350 0.426441 0.647834 -0.107032
C22   C     C_R   0.863896 0.135753 0.814080 -0.156254
C23   C     C_R   0.332822 0.924512 0.354150 -0.106670
C24   C     C_R   0.134241 0.646149 0.187296 -0.142844
H5    H     H_    0.659978 0.550746 0.621399 0.128571
H6    H     H_    0.897447 0.062648 0.804873 0.109898
H7    H     H_    0.339136 0.047421 0.381344 0.118491
H8    H     H_    0.099806 0.579388 0.196818 0.104172
C25   C     C_R   0.712449 0.411661 0.694822 -0.069743
C26   C     C_R   0.816287 0.151564 0.769339 -0.125250
C27   C     C_R   0.286358 0.909923 0.307673 -0.083878
C28   C     C_R   0.181510 0.663014 0.232480 -0.172782
H9    H     H_    0.740801 0.524024 0.703334 0.171925
H10   H     H_    0.813940 0.089767 0.726265 0.133978
H11   H     H_    0.257665 0.020711 0.300302 0.128864
H12   H     H_    0.182721 0.608318 0.276213 0.109695
C29   C     C_R   0.722088 0.253735 0.730695 -0.007548
C30   C     C_R   0.771656 0.243458 0.779963 -0.047308
C31   C     C_R   0.276791 0.754164 0.270792 -0.002446
C32   C     C_R   0.227312 0.745866 0.221399 -0.014185
C33   C     C_R   0.404199 0.146465 0.650792 0.379205
C34   C     C_R   0.150688 0.319959 0.917141 0.401000
C35   C     C_R   0.595775 0.646416 0.349188 0.379556
C36   C     C_R   0.849248 0.819686 0.082682 0.410558
C37   C     C_R   0.366124 0.143701 0.684681 -0.188252
C38   C     C_R   0.185727 0.329860 0.879712 -0.222511
C39   C     C_R   0.633819 0.643845 0.315259 -0.187944
C40   C     C_R   0.814196 0.829749 0.120094 -0.221735
H13   H     H_    0.368208 0.037722 0.717905 0.169035
H14   H     H_    0.221930 0.410905 0.893305 0.163774
H15   H     H_    0.631725 0.537690 0.282042 0.169072
H16   H     H_    0.778033 0.910644 0.106480 0.165191
C41   C     C_R   0.325179 0.274751 0.676299 0.016312
C42   C     C_R   0.174434 0.238370 0.824660 0.032181
C43   C     C_R   0.674751 0.775300 0.323594 0.015933
C44   C     C_R   0.825429 0.738651 0.175161 0.030722
C45   C     C_R   0.322342 0.410216 0.632674 -0.121181
C46   C     C_R   0.127094 0.135253 0.807261 -0.120779
C47   C     C_R   0.677603 0.910994 0.367213 -0.120285
C48   C     C_R   0.872710 0.635685 0.192582 -0.120872
H17   H     H_    0.291426 0.514151 0.625591 0.119737
H18   H     H_    0.117684 0.061462 0.765373 0.117428
H19   H     H_    0.708513 0.015228 0.374264 0.120305
H20   H     H_    0.882070 0.562187 0.234479 0.117450
C49   C     C_R   0.359861 0.414671 0.598328 -0.163340
C50   C     C_R   0.091780 0.124102 0.844127 -0.216584
C51   C     C_R   0.640110 0.915278 0.401594 -0.161332
C52   C     C_R   0.908034 0.624340 0.155737 -0.218289
H21   H     H_    0.356321 0.520680 0.564817 0.138681
H22   H     H_    0.055421 0.044222 0.829447 0.123671
H23   H     H_    0.643659 0.021482 0.435095 0.139784
H24   H     H_    0.944354 0.544634 0.170448 0.123464
C53   C     C_R   0.400921 0.282885 0.606150 -0.166699
C54   C     C_R   0.102543 0.217699 0.898834 -0.140556
C55   C     C_R   0.599062 0.783082 0.393820 -0.167355
C56   C     C_R   0.897345 0.717588 0.101026 -0.141049
C57   C     C_R   0.231070 0.290431 0.688866 -0.154264
C58   C     C_R   0.267938 0.230332 0.811353 -0.130959
C59   C     C_R   0.768845 0.791474 0.310973 -0.153784
C60   C     C_R   0.731924 0.730553 0.188492 -0.130796
H25   H     H_    0.216056 0.312286 0.641440 0.107294
H26   H     H_    0.283087 0.205828 0.858627 0.136959
H27   H     H_    0.783881 0.813636 0.358396 0.108234
H28   H     H_    0.716754 0.705718 0.141222 0.136885
C61   C     C_R   0.194630 0.278644 0.724540 -0.151049
C62   C     C_R   0.304211 0.240166 0.775699 -0.122593
C63   C     C_R   0.805268 0.779612 0.275282 -0.151046
C64   C     C_R   0.695668 0.740443 0.224165 -0.122754
H29   H     H_    0.152342 0.294883 0.704021 0.108907
H30   H     H_    0.346505 0.225430 0.796481 0.145673
H31   H     H_    0.847564 0.796099 0.295787 0.108821
H32   H     H_    0.653366 0.725400 0.203402 0.145550
C65   C     C_R   0.212704 0.248757 0.786233 0.100994
C66   C     C_R   0.286262 0.269978 0.714032 0.100085
C67   C     C_R   0.787168 0.749281 0.213593 0.101301
C68   C     C_R   0.713645 0.770642 0.285831 0.099962
S1    S     S_3+6 0.692540 0.908892 0.763240 0.094147
O21   O     O_2   0.649573 0.770792 0.737847 -0.262796
O22   O     O_2   0.746220 0.822657 0.767504 -0.357009
O23   O     O_3   0.687614 0.969305 0.831654 -0.400374
H33   H     H_    0.724922 0.982267 0.855845 0.402140
S2    S     S_3+6 0.721708 0.427204 0.858444 0.114318
O24   O     O_2   0.737797 0.618890 0.879452 -0.280307
O25   O     O_2   0.671472 0.433129 0.808966 -0.255786
O26   O     O_3   0.709861 0.307439 0.915750 -0.459353
H34   H     H_    0.682916 0.380355 0.929566 0.385732
S3    S     S_3+6 0.306090 0.411647 0.236089 0.124276
O27   O     O_2   0.312481 0.467540 0.175941 -0.200455
O28   O     O_2   0.347524 0.269420 0.261944 -0.280347
O29   O     O_3   0.244844 0.320458 0.227797 -0.467315
H35   H     H_    0.238511 0.323530 0.268145 0.281522
S4    S     S_3+6 0.279470 0.918559 0.142828 0.146086
O30   O     O_2   0.264451 0.110116 0.120929 -0.256819
O31   O     O_2   0.329249 0.924780 0.192928 -0.262079
O32   O     O_3   0.291645 0.794643 0.086497 -0.436915
H36   H     H_    0.319097 0.865385 0.072794 0.382323
S5    S     S_3+6 0.456083 0.981460 0.668183 0.051297
O33   O     O_2   0.443192 0.828215 0.623501 -0.313672
O34   O     O_2   0.461022 0.903053 0.729265 -0.294636
O35   O     O_3   0.514696 0.077371 0.665909 -0.490731
H37   H     H_    0.519723 0.180264 0.694740 0.344029
S6    S     S_3+6 0.169441 0.434311 0.986728 0.041257
O36   O     O_2   0.140644 0.615037 0.981325 -0.335607
O37   O     O_2   0.154686 0.321664 0.034548 -0.321971
O38   O     O_3   0.235707 0.474533 0.006072 -0.441385
H38   H     H_    0.252355 0.351514 0.013657 0.375630
S7    S     S_3+6 0.543913 0.480841 0.331852 0.050297
O39   O     O_2   0.556857 0.327896 0.376536 -0.313614
O40   O     O_2   0.538931 0.402153 0.270762 -0.295538
O41   O     O_3   0.485309 0.576215 0.334188 -0.491274
H39   H     H_    0.480262 0.679005 0.305375 0.343569
S8    S     S_3+6 0.830551 0.933584 0.013067 0.022265
O42   O     O_2   0.859380 0.114508 0.018437 -0.334077
O43   O     O_2   0.845305 0.820720 0.965279 -0.332635
O44   O     O_3   0.764295 0.973430 0.993676 -0.458797
H40   H     H_    0.747605 0.850287 0.986200 0.368247

loop_
_geom_bond_atom_site_label_1
_geom_bond_atom_site_label_2
_ccdc_geom_bond_type
C26   H10   S    
S3    O29   S    
C6    C20   S    
C48   C52   A    
O1    C5    A    
C7    C17   S    
C47   H19   S    
S7    O40   D    
O13   V1    S    
O3    C7    A    
O44   H40   S    
C34   S6    S    
S4    O32   S    
C36   C40   A    
O15   V3    S    
O23   H33   S    
C10   C30   A    
S5    O33   D    
C9    C29   A    
S3    O27   D    
C44   C67   S    
O5    C1    A    
C26   C30   A    
C22   H6    S    
C58   C62   A    
C57   C61   A    
O10   V2    S    
C14   H2    S    
C20   C24   A    
O16   V4    S    
C11   C15   A    
O4    C8    A    
C51   H23   S    
O19   V1    S    
C50   H22   S    
O32   H36   S    
O1    V3    S    
C21   C25   A    
O2    V4    S    
O3    V1    S    
C16   C20   A    
C35   C55   A    
C24   C28   A    
C27   C31   A    
C45   C49   A    
C1    O15   A    
C48   H20   S    
C2    O16   A    
S6    O38   S    
C47   C51   A    
C34   C38   A    
S1    O23   S    
C33   C37   A    
C34   C54   A    
O14   V2    S    
C11   C31   A    
C43   C68   S    
C46   C50   A    
C42   C65   S    
C1    C55   S    
O11   C7    A    
S1    O21   D    
O12   C8    A    
S7    O41   S    
C40   C44   A    
C59   C68   A    
C38   C42   A    
C37   C41   A    
S5    O34   D    
C51   C55   A    
O7    C3    A    
O5    V1    S    
O7    V3    S    
C31   C32   S    
O8    V4    S    
S8    O44   S    
C44   C48   A    
C12   C16   A    
C63   C67   A    
S4    O30   D    
C46   H18   S    
C11   S3    S    
C45   H17   S    
O18   V4    S    
C10   S2    S    
C19   C23   A    
C36   C56   A    
C42   C46   A    
C9    C13   A    
C60   H28   S    
S8    O43   D    
S2    O25   D    
C49   C53   A    
C4    C54   S    
C33   S5    S    
C17   C21   A    
O8    C4    A    
C35   S7    S    
C9    S1    S    
C22   C26   A    
O9    C5    A    
C3    C53   S    
O35   H37   S    
O11   V3    S    
C12   S4    S    
C59   C63   A    
C62   H30   S    
C61   H29   S    
O6    V2    S    
C63   H31   S    
C52   C56   A    
O26   H34   S    
S6    O37   D    
S2    O26   S    
C23   C27   A    
C60   C67   A    
C13   C17   A    
C49   H21   S    
C39   C43   A    
S5    O35   S    
C15   C19   A    
C58   H26   S    
O9    V1    S    
S3    O28   D    
C57   H25   S    
C3    O13   A    
C64   C68   A    
C10   C14   A    
C59   H27   S    
O17   V3    S    
C40   H16   S    
C25   C29   A    
C43   C47   A    
O6    C2    A    
C15   H3    S    
C12   C32   A    
C25   H9    S    
S4    O31   D    
C33   C53   A    
O12   V4    S    
C18   C22   A    
C27   H11   S    
C36   S8    S    
C41   C66   S    
C28   H12   S    
C8    C18   S    
S8    O42   D    
O10   C6    A    
C2    C56   S    
S2    O24   D    
O2    C6    A    
C35   C39   A    
C60   C64   A    
O41   H39   S    
C21   H5    S    
C52   H24   S    
C58   C65   A    
O20   V2    S    
C57   C66   A    
C23   H7    S    
C13   H1    S    
O4    V2    S    
C14   C18   A    
O29   H35   S    
C62   C66   A    
C64   H32   S    
C16   H4    S    
C61   C65   A    
C28   C32   A    
C29   C30   S    
C38   H14   S    
C4    O14   A    
S7    O39   D    
S1    O22   D    
C37   H13   S    
S6    O36   D    
O38   H38   S    
C39   H15   S    
C41   C45   A    
C24   H8    S    
C50   C54   A    
C5    C19   S    
