data_mof_unit_1601.cif
_audit_creation_date              2012-12-11T16:26:15-0500
_audit_creation_method            fapswitch 2.2
_symmetry_space_group_name_H-M    P1
_symmetry_Int_Tables_number       1
_space_group_crystal_system       triclinic
_cell_length_a                    14.008332
_cell_length_b                    14.008176
_cell_length_c                    31.962642
_cell_angle_alpha                 90.040636
_cell_angle_beta                  89.96852
_cell_angle_gamma                 120.030557
_cell_volume                      5430.09453586

loop_
_atom_site_label
_atom_site_type_symbol
_atom_type_description
_atom_site_fract_x
_atom_site_fract_y
_atom_site_fract_z
_atom_type_partial_charge
C1    C     C_R   0.566713 0.444450 0.810386 0.591210
C2    C     C_R   0.878887 0.433698 0.689797 0.578036
C3    C     C_R   0.555587 0.122428 0.810402 0.574886
C4    C     C_R   0.566475 0.445132 0.689738 0.559814
C5    C     C_R   0.877670 0.433284 0.810420 0.595229
C6    C     C_R   0.554740 0.121051 0.689800 0.576817
C7    C     C_R   0.445213 0.566424 0.310224 0.577723
C8    C     C_R   0.433291 0.877687 0.189593 0.595905
C9    C     C_R   0.121064 0.554748 0.310201 0.574674
C10   C     C_R   0.444404 0.566704 0.189600 0.595593
C11   C     C_R   0.433711 0.878919 0.310197 0.578107
C12   C     C_R   0.122381 0.555569 0.189614 0.573962
C13   C     C_1   0.001555 0.462864 0.019005 -0.031396
C14   C     C_1   0.498702 0.000199 0.480989 -0.021833
C15   C     C_1   0.536057 0.541057 0.018653 -0.029624
C16   C     C_1   0.007078 0.502005 0.481624 -0.021744
C17   C     C_1   0.458702 0.993582 0.018498 -0.030123
C18   C     C_1   0.503271 0.507167 0.481316 -0.022402
C19   C     C_1   0.501876 0.006674 0.518404 -0.021803
C20   C     C_1   0.992618 0.458236 0.981620 -0.030107
C21   C     C_1   0.506614 0.503951 0.518720 -0.023626
C22   C     C_1   0.463267 0.002499 0.981110 -0.031413
C23   C     C_1   0.000585 0.498840 0.519038 -0.021909
C24   C     C_1   0.540935 0.536349 0.981305 -0.029617
C25   C     C_R   0.931383 0.469682 0.852314 0.024380
C26   C     C_R   0.533227 0.059339 0.649371 0.017531
C27   C     C_R   0.530408 0.461949 0.852233 0.022648
C28   C     C_R   0.941442 0.474629 0.649577 0.014920
C29   C     C_R   0.537878 0.068037 0.852109 -0.002564
C30   C     C_R   0.526542 0.466832 0.649324 -0.010253
C31   C     C_R   0.474622 0.941490 0.350420 0.015302
C32   C     C_R   0.067829 0.537820 0.147944 -0.003348
C33   C     C_R   0.467035 0.526455 0.350601 0.015477
C34   C     C_R   0.469786 0.931529 0.147739 0.024157
C35   C     C_R   0.059422 0.533257 0.350640 0.016280
C36   C     C_R   0.461735 0.530259 0.147745 0.024087
C37   C     C_R   0.880740 0.501210 0.883678 -0.073551
C38   C     C_R   0.621820 0.066583 0.624990 -0.062576
C39   C     C_R   0.499654 0.380316 0.883727 -0.073822
C40   C     C_R   0.933264 0.555059 0.624949 -0.062358
C41   C     C_R   0.619306 0.118872 0.883686 -0.067492
C42   C     C_R   0.447727 0.378350 0.624211 -0.060010
C43   C     C_R   0.555235 0.933542 0.375010 -0.062895
C44   C     C_R   0.118623 0.619142 0.116338 -0.067877
C45   C     C_R   0.378542 0.447332 0.375623 -0.064707
C46   C     C_R   0.500934 0.880715 0.116316 -0.073600
C47   C     C_R   0.066705 0.621858 0.375031 -0.062822
C48   C     C_R   0.380078 0.499646 0.116256 -0.075515
C49   C     C_R   0.906004 0.498480 0.925513 -0.121037
C50   C     C_R   0.606453 0.042927 0.582302 -0.106552
C51   C     C_R   0.502079 0.408817 0.925496 -0.120073
C52   C     C_R   0.959672 0.564755 0.582505 -0.103235
C53   C     C_R   0.590690 0.092141 0.925398 -0.118321
C54   C     C_R   0.439484 0.395750 0.581737 -0.102928
C55   C     C_R   0.564846 0.959751 0.417475 -0.103432
C56   C     C_R   0.091633 0.590420 0.074648 -0.118408
C57   C     C_R   0.395572 0.439435 0.418162 -0.105657
C58   C     C_R   0.498322 0.906244 0.074508 -0.121020
C59   C     C_R   0.043201 0.606541 0.417728 -0.105707
C60   C     C_R   0.408523 0.502153 0.074475 -0.120901
C61   C     C_R   0.978727 0.463536 0.937374 -0.010448
C62   C     C_R   0.506977 0.015177 0.563122 0.002255
C63   C     C_R   0.536195 0.516541 0.937136 -0.009120
C64   C     C_R   0.990803 0.495157 0.563718 0.002613
C65   C     C_R   0.483199 0.017329 0.936915 -0.006389
C66   C     C_R   0.509251 0.497091 0.563384 0.006242
C67   C     C_R   0.495016 0.990517 0.436306 0.003143
C68   C     C_R   0.016576 0.482938 0.063186 -0.006375
C69   C     C_R   0.496625 0.509627 0.436636 0.002825
C70   C     C_R   0.463984 0.979505 0.062734 -0.010090
C71   C     C_R   0.015530 0.507089 0.436904 0.002738
C72   C     C_R   0.516195 0.536106 0.062822 -0.010685
C73   C     C_R   0.039113 0.442615 0.906986 -0.008690
C74   C     C_R   0.414969 0.996478 0.587033 0.005981
C75   C     C_R   0.556879 0.597338 0.906603 -0.007459
C76   C     C_R   0.010093 0.422738 0.587907 0.007019
C77   C     C_R   0.402908 0.956533 0.906240 -0.000835
C78   C     C_R   0.580303 0.588585 0.588008 0.011199
C79   C     C_R   0.422438 0.009653 0.412151 0.007225
C80   C     C_R   0.955806 0.402796 0.093900 -0.000761
C81   C     C_R   0.588262 0.580735 0.412108 0.006623
C82   C     C_R   0.443592 0.040130 0.093197 -0.009130
C83   C     C_R   0.996762 0.415057 0.412984 0.006598
C84   C     C_R   0.596912 0.556413 0.093344 -0.005873
C85   C     C_R   0.019580 0.452469 0.863913 0.257552
C86   C     C_R   0.425747 0.007939 0.631089 0.244292
C87   C     C_R   0.547034 0.567276 0.863610 0.250501
C88   C     C_R   0.995712 0.420739 0.631855 0.247727
C89   C     C_R   0.432778 0.978409 0.863261 0.217182
C90   C     C_R   0.580524 0.575354 0.631941 0.201679
C91   C     C_R   0.420501 0.995468 0.368194 0.247209
C92   C     C_R   0.977979 0.432786 0.136861 0.217659
C93   C     C_R   0.575430 0.580869 0.368133 0.247727
C94   C     C_R   0.453192 0.020185 0.136249 0.255184
C95   C     C_R   0.008095 0.425796 0.368925 0.245222
C96   C     C_R   0.566890 0.546530 0.136339 0.263468
Cr1   Cr    Cr6+3 0.504240 0.249200 0.750000 1.106995
Cr2   Cr    Cr6+3 0.744960 0.495760 0.750000 1.115841
Cr3   Cr    Cr6+3 0.750800 0.255040 0.750000 1.107197
Cr4   Cr    Cr6+3 0.249200 0.504240 0.250000 1.109627
Cr5   Cr    Cr6+3 0.495760 0.744960 0.250000 1.109542
Cr6   Cr    Cr6+3 0.255040 0.750800 0.250000 1.100908
H1    H     H_    0.133560 0.651798 0.050407 0.126733
H2    H     H_    0.623064 0.949800 0.436739 0.121020
H3    H     H_    0.346787 0.482186 0.050342 0.128352
H4    H     H_    0.052603 0.674844 0.436812 0.120661
H5    H     H_    0.518490 0.864433 0.050438 0.128107
H6    H     H_    0.327448 0.382285 0.437731 0.120291
H7    H     H_    0.674743 0.052295 0.563223 0.120733
H8    H     H_    0.864352 0.518990 0.949535 0.128104
H9    H     H_    0.382488 0.327692 0.562098 0.119127
H10   H     H_    0.652172 0.134099 0.949609 0.126705
H11   H     H_    0.949564 0.622827 0.563213 0.121309
H12   H     H_    0.481912 0.347066 0.949634 0.127915
O1    O     O_R   0.480350 0.140770 0.796330 -0.455809
O2    O     O_R   0.660420 0.519650 0.703670 -0.436534
O3    O     O_R   0.859230 0.339580 0.796330 -0.460668
O4    O     O_R   0.480350 0.140770 0.703670 -0.440717
O5    O     O_R   0.660420 0.519650 0.796330 -0.461070
O6    O     O_R   0.859230 0.339580 0.703670 -0.439140
O7    O     O_R   0.140770 0.480350 0.296330 -0.440679
O8    O     O_R   0.519650 0.660420 0.203670 -0.462140
O9    O     O_R   0.339580 0.859230 0.296330 -0.439526
O10   O     O_R   0.140770 0.480350 0.203670 -0.455565
O11   O     O_R   0.519650 0.660420 0.296330 -0.440211
O12   O     O_R   0.339580 0.859230 0.203670 -0.461164
O13   O     O_R   0.514930 0.348530 0.793250 -0.503522
O14   O     O_R   0.833600 0.485070 0.706750 -0.516022
O15   O     O_R   0.651470 0.166400 0.793250 -0.506165
O16   O     O_R   0.514930 0.348530 0.706750 -0.515077
O17   O     O_R   0.833600 0.485070 0.793250 -0.502487
O18   O     O_R   0.651470 0.166400 0.706750 -0.517295
O19   O     O_R   0.348530 0.514930 0.293250 -0.515915
O20   O     O_R   0.485070 0.833600 0.206750 -0.502200
O21   O     O_R   0.166400 0.651470 0.293250 -0.518821
O22   O     O_R   0.348530 0.514930 0.206750 -0.501736
O23   O     O_R   0.485070 0.833600 0.293250 -0.516625
O24   O     O_R   0.166400 0.651470 0.206750 -0.508128
O25   O     O_3   0.666667 0.333333 0.750000 -0.293723
O26   O     O_3   0.333333 0.666667 0.250000 -0.293536
C97   C     C_3   0.792568 0.528857 0.874260 -0.356866
H13   H     H_    0.824274 0.599462 0.852257 0.195522
H14   H     H_    0.721635 0.454491 0.860984 0.123283
H15   H     H_    0.763207 0.552236 0.902659 0.120710
C98   C     C_3   0.734401 0.101751 0.642573 -0.299431
H16   H     H_    0.727137 0.056476 0.671990 0.208373
H17   H     H_    0.785021 0.083775 0.620654 0.145558
H18   H     H_    0.779006 0.191897 0.647883 0.170202
C99   C     C_3   0.472869 0.264602 0.874488 -0.354633
H19   H     H_    0.401925 0.224792 0.852658 0.196646
H20   H     H_    0.547265 0.268480 0.861043 0.126016
H21   H     H_    0.450400 0.212379 0.902993 0.122502
C100  C     C_3   0.893862 0.629746 0.641903 -0.302518
H22   H     H_    0.937796 0.669384 0.671382 0.203903
H23   H     H_    0.909878 0.697293 0.619758 0.142150
H24   H     H_    0.803661 0.581548 0.646869 0.168047
C101  C     C_3   0.734866 0.208561 0.874616 -0.356561
H25   H     H_    0.775205 0.178004 0.852780 0.194126
H26   H     H_    0.730715 0.278985 0.861241 0.124081
H27   H     H_    0.786837 0.238358 0.903188 0.120393
C102  C     C_3   0.373536 0.263725 0.640689 -0.301901
H28   H     H_    0.332205 0.266816 0.669891 0.202475
H29   H     H_    0.307346 0.211870 0.618090 0.143045
H30   H     H_    0.422667 0.222927 0.646013 0.168082
C103  C     C_3   0.630258 0.894663 0.357977 -0.301862
H31   H     H_    0.669656 0.938722 0.328496 0.203868
H32   H     H_    0.697974 0.910988 0.380088 0.144375
H33   H     H_    0.582393 0.804451 0.352981 0.167087
C104  C     C_3   0.208456 0.734697 0.125359 -0.356952
H34   H     H_    0.178025 0.775190 0.147177 0.193011
H35   H     H_    0.278863 0.730531 0.138746 0.124811
H36   H     H_    0.238251 0.786555 0.096764 0.120562
C105  C     C_3   0.264256 0.372419 0.358966 -0.301858
H37   H     H_    0.268088 0.331631 0.329724 0.205096
H38   H     H_    0.212690 0.305806 0.381456 0.143965
H39   H     H_    0.222705 0.420846 0.353648 0.167263
C106  C     C_3   0.528151 0.792196 0.125653 -0.356864
H40   H     H_    0.598897 0.823684 0.147588 0.195751
H41   H     H_    0.453761 0.721437 0.138993 0.122904
H42   H     H_    0.551140 0.762638 0.097209 0.120882
C107  C     C_3   0.101746 0.734392 0.357443 -0.302561
H43   H     H_    0.056379 0.727048 0.328038 0.201099
H44   H     H_    0.083784 0.785009 0.379370 0.145717
H45   H     H_    0.191876 0.779032 0.352107 0.171759
C108  C     C_3   0.264410 0.472935 0.125519 -0.354818
H46   H     H_    0.224596 0.401968 0.147332 0.196646
H47   H     H_    0.268371 0.547340 0.138995 0.126013
H48   H     H_    0.212148 0.450529 0.097022 0.122727
S1    S     S_3+6 0.890913 0.344443 0.177122 0.041571
O27   O     O_2   0.773959 0.274211 0.162469 -0.255900
O28   O     O_2   0.933845 0.270782 0.191411 -0.236100
O29   O     O_3   0.891535 0.421430 0.217605 -0.462741
H49   H     H_    0.868199 0.471706 0.205653 0.366480
S2    S     S_3+6 0.365335 0.059703 0.335732 0.031016
O30   O     O_2   0.242538 0.986878 0.332107 -0.291343
O31   O     O_2   0.390547 0.168366 0.354520 -0.289782
O32   O     O_3   0.421736 0.083571 0.287854 -0.438103
H50   H     H_    0.399837 0.133441 0.274438 0.402338
S3    S     S_3+6 0.654081 0.543730 0.176073 0.028819
O33   O     O_2   0.725378 0.500211 0.159441 -0.312019
O34   O     O_2   0.726439 0.658196 0.192807 -0.252899
O35   O     O_3   0.574651 0.460464 0.214822 -0.469285
H51   H     H_    0.609849 0.417380 0.223436 0.389492
S4    S     S_3+6 0.943009 0.305014 0.337118 0.032404
O36   O     O_2   0.016781 0.256360 0.332777 -0.296251
O37   O     O_2   0.836086 0.221215 0.356937 -0.289365
O38   O     O_3   0.915232 0.335079 0.289504 -0.412623
H52   H     H_    0.869237 0.262586 0.275863 0.411471
S5    S     S_3+6 0.454244 0.109487 0.176035 0.039607
O39   O     O_2   0.496414 0.224405 0.159716 -0.278274
O40   O     O_2   0.339382 0.065613 0.192613 -0.248565
O41   O     O_3   0.537620 0.114229 0.214879 -0.466231
H53   H     H_    0.579773 0.192516 0.223643 0.394809
S6    S     S_3+6 0.694375 0.634634 0.335403 0.030392
O42   O     O_2   0.744441 0.757285 0.331081 -0.289368
O43   O     O_2   0.778055 0.610100 0.354348 -0.292032
O44   O     O_3   0.660890 0.576294 0.287852 -0.437958
H54   H     H_    0.732358 0.596492 0.274484 0.400421
S7    S     S_3+6 0.304990 0.942991 0.662899 0.031442
O45   O     O_2   0.256413 0.016839 0.667204 -0.295479
O46   O     O_2   0.221128 0.836029 0.643109 -0.291049
O47   O     O_3   0.335062 0.915314 0.710528 -0.412556
H55   H     H_    0.262588 0.869761 0.724233 0.411308
S8    S     S_3+6 0.109009 0.453269 0.824253 0.034443
O48   O     O_2   0.223626 0.494744 0.840778 -0.289755
O49   O     O_2   0.064786 0.338465 0.807547 -0.247722
O50   O     O_3   0.114649 0.537187 0.785469 -0.466860
H56   H     H_    0.193075 0.579224 0.776888 0.390277
S9    S     S_3+6 0.633085 0.693678 0.664987 0.043754
O51   O     O_2   0.755090 0.741953 0.670816 -0.252675
O52   O     O_2   0.612318 0.779791 0.645953 -0.286343
O53   O     O_3   0.571080 0.659269 0.711861 -0.398268
H57   H     H_    0.492602 0.633914 0.705812 0.355030
S10   S     S_3+6 0.344152 0.891235 0.823070 0.041207
O54   O     O_2   0.273899 0.774361 0.837796 -0.257900
O55   O     O_2   0.270514 0.934229 0.808816 -0.235979
O56   O     O_3   0.420840 0.891566 0.782540 -0.458472
H58   H     H_    0.471092 0.868165 0.794463 0.372670
S11   S     S_3+6 0.059951 0.365692 0.664377 0.025784
O57   O     O_2   0.987225 0.242871 0.667957 -0.287482
O58   O     O_2   0.168741 0.391069 0.645677 -0.300716
O59   O     O_3   0.083545 0.422033 0.712267 -0.441494
H59   H     H_    0.133250 0.400020 0.725752 0.399054
S12   S     S_3+6 0.543906 0.654140 0.823791 0.055226
O60   O     O_2   0.503143 0.727710 0.840472 -0.312512
O61   O     O_2   0.657537 0.724383 0.806005 -0.200490
O62   O     O_3   0.457965 0.573868 0.785803 -0.485574
H60   H     H_    0.405109 0.600370 0.781407 0.383222
C109  C     C_3   0.870278 0.287044 0.081026 -0.336931
H61   H     H_    0.880339 0.268541 0.048115 0.110008
H62   H     H_    0.877643 0.225643 0.100623 0.183428
H63   H     H_    0.786478 0.276031 0.084213 0.181891
C110  C     C_3   0.346474 0.041612 0.434035 -0.347013
H64   H     H_    0.303040 0.983497 0.460125 0.099058
H65   H     H_    0.395285 0.126432 0.446825 0.156277
H66   H     H_    0.280729 0.036983 0.413499 0.198031
C111  C     C_3   0.713228 0.589776 0.080140 -0.337596
H67   H     H_    0.732360 0.624844 0.048103 0.109423
H68   H     H_    0.773969 0.655003 0.101173 0.184224
H69   H     H_    0.724602 0.516877 0.080692 0.180301
C112  C     C_3   0.968098 0.308398 0.435179 -0.348202
H70   H     H_    0.028072 0.325185 0.460772 0.098884
H71   H     H_    0.883942 0.271351 0.448685 0.156172
H72   H     H_    0.972862 0.247323 0.414627 0.197199
C113  C     C_3   0.410352 0.123034 0.079900 -0.337587
H73   H     H_    0.377465 0.108417 0.047535 0.110446
H74   H     H_    0.343604 0.117097 0.100409 0.184460
H75   H     H_    0.482825 0.207554 0.081249 0.181641
C114  C     C_3   0.696753 0.656991 0.433595 -0.347054
H76   H     H_    0.682866 0.701232 0.459611 0.099206
H77   H     H_    0.732717 0.608272 0.446437 0.156724
H78   H     H_    0.757609 0.722107 0.412759 0.197648
C115  C     C_3   0.308299 0.967774 0.564829 -0.348309
H79   H     H_    0.325076 0.027687 0.539219 0.099197
H80   H     H_    0.271230 0.883582 0.551346 0.155607
H81   H     H_    0.247246 0.972605 0.585367 0.197438
C116  C     C_3   0.121317 0.408540 0.920387 -0.337084
H82   H     H_    0.105992 0.375188 0.952685 0.110173
H83   H     H_    0.115282 0.341874 0.899799 0.185018
H84   H     H_    0.206053 0.480710 0.919271 0.181576
C117  C     C_3   0.656589 0.697302 0.566718 -0.347401
H85   H     H_    0.700219 0.683666 0.540412 0.100270
H86   H     H_    0.608053 0.733955 0.554327 0.155473
H87   H     H_    0.722226 0.757357 0.587619 0.195455
C118  C     C_3   0.287119 0.871288 0.919173 -0.336885
H88   H     H_    0.268771 0.881619 0.952075 0.110026
H89   H     H_    0.225764 0.878716 0.899567 0.183654
H90   H     H_    0.275876 0.787382 0.916051 0.181833
C119  C     C_3   0.042410 0.346992 0.566062 -0.346771
H91   H     H_    0.984481 0.303507 0.539922 0.099252
H92   H     H_    0.127283 0.395983 0.553349 0.155340
H93   H     H_    0.037824 0.281278 0.586600 0.198914
C120  C     C_3   0.590641 0.713751 0.919802 -0.339198
H94   H     H_    0.625693 0.732780 0.951846 0.110334
H95   H     H_    0.656019 0.774315 0.898780 0.182184
H96   H     H_    0.517939 0.725447 0.919233 0.180183

loop_
_geom_bond_atom_site_label_1
_geom_bond_atom_site_label_2
_ccdc_geom_bond_type
C68   C80   A    
C96   S3    S    
C39   C51   A    
C103  H31   S    
C82   C94   A    
C21   C66   S    
S3    O34   D    
C18   C21   T    
C33   C45   A    
C104  H34   S    
S2    O31   D    
S11   O57   D    
C47   C107  S    
C4    C30   S    
C35   C47   A    
S8    O48   D    
C119  H93   S    
C97   H14   S    
C29   C89   A    
C98   H16   S    
C87   S12   S    
C42   C102  S    
C99   H21   S    
Cr2   O5    S    
C22   C65   S    
C32   C92   A    
Cr5   O20   S    
C78   C90   A    
C117  H87   S    
C15   C72   S    
C79   C110  S    
C45   C57   A    
C109  H61   S    
C118  H88   S    
C31   C43   A    
Cr3   O18   S    
C6    O4    A    
C40   C52   A    
C10   O22   A    
Cr1   O16   S    
C7    O19   A    
S9    O53   S    
C120  H94   S    
C99   H20   S    
C84   C96   A    
C110  H64   S    
C75   C87   A    
S6    O43   D    
C108  H47   S    
S2    O32   S    
S7    O46   D    
C60   C72   A    
C19   C62   S    
C107  H43   S    
Cr1   O4    S    
S5    O41   S    
C37   C49   A    
S12   O60   D    
S1    O28   D    
C58   H5    S    
Cr6   O24   S    
C20   C61   S    
C3    C29   S    
C44   C56   A    
Cr6   O21   S    
O53   H57   S    
Cr4   O26   S    
C25   C37   A    
Cr3   O6    S    
C44   C104  S    
Cr2   O25   S    
C99   H19   S    
C15   C24   T    
C101  H25   S    
C42   C54   A    
C27   C39   A    
C106  H41   S    
Cr2   O17   S    
C28   C88   A    
S3    O35   S    
Cr5   O11   S    
C14   C67   S    
C62   C74   A    
C90   S9    S    
C34   C46   A    
C100  H23   S    
C53   C65   A    
C113  H73   S    
C76   C88   A    
C79   C91   A    
C114  H76   S    
C30   C90   A    
C48   C108  S    
C16   C23   T    
C18   C69   S    
C105  H38   S    
S2    O30   D    
C41   C53   A    
C11   C31   S    
S3    O33   D    
C101  H26   S    
C105  H37   S    
C116  H82   S    
C46   C58   A    
Cr5   O8    S    
C7    C33   S    
C46   C106  S    
Cr3   O25   S    
C103  H32   S    
O32   H50   S    
C16   C71   S    
S10   O55   D    
C70   C82   A    
C14   C19   T    
C25   C85   A    
C98   H17   S    
Cr5   O26   S    
C48   C60   A    
C71   C83   A    
C43   C103  S    
C32   C44   A    
C66   C78   A    
C11   O9    A    
C109  H62   S    
C59   H4    S    
C49   C61   A    
O35   H51   S    
Cr3   O15   S    
C28   C40   A    
C8    O20   A    
O38   H52   S    
C51   H12   S    
C1    O13   A    
C84   C111  S    
C67   C79   A    
C6    O18   A    
C52   C64   A    
C107  H44   S    
S7    O45   D    
C110  H65   S    
C91   S2    S    
C2    O6    A    
S6    O42   D    
C58   C70   A    
C108  H48   S    
C102  H29   S    
C61   C73   A    
C117  H85   S    
C56   C68   A    
C88   S11   S    
C55   H2    S    
C50   H7    S    
C7    O11   A    
C116  H84   S    
C5    O3    A    
C111  H68   S    
S10   O56   S    
C89   S10   S    
C80   C92   A    
S1    O29   S    
C98   H18   S    
C78   C117  S    
C1    O5    A    
S9    O51   D    
C45   C105  S    
Cr3   O3    S    
C65   C77   A    
C81   C93   A    
C36   C96   A    
Cr2   O2    S    
O50   H56   S    
C12   O10   A    
S4    O38   S    
C26   C86   A    
C106  H42   S    
C83   C95   A    
C81   C114  S    
S5    O39   D    
C64   C76   A    
C51   C63   A    
S1    O27   D    
S11   O58   D    
C8    C34   S    
C74   C86   A    
C100  H24   S    
C27   C87   A    
C113  H74   S    
C73   C85   A    
C76   C119  S    
C72   C84   A    
C37   C97   S    
C69   C81   A    
C5    C25   S    
C115  H81   S    
C53   H10   S    
C43   C55   A    
C23   C64   S    
O44   H54   S    
S4    O37   D    
Cr6   O26   S    
C24   C63   S    
C31   C91   A    
C80   C109  S    
C116  H83   S    
C50   C62   A    
C104  H36   S    
C41   C101  S    
C40   C100  S    
C97   H15   S    
Cr1   O1    S    
S10   O54   D    
Cr6   O9    S    
S8    O50   S    
C9    O21   A    
C111  H67   S    
C102  H30   S    
Cr4   O19   S    
C9    C35   S    
C104  H35   S    
C107  H45   S    
C8    O12   A    
Cr1   O13   S    
C2    C28   S    
Cr4   O7    S    
C109  H63   S    
Cr5   O23   S    
C13   C20   T    
C29   C41   A    
C93   S6    S    
C3    O15   A    
C38   C98   S    
C118  H90   S    
C4    O2    A    
C26   C38   A    
C34   C94   A    
C56   H1    S    
C77   C118  S    
Cr6   O12   S    
S6    O44   S    
S8    O49   D    
S11   O59   S    
C112  H72   S    
C4    O16   A    
O62   H60   S    
C105  H39   S    
C103  H33   S    
C38   C50   A    
C35   C95   A    
C101  H27   S    
C120  H96   S    
C112  H70   S    
C39   C99   S    
C74   C115  S    
C17   C22   T    
S12   O62   S    
C2    O14   A    
C92   S1    S    
C111  H69   S    
C73   C116  S    
C117  H86   S    
C110  H66   S    
C114  H77   S    
C95   S4    S    
C112  H71   S    
C55   C67   A    
C120  H95   S    
C9    O7    A    
C102  H28   S    
C97   H13   S    
O29   H49   S    
S7    O47   S    
C108  H46   S    
C6    C26   S    
C63   C75   A    
C119  H92   S    
C52   H11   S    
O59   H59   S    
Cr2   O14   S    
C77   C89   A    
C115  H80   S    
S12   O61   D    
C54   H9    S    
C36   C48   A    
C82   C113  S    
C12   O24   A    
C86   S7    S    
C85   S8    S    
C11   O23   A    
O47   H55   S    
C75   C120  S    
C113  H75   S    
O56   H58   S    
Cr4   O10   S    
C83   C112  S    
C118  H89   S    
C47   C59   A    
C10   O8    A    
C5    O17   A    
C57   H6    S    
S4    O36   D    
C94   S5    S    
S9    O52   D    
C106  H40   S    
C114  H78   S    
C59   C71   A    
C1    C27   S    
S5    O40   D    
C119  H91   S    
C30   C42   A    
C3    O1    A    
C10   C36   S    
C57   C69   A    
C33   C93   A    
C54   C66   A    
C17   C70   S    
Cr1   O25   S    
C12   C32   S    
C60   H3    S    
Cr4   O22   S    
O41   H53   S    
C49   H8    S    
C100  H22   S    
C13   C68   S    
C115  H79   S    
