data_mof_unit_3345.cif
_audit_creation_date              2012-12-11T16:58:26-0500
_audit_creation_method            fapswitch 2.2
_symmetry_space_group_name_H-M    P1
_symmetry_Int_Tables_number       1
_space_group_crystal_system       triclinic
_cell_length_a                    16.899972
_cell_length_b                    7.277388
_cell_length_c                    16.836425
_cell_angle_alpha                 89.999981
_cell_angle_beta                  100.371373
_cell_angle_gamma                 90.000031
_cell_volume                      2036.84080845

loop_
_atom_site_label
_atom_site_type_symbol
_atom_type_description
_atom_site_fract_x
_atom_site_fract_y
_atom_site_fract_z
_atom_type_partial_charge
O1    O     O_R   0.413450 0.494370 0.415710 -0.532867
O2    O     O_R   0.586550 0.994370 0.584290 -0.532867
O3    O     O_R   0.578420 0.819350 0.429360 -0.539204
O4    O     O_R   0.421580 0.319350 0.570640 -0.539205
C1    C     C_R   0.604790 0.654065 0.413833 0.700240
C2    C     C_R   0.395210 0.154065 0.586167 0.700241
O5    O     O_R   0.413570 0.823780 0.406240 -0.542919
O6    O     O_R   0.586430 0.323780 0.593760 -0.542919
O7    O     O_R   0.420530 0.998740 0.561000 -0.537688
O8    O     O_R   0.579470 0.498740 0.439000 -0.537688
C3    C     C_R   0.386235 0.655367 0.383694 0.688399
C4    C     C_R   0.613765 0.155367 0.616305 0.688400
O9    O     O_3   0.502480 0.662320 0.550800 -0.377338
O10   O     O_3   0.497520 0.162320 0.449200 -0.377338
V1    V     V_3+5 0.499540 0.935370 0.490580 1.398293
V2    V     V_3+5 0.500460 0.435370 0.509420 1.398293
C5    C     C_R   0.693615 0.992069 0.736893 0.087985
C6    C     C_R   0.306386 0.492070 0.263106 0.087983
C7    C     C_R   0.680886 0.146802 0.686523 -0.091696
C8    C     C_R   0.319114 0.646802 0.313476 -0.091696
C9    C     C_R   0.734301 0.295662 0.705946 -0.179818
C10   C     C_R   0.265699 0.795662 0.294053 -0.179817
H1    H     H_    0.726990 0.419082 0.669556 0.133506
H2    H     H_    0.273010 0.919082 0.330444 0.133506
C11   C     C_R   0.801173 0.282076 0.769296 -0.129150
C12   C     C_R   0.198827 0.782077 0.230704 -0.129150
H3    H     H_    0.843511 0.393716 0.779647 0.145816
H4    H     H_    0.156489 0.893716 0.220353 0.145816
C13   C     C_R   0.816312 0.121743 0.816194 -0.104000
C14   C     C_R   0.183688 0.621743 0.183806 -0.104000
C15   C     C_R   0.760045 0.979484 0.799349 0.040260
C16   C     C_R   0.239955 0.479485 0.200651 0.040260
C17   C     C_3   0.771794 0.780824 0.783129 -0.107217
C18   C     C_3   0.228206 0.280825 0.216871 -0.107217
C19   C     C_3   0.697893 0.793011 0.716120 -0.457685
C20   C     C_3   0.302109 0.293012 0.283878 -0.457685
H5    H     H_    0.644582 0.716164 0.728705 0.174972
H6    H     H_    0.355419 0.216166 0.271292 0.174971
H7    H     H_    0.710471 0.771831 0.654093 0.169136
H8    H     H_    0.289533 0.271830 0.345906 0.169138
C21   C     C_R   0.332602 0.133199 0.637528 -0.065298
C22   C     C_R   0.667398 0.633200 0.362472 -0.065297
C23   C     C_R   0.166992 0.136015 0.862840 -0.054817
C24   C     C_R   0.833008 0.636015 0.137159 -0.054818
C25   C     C_R   0.272214 0.327186 0.822496 -0.188517
C26   C     C_R   0.727783 0.827180 0.177502 -0.188517
C27   C     C_R   0.218873 0.289381 0.874897 -0.129693
C28   C     C_R   0.781125 0.789376 0.125101 -0.129693
C29   C     C_R   0.171205 0.017803 0.797732 -0.232019
C30   C     C_R   0.828796 0.517805 0.202269 -0.232018
C31   C     C_R   0.224534 0.056190 0.744146 0.152100
C32   C     C_R   0.775466 0.556192 0.255855 0.152101
C33   C     C_R   0.275134 0.212869 0.756278 0.153449
C34   C     C_R   0.724865 0.712869 0.243722 0.153448
C35   C     C_R   0.328333 0.251495 0.702588 -0.230678
C36   C     C_R   0.671666 0.751494 0.297411 -0.230678
C37   C     C_R   0.281043 0.979290 0.625710 -0.154119
C38   C     C_R   0.718958 0.479291 0.374291 -0.154120
C39   C     C_R   0.227624 0.941583 0.678054 -0.179359
C40   C     C_R   0.772377 0.441585 0.321947 -0.179357
H9    H     H_    0.368185 0.369159 0.713082 0.123980
H10   H     H_    0.631812 0.869155 0.286915 0.123979
H11   H     H_    0.282710 0.885673 0.576005 0.127700
H12   H     H_    0.717291 0.385674 0.423997 0.127700
H13   H     H_    0.310613 0.447174 0.833385 0.124738
H14   H     H_    0.689382 0.947162 0.166610 0.124739
H15   H     H_    0.189336 0.821398 0.667252 0.127795
H16   H     H_    0.810664 0.321399 0.332749 0.127794
H17   H     H_    0.217479 0.382645 0.924785 0.133416
H18   H     H_    0.782518 0.882636 0.075212 0.133416
H19   H     H_    0.131226 0.900371 0.787118 0.135228
H20   H     H_    0.868775 0.400374 0.212883 0.135228
O11   O     O_R   0.920630 0.775410 0.061150 -0.540669
O12   O     O_R   0.079370 0.275410 0.938850 -0.540669
O13   O     O_R   0.086500 0.441450 0.093690 -0.540578
O14   O     O_R   0.913500 0.941450 0.906310 -0.540578
C41   C     C_R   0.113695 0.610057 0.116402 0.683174
C42   C     C_R   0.886304 0.110057 0.883598 0.683173
O15   O     O_R   0.921670 0.445960 0.070740 -0.534574
O16   O     O_R   0.078330 0.945960 0.929260 -0.534574
O17   O     O_R   0.913380 0.271130 0.915780 -0.530703
O18   O     O_R   0.086620 0.771130 0.084220 -0.530703
C43   C     C_R   0.895811 0.615509 0.085977 0.714371
C44   C     C_R   0.104189 0.115509 0.914022 0.714373
O19   O     O_3   0.997500 0.603030 0.949220 -0.375810
O20   O     O_3   0.002500 0.103030 0.050780 -0.375810
V3    V     V_3+5 0.000470 0.329940 0.009420 1.468437
V4    V     V_3+5 0.999530 0.829940 0.990580 1.468438
C45   C     C_1   0.761092 0.665470 0.852165 0.308030
N1    N     N_1   0.752646 0.575116 0.906595 -0.368243
C46   C     C_1   0.238907 0.165470 0.147834 0.308031
N2    N     N_1   0.247352 0.075117 0.093403 -0.368243
C47   C     C_1   0.847060 0.744223 0.753100 0.302931
N3    N     N_1   0.906166 0.716345 0.729491 -0.369298
C48   C     C_1   0.152942 0.244223 0.246902 0.302930
N4    N     N_1   0.093837 0.216345 0.270514 -0.369298

loop_
_geom_bond_atom_site_label_1
_geom_bond_atom_site_label_2
_ccdc_geom_bond_type
C14   C16   A    
C1    C22   S    
C47   N3    T    
C48   N4    T    
O1    C3    A    
O16   C44   A    
C24   C43   S    
O2    C4    A    
C22   C38   A    
C2    O7    A    
O15   V3    S    
O5    C3    A    
C7    C9    A    
O14   C42   A    
C26   H14   S    
C17   C19   S    
C37   C39   A    
C38   C40   A    
C25   C27   A    
C30   H20   S    
C18   C46   S    
C27   H17   S    
C32   C40   A    
C22   C36   A    
C14   C41   S    
C21   C35   A    
C13   C42   S    
C29   C31   A    
C2    C21   S    
C30   C32   A    
C15   C17   S    
O12   V3    S    
O14   V4    S    
C18   C20   S    
C36   H10   S    
C39   H15   S    
O5    V1    S    
C25   C33   A    
O6    V2    S    
C38   H12   S    
C23   C44   S    
C32   C34   A    
C37   H11   S    
C26   C28   A    
C33   C35   A    
C11   C13   A    
C34   C36   A    
C3    C8    S    
C20   H8    S    
C18   C48   S    
O4    C2    A    
O12   C44   A    
C46   N2    T    
O20   V3    S    
C23   C29   A    
C31   C33   A    
C16   C18   S    
O4    V2    S    
C19   H7    S    
O11   V4    S    
C17   C45   S    
O6    C4    A    
C26   C34   A    
O1    V2    S    
O2    V1    S    
O13   C41   A    
O17   V3    S    
O13   V3    S    
C8    C10   A    
C12   C14   A    
C9    H1    S    
C25   H13   S    
C5    C15   A    
C10   H2    S    
C6    C16   A    
O3    V1    S    
O19   V4    S    
C24   C30   A    
C9    C11   A    
C19   H5    S    
C28   H18   S    
O3    C1    A    
C17   C47   S    
C11   H3    S    
C12   H4    S    
C20   H6    S    
O7    V1    S    
C21   C37   A    
C1    O8    A    
C13   C15   A    
O8    V2    S    
O15   C43   A    
C42   O17   A    
C23   C27   A    
C41   O18   A    
O18   V4    S    
C35   H9    S    
C4    C7    S    
C5    C7    A    
C6    C8    A    
C10   C12   A    
C31   C39   A    
C40   H16   S    
O16   V4    S    
C29   H19   S    
O9    V2    S    
O10   V1    S    
C5    C19   S    
C45   N1    T    
C6    C20   S    
O11   C43   A    
C24   C28   A    
