data_mof_unit_538.cif
_audit_creation_date              2012-12-11T14:54:41-0500
_audit_creation_method            fapswitch 2.2
_symmetry_space_group_name_H-M    P1
_symmetry_Int_Tables_number       1
_space_group_crystal_system       triclinic
_cell_length_a                    19.038478
_cell_length_b                    10.862044
_cell_length_c                    18.787841
_cell_angle_alpha                 90.119962
_cell_angle_beta                  90.114896
_cell_angle_gamma                 89.858118
_cell_volume                      3885.23692969

loop_
_atom_site_label
_atom_site_type_symbol
_atom_type_description
_atom_site_fract_x
_atom_site_fract_y
_atom_site_fract_z
_atom_type_partial_charge
C1    C     C_R   0.730177 0.376634 0.645977 0.543980
C2    C     C_R   0.291650 0.847959 0.459294 -0.158582
C3    C     C_R   0.936432 0.556322 0.481208 -0.152173
C4    C     C_R   0.192883 0.376942 0.537721 -0.141066
C5    C     C_R   0.791615 0.347909 0.459283 -0.158599
C6    C     C_R   0.697606 0.867153 0.464148 -0.147518
C7    C     C_R   0.289899 0.832502 0.532574 -0.141950
C8    C     C_R   0.197614 0.367099 0.464155 -0.147481
C9    C     C_R   0.789861 0.332441 0.532562 -0.141956
C10   C     C_R   0.760198 0.899827 0.430350 0.031777
C11   C     C_R   0.249722 0.913224 0.574941 0.025742
C12   C     C_R   0.260191 0.399843 0.430348 0.031788
C13   C     C_R   0.271764 0.373538 0.355783 0.543435
C14   C     C_R   0.749719 0.413205 0.574937 0.025729
C15   C     C_R   0.818532 0.937320 0.470747 -0.134069
C16   C     C_R   0.215084 0.013126 0.544435 -0.143331
C17   C     C_R   0.318516 0.437408 0.470737 -0.134059
C18   C     C_R   0.715117 0.513154 0.544441 -0.143334
C19   C     C_R   0.814789 0.942085 0.543450 -0.137327
C20   C     C_R   0.216026 0.027311 0.471800 -0.128530
C21   C     C_R   0.314782 0.442159 0.543439 -0.137300
C22   C     C_R   0.716064 0.527355 0.471807 -0.128531
C23   C     C_R   0.751129 0.918191 0.577217 0.029149
C24   C     C_R   0.230178 0.876638 0.645979 0.543980
C25   C     C_R   0.253316 0.943897 0.428695 0.028801
C26   C     C_R   0.251134 0.418194 0.577217 0.029163
C27   C     C_R   0.753318 0.443902 0.428694 0.028786
C28   C     C_R   0.458843 0.058146 0.946806 0.098725
C29   C     C_R   0.443390 0.052502 0.019637 0.089150
C30   C     C_R   0.958844 0.558160 0.946805 0.098663
C31   C     C_R   0.943405 0.552504 0.019639 0.089096
C32   C     C_R   0.451296 0.158590 0.062437 0.038896
C33   C     C_R   0.489845 0.165362 0.918657 0.043224
C34   C     C_R   0.951310 0.658587 0.062439 0.038933
C35   C     C_R   0.771766 0.873534 0.355784 0.543427
C36   C     C_R   0.989851 0.665369 0.918659 0.043251
C37   C     C_R   0.473909 0.269126 0.031491 -0.177290
C38   C     C_R   0.494212 0.271951 0.960475 -0.182169
C39   C     C_R   0.973922 0.769126 0.031495 -0.177277
C40   C     C_R   0.994225 0.771954 0.960478 -0.182151
C41   C     C_R   0.530939 0.155277 0.646716 0.545711
C42   C     C_R   0.434971 0.150948 0.360901 0.563051
C43   C     C_R   0.030939 0.655278 0.646716 0.545709
C44   C     C_R   0.934971 0.650948 0.360901 0.563031
C45   C     C_R   0.814002 0.947623 0.959458 -0.145621
C46   C     C_3   0.525533 0.357167 0.448530 -0.261784
C47   C     C_R   0.242843 0.041779 0.024637 -0.118241
C48   C     C_R   0.314007 0.447557 0.959448 -0.145631
C49   C     C_R   0.742958 0.541790 0.024631 -0.118279
C50   C     C_R   0.817796 0.943057 0.032172 -0.140194
C51   C     C_R   0.238088 0.021753 0.952240 -0.146633
C52   C     C_R   0.317808 0.442983 0.032162 -0.140181
C53   C     C_R   0.738198 0.521760 0.952233 -0.146730
C54   C     C_R   0.759420 0.905979 0.072374 0.022633
C55   C     C_R   0.244172 0.902212 0.926518 0.020115
C56   C     C_R   0.259425 0.405969 0.072373 0.022668
C57   C     C_3   0.547985 0.359805 0.526045 -0.258708
C58   C     C_R   0.744159 0.402188 0.926525 0.020104
C59   C     C_R   0.696347 0.875631 0.038467 -0.152546
C60   C     C_R   0.254559 0.802377 0.973143 -0.141738
C61   C     C_R   0.196337 0.375686 0.038474 -0.152554
C62   C     C_R   0.754427 0.302327 0.973160 -0.141619
C63   C     C_R   0.691650 0.885060 0.964903 -0.143878
C64   C     C_R   0.258005 0.822344 0.046056 -0.155554
C65   C     C_R   0.191635 0.385116 0.964911 -0.143871
C66   C     C_R   0.757880 0.322300 0.046073 -0.155622
C67   C     C_R   0.750326 0.923837 0.925468 0.020060
C68   C     C_3   0.025630 0.857057 0.448497 -0.261769
C69   C     C_R   0.251896 0.942319 0.071458 0.047093
C70   C     C_R   0.250319 0.423835 0.925468 0.020090
C71   C     C_R   0.751892 0.442307 0.071463 0.046966
C72   C     C_R   0.741537 0.967456 0.648025 0.544777
C73   C     C_R   0.259473 0.972873 0.354005 0.539333
C74   C     C_R   0.241538 0.467455 0.648026 0.544783
C75   C     C_R   0.759473 0.472873 0.354005 0.539322
C76   C     C_R   0.729024 0.376260 0.853131 0.544275
C77   C     C_R   0.271530 0.376428 0.146434 0.540084
C78   C     C_R   0.229025 0.876259 0.853131 0.544288
C79   C     C_3   0.048087 0.859693 0.526010 -0.258667
C80   C     C_R   0.771529 0.876429 0.146435 0.540070
C81   C     C_R   0.529572 0.157300 0.851996 0.571373
C82   C     C_R   0.435813 0.152586 0.138969 0.589187
C83   C     C_R   0.029573 0.657301 0.851996 0.571395
C84   C     C_R   0.935816 0.652586 0.138968 0.589163
C85   C     C_R   0.741267 0.970034 0.854004 0.539735
C86   C     C_R   0.258564 0.971104 0.145729 0.544849
C87   C     C_R   0.241265 0.470036 0.854005 0.539753
C88   C     C_R   0.758560 0.471091 0.145733 0.544831
C89   C     C_R   0.448039 0.158983 0.437484 0.016248
C90   C     C_R   0.692870 0.876999 0.537713 -0.141078
C91   C     C_R   0.488906 0.164620 0.581707 0.016951
C92   C     C_R   0.948043 0.658989 0.437484 0.016242
C93   C     C_R   0.988911 0.664632 0.581705 0.016947
C94   C     C_R   0.469224 0.269065 0.469816 0.012064
C95   C     C_R   0.489585 0.271761 0.540565 0.005126
C96   C     C_R   0.969274 0.769056 0.469799 0.012022
C97   C     C_R   0.989636 0.771755 0.540548 0.005110
C98   C     C_R   0.456265 0.059179 0.553021 -0.147292
C99   C     C_R   0.436467 0.056286 0.481197 -0.152169
C100  C     C_R   0.956231 0.559218 0.553033 -0.147283
Cr1   Cr    Cr6+3 0.771950 0.169480 0.750100 1.013629
Cr2   Cr    Cr6+3 0.383410 0.010620 0.249390 1.027092
Cr3   Cr    Cr6+3 0.116590 0.510620 0.750610 1.023409
Cr4   Cr    Cr6+3 0.883410 0.510620 0.249390 1.027142
Cr5   Cr    Cr6+3 0.228050 0.169480 0.249900 1.009211
Cr6   Cr    Cr6+3 0.271950 0.669480 0.750100 1.013619
Cr7   Cr    Cr6+3 0.728050 0.669480 0.249900 1.009198
Cr8   Cr    Cr6+3 0.614930 0.323340 0.749170 1.014863
Cr9   Cr    Cr6+3 0.385070 0.323340 0.250830 1.008852
Cr10  Cr    Cr6+3 0.114930 0.823340 0.749170 1.014859
Cr11  Cr    Cr6+3 0.885070 0.823340 0.250830 1.008852
Cr12  Cr    Cr6+3 0.616590 0.010620 0.750610 1.023410
H1    H     H_    0.452078 0.975398 0.583872 0.136708
H2    H     H_    0.229081 0.098529 0.916594 0.122120
H3    H     H_    0.367777 0.465351 0.056459 0.137598
H4    H     H_    0.729291 0.598562 0.916576 0.122107
H5    H     H_    0.651419 0.843982 0.068550 0.131491
H6    H     H_    0.257412 0.708850 0.953255 0.146544
H7    H     H_    0.151401 0.344093 0.068564 0.131508
H8    H     H_    0.757184 0.208785 0.953279 0.146508
H9    H     H_    0.641561 0.867365 0.939467 0.139906
H10   H     H_    0.265635 0.745696 0.082083 0.123979
H11   H     H_    0.141536 0.367475 0.939482 0.139911
H12   H     H_    0.416999 0.971237 0.458721 0.136336
H13   H     H_    0.765411 0.245631 0.082110 0.123973
H14   H     H_    0.003883 0.946384 0.429786 0.133224
H15   H     H_    0.100821 0.818259 0.535040 0.162864
H16   H     H_    0.503741 0.446465 0.429832 0.133195
H17   H     H_    0.600742 0.318463 0.535071 0.162898
H18   H     H_    0.565419 0.314788 0.412837 0.159623
H19   H     H_    0.539288 0.450653 0.551946 0.137079
H20   H     H_    0.065492 0.814592 0.412807 0.159618
H21   H     H_    0.039445 0.950573 0.551895 0.137109
H22   H     H_    0.642925 0.858613 0.563018 0.132953
H23   H     H_    0.952012 0.475455 0.583897 0.136711
H24   H     H_    0.322180 0.785259 0.426728 0.121746
H25   H     H_    0.142947 0.358500 0.563033 0.132926
H26   H     H_    0.822115 0.285176 0.426711 0.121770
H27   H     H_    0.652752 0.834994 0.433883 0.123973
H28   H     H_    0.316552 0.753643 0.555394 0.139923
H29   H     H_    0.152767 0.334886 0.433897 0.123964
H30   H     H_    0.816482 0.253541 0.555374 0.139964
H31   H     H_    0.868287 0.960704 0.446563 0.137631
H32   H     H_    0.183979 0.076141 0.576287 0.127137
H33   H     H_    0.368260 0.460852 0.446547 0.137594
H34   H     H_    0.916929 0.471289 0.458743 0.136349
H35   H     H_    0.684040 0.576200 0.576300 0.127146
H36   H     H_    0.860628 0.973016 0.572695 0.132340
H37   H     H_    0.187820 0.104839 0.449523 0.140962
H38   H     H_    0.360616 0.473137 0.572676 0.132333
H39   H     H_    0.687890 0.604925 0.449535 0.140987
H40   H     H_    0.480020 0.351834 0.063123 0.139560
H41   H     H_    0.517166 0.355524 0.939575 0.141428
H42   H     H_    0.980028 0.851835 0.063126 0.139571
H43   H     H_    0.017180 0.855528 0.939579 0.141422
H44   H     H_    0.391570 0.935517 0.901713 0.229445
H45   H     H_    0.859963 0.977514 0.930313 0.136164
H46   H     H_    0.472513 0.877242 0.921150 0.225967
H47   H     H_    0.384979 0.896661 0.021261 0.231917
H48   H     H_    0.468552 0.878852 0.048560 0.223713
H49   H     H_    0.891540 0.435576 0.901720 0.229451
H50   H     H_    0.972478 0.377264 0.921105 0.225968
H51   H     H_    0.884811 0.396940 0.021326 0.231941
H52   H     H_    0.968407 0.378670 0.048321 0.223596
H53   H     H_    0.239730 0.135112 0.044470 0.137137
H54   H     H_    0.359973 0.477402 0.930296 0.136140
H55   H     H_    0.739947 0.635144 0.044455 0.137107
H56   H     H_    0.867756 0.965476 0.056473 0.137617
N1    N     N_3   0.445391 0.953856 0.901581 -0.605658
N2    N     N_3   0.424754 0.936943 0.051180 -0.593358
N3    N     N_3   0.945358 0.453896 0.901568 -0.605709
N4    N     N_3   0.924725 0.436960 0.051169 -0.593251
O1    O     O_R   0.787510 0.042610 0.670410 -0.526288
O2    O     O_R   0.454250 0.051070 0.169440 -0.467754
O3    O     O_R   0.045750 0.551070 0.830560 -0.479308
O4    O     O_R   0.954250 0.551070 0.169440 -0.467635
O5    O     O_R   0.681210 0.959150 0.825320 -0.507660
O6    O     O_R   0.318790 0.959150 0.174680 -0.493669
O7    O     O_R   0.181210 0.459150 0.825320 -0.507668
O8    O     O_R   0.818790 0.459150 0.174680 -0.493685
O9    O     O_3   0.667820 0.167810 0.749960 -0.247020
O10   O     O_3   0.332180 0.167810 0.250040 -0.294114
O11   O     O_3   0.167820 0.667810 0.749960 -0.247010
O12   O     O_R   0.212490 0.042610 0.329590 -0.522187
O13   O     O_3   0.832180 0.667810 0.250040 -0.294125
O14   O     O_R   0.765670 0.292090 0.675090 -0.503930
O15   O     O_R   0.234330 0.292090 0.324910 -0.503657
O16   O     O_R   0.265670 0.792090 0.675090 -0.503926
O17   O     O_R   0.734330 0.792090 0.324910 -0.503665
O18   O     O_R   0.670220 0.409020 0.668560 -0.527695
O19   O     O_R   0.329780 0.409020 0.331440 -0.532322
O20   O     O_R   0.170220 0.909020 0.668560 -0.527702
O21   O     O_R   0.829780 0.909020 0.331440 -0.532317
O22   O     O_R   0.556580 0.251590 0.674980 -0.500489
O23   O     O_R   0.287510 0.542610 0.670410 -0.526291
O24   O     O_R   0.443420 0.251590 0.325020 -0.494190
O25   O     O_R   0.056580 0.751590 0.674980 -0.500488
O26   O     O_R   0.943420 0.751590 0.325020 -0.494196
O27   O     O_R   0.545890 0.049670 0.670030 -0.523632
O28   O     O_R   0.454110 0.049670 0.329970 -0.510901
O29   O     O_R   0.045890 0.549670 0.670030 -0.523615
O30   O     O_R   0.954110 0.549670 0.329970 -0.510881
O31   O     O_R   0.681340 0.957860 0.676500 -0.507066
O32   O     O_R   0.318660 0.957860 0.323500 -0.523032
O33   O     O_R   0.181340 0.457860 0.676500 -0.507059
O34   O     O_R   0.712490 0.542610 0.329590 -0.522184
O35   O     O_R   0.818660 0.457860 0.323500 -0.523030
O36   O     O_R   0.787380 0.044010 0.830940 -0.526699
O37   O     O_R   0.212620 0.044010 0.169060 -0.517194
O38   O     O_R   0.287380 0.544010 0.830940 -0.526712
O39   O     O_R   0.712620 0.544010 0.169060 -0.517145
O40   O     O_R   0.765540 0.293390 0.823910 -0.505332
O41   O     O_R   0.234460 0.293390 0.176090 -0.503277
O42   O     O_R   0.265540 0.793390 0.823910 -0.505352
O43   O     O_R   0.734460 0.793390 0.176090 -0.503275
O44   O     O_R   0.670090 0.410410 0.829090 -0.513687
O45   O     O_R   0.556450 0.252890 0.823790 -0.514672
O46   O     O_R   0.329910 0.410410 0.170910 -0.531995
O47   O     O_R   0.170090 0.910410 0.829090 -0.513714
O48   O     O_R   0.829910 0.910410 0.170910 -0.531986
O49   O     O_R   0.443550 0.252890 0.176210 -0.509064
O50   O     O_R   0.056450 0.752890 0.823790 -0.514672
O51   O     O_R   0.943550 0.752890 0.176210 -0.509071
O52   O     O_R   0.545750 0.051070 0.830560 -0.479285

loop_
_geom_bond_atom_site_label_1
_geom_bond_atom_site_label_2
_ccdc_geom_bond_type
Cr9   O10   S    
C58   C62   A    
C21   C26   A    
C44   O26   A    
C13   O15   A    
H47   N2    S    
C83   O3    A    
C61   H7    S    
C14   C18   A    
Cr1   O1    S    
C2    C7    A    
C86   O37   A    
C92   C96   A    
C4    C8    A    
C78   O42   A    
Cr12  O9    S    
C77   O41   A    
C5    H26   S    
Cr4   O4    S    
C82   O49   A    
C1    O14   A    
C15   C19   A    
Cr4   O13   S    
C91   C98   A    
C50   C54   A    
Cr8   O9    S    
C89   C99   A    
Cr3   O11   S    
C57   H17   S    
C28   C29   A    
C16   H32   S    
C37   C38   A    
C46   H18   S    
C49   H55   S    
C29   C32   A    
C10   C15   A    
Cr11  O26   S    
C30   C31   A    
C47   H53   S    
C75   O34   A    
C64   H10   S    
C77   O46   A    
Cr7   O39   S    
C20   C25   A    
C36   C83   S    
C65   C70   A    
Cr6   O38   S    
C11   C24   S    
C86   O6    A    
Cr5   O37   S    
C20   H37   S    
Cr9   O24   S    
Cr4   O35   S    
C89   C94   A    
C68   H20   S    
Cr2   O32   S    
C47   C69   A    
Cr7   O34   S    
Cr9   O46   S    
C43   C93   S    
C4    H25   S    
C5    C27   A    
C83   O50   A    
C75   O35   A    
C3    C100  A    
H50   N3    S    
C82   O2    A    
C88   O39   A    
C12   C17   A    
C45   C67   A    
C28   N1    S    
C40   H43   S    
C60   H6    S    
C10   C35   S    
C29   N2    S    
Cr12  O27   S    
C51   C55   A    
C44   C92   S    
C100  H23   S    
C41   O27   A    
Cr12  O31   S    
C1    O18   A    
C76   O40   A    
C68   C79   S    
C59   H5    S    
C55   C60   A    
Cr10  O25   S    
C44   O30   A    
C30   N3    S    
Cr12  O52   S    
Cr2   O6    S    
Cr8   O18   S    
C25   C73   S    
C34   C84   S    
C27   C75   S    
C70   C87   S    
C63   H9    S    
C57   H19   S    
C88   O8    A    
C80   O43   A    
C54   C80   S    
C54   C59   A    
Cr1   O40   S    
H44   N1    S    
C79   H21   S    
C73   O32   A    
C63   C67   A    
C67   C85   S    
C51   H2    S    
Cr11  O13   S    
Cr10  O11   S    
C62   C66   A    
C39   H42   S    
C58   C76   S    
C34   C39   A    
Cr2   O10   S    
C90   H22   S    
C36   C40   A    
C45   H45   S    
C24   O20   A    
C18   H35   S    
C39   C40   A    
C55   C78   S    
C35   O21   A    
C19   C23   A    
C98   H1    S    
C47   C51   A    
C6    C90   A    
C87   O7    A    
C84   O51   A    
C2    H24   S    
C56   C77   S    
C3    C92   A    
Cr4   O30   S    
C7    C11   A    
C9    C14   A    
Cr3   O29   S    
C5    C9    A    
C41   O22   A    
Cr10  O47   S    
Cr1   O36   S    
Cr2   O28   S    
C78   O47   A    
C11   C16   A    
C76   O44   A    
C93   C97   A    
C66   C71   A    
C46   C94   S    
Cr6   O42   S    
C16   C20   A    
C81   O45   A    
C96   C97   A    
Cr7   O17   S    
Cr3   O3    S    
C23   C90   A    
Cr7   O43   S    
C43   O25   A    
Cr11  O51   S    
C32   C37   A    
C42   O24   A    
H51   N4    S    
C93   C100  A    
Cr8   O44   S    
Cr11  O21   S    
C72   O31   A    
C15   H31   S    
Cr8   O45   S    
C85   O5    A    
C41   C91   S    
C72   O1    A    
C28   C33   A    
C22   C27   A    
C46   C57   S    
C50   H56   S    
C17   H33   S    
Cr5   O10   S    
C87   O38   A    
H52   N4    S    
Cr11  O48   S    
C37   H40   S    
Cr8   O22   S    
Cr1   O14   S    
Cr10  O50   S    
C68   H14   S    
Cr9   O49   S    
C52   C56   A    
C24   O16   A    
C52   H3    S    
C46   H16   S    
C73   O12   A    
C81   O52   A    
C79   H15   S    
C22   H39   S    
C57   C95   S    
C18   C22   A    
C62   H8    S    
C23   C72   S    
C79   C97   S    
C31   C34   A    
Cr3   O33   S    
C48   C70   A    
Cr5   O41   S    
C80   O48   A    
C4    C26   A    
C9    H30   S    
C53   H4    S    
H46   N1    S    
C74   O23   A    
Cr2   O2    S    
C64   C69   A    
Cr7   O13   S    
C59   C63   A    
C19   H36   S    
C13   O19   A    
C66   H13   S    
C30   C36   A    
C60   C64   A    
C42   C89   S    
Cr5   O15   S    
C42   O28   A    
Cr6   O23   S    
Cr6   O16   S    
C32   C82   S    
C8    H29   S    
C21   H38   S    
Cr4   O8    S    
C49   C71   A    
C45   C50   A    
Cr9   O19   S    
C49   C53   A    
Cr10  O20   S    
C26   C74   S    
C2    C25   A    
Cr3   O7    S    
C65   H11   S    
Cr5   O12   S    
C94   C95   A    
Cr1   O9    S    
C17   C21   A    
Cr6   O11   S    
C6    C10   A    
C6    H27   S    
C91   C95   A    
C71   C88   S    
H49   N3    S    
C61   C65   A    
C7    H28   S    
C48   C52   A    
C48   H54   S    
C12   C13   S    
C3    H34   S    
C35   O17   A    
C98   C99   A    
C31   N4    S    
H48   N2    S    
C43   O29   A    
C99   H12   S    
C33   C38   A    
C1    C14   S    
C38   H41   S    
C84   O4    A    
C33   C81   S    
C53   C58   A    
C69   C86   S    
C8    C12   A    
C85   O36   A    
C68   C96   S    
Cr12  O5    S    
C74   O33   A    
C56   C61   A    
