data_mof_unit_784.cif
_audit_creation_date              2012-12-10T17:27:56-0500
_audit_creation_method            fapswitch 2.2
_symmetry_space_group_name_H-M    P1
_symmetry_Int_Tables_number       1
_space_group_crystal_system       triclinic
_cell_length_a                    10.68973
_cell_length_b                    12.094729
_cell_length_c                    12.857125
_cell_angle_alpha                 93.81262
_cell_angle_beta                  91.870991
_cell_angle_gamma                 85.428434
_cell_volume                      1652.70896493

loop_
_atom_site_label
_atom_site_type_symbol
_atom_type_description
_atom_site_fract_x
_atom_site_fract_y
_atom_site_fract_z
_atom_type_partial_charge
Br1   Br    Br    0.846016 0.716262 0.390343 -0.442317
Br2   Br    Br    0.303177 0.242603 0.995622 -0.332205
Br3   Br    Br    0.323381 0.218625 0.370243 -0.400176
Br4   Br    Br    0.713224 0.254784 0.675330 -0.389922
Br5   Br    Br    0.705128 0.001918 0.731159 -0.376799
Br6   Br    Br    0.286153 0.746057 0.324480 -0.412880
Br7   Br    Br    0.523042 0.220481 0.180984 -0.309939
Br8   Br    Br    0.389692 0.800254 0.039299 -0.353980
C1    C     C_R   0.483111 0.522396 0.699587 0.887716
C2    C     C_R   0.430056 0.645035 0.860671 -0.108041
C3    C     C_R   0.417695 0.444659 0.864345 -0.062561
C4    C     C_R   0.739158 0.496954 0.486901 0.912623
C5    C     C_R   0.417749 0.455051 0.974005 -0.040348
C6    C     C_R   0.446971 0.557876 0.024570 0.003830
C7    C     C_R   0.496023 0.559741 0.127005 -0.082314
C8    C     C_R   0.463694 0.363257 0.133493 0.280966
C9    C     C_R   0.409046 0.362526 0.034234 0.233123
C10   C     C_R   0.363831 0.954197 0.415852 -0.118719
C11   C     C_R   0.386195 0.838588 0.416687 0.352927
C12   C     C_R   0.949327 0.392610 0.492663 0.031583
C13   C     C_R   0.550562 0.856741 0.543915 0.050417
C14   C     C_R   0.537714 0.975934 0.542299 -0.099093
C15   C     C_R   0.446084 0.025420 0.472694 -0.099522
C16   C     C_R   0.505744 0.477453 0.298487 0.932746
C17   C     C_R   0.441007 0.143502 0.463423 0.327082
C18   C     C_R   0.605166 0.162119 0.591287 0.309797
C19   C     C_R   0.610296 0.047922 0.607903 0.154867
C20   C     C_R   0.260231 0.501754 0.508640 0.903725
C21   C     C_R   0.914373 0.281912 0.472959 0.004468
C22   C     C_R   0.980457 0.193798 0.523267 -0.027424
C23   C     C_R   0.873202 0.490464 0.469168 -0.211958
C24   C     C_R   0.084594 0.215789 0.588492 0.002403
C25   C     C_R   0.129409 0.321285 0.593016 -0.147300
C26   C     C_R   0.068704 0.406581 0.535726 0.079884
C27   C     C_1   0.414023 0.745541 0.804718 0.336802
C28   C     C_1   0.406256 0.336603 0.809982 0.329952
C29   C     C_1   0.248765 0.992920 0.362662 0.347274
C30   C     C_1   0.643568 0.798328 0.607723 0.396866
C31   C     C_1   0.829545 0.255314 0.386911 0.228297
C32   C     C_1   0.941781 0.081476 0.507706 0.219640
C33   C     C_1   0.153175 0.129174 0.644081 0.216533
C34   C     C_R   0.929627 0.588823 0.452456 0.274396
C35   C     C_1   0.570750 0.649953 0.165373 0.346440
C36   C     C_R   0.055547 0.593599 0.473951 -0.176229
C37   C     C_R   0.125836 0.503336 0.514342 -0.171395
C38   C     C_R   0.496437 0.464145 0.184101 -0.255937
C39   C     C_R   0.444277 0.537740 0.809164 -0.213991
C40   C     C_R   0.429440 0.655049 0.969226 0.248950
H1    H     H_    0.212618 0.336247 0.640292 0.149571
H2    H     H_    0.098650 0.667838 0.456382 0.224611
N1    N     N_R   0.523130 0.207800 0.519340 -0.171592
N2    N     N_1   0.630510 0.721652 0.195743 -0.075820
N3    N     N_R   0.476870 0.792180 0.480660 -0.157462
N4    N     N_1   0.400418 0.826221 0.760651 -0.143119
N5    N     N_1   0.398065 0.250530 0.766230 -0.143644
N6    N     N_1   0.155830 0.021395 0.319951 -0.092630
N7    N     N_1   0.718025 0.750591 0.658879 -0.131317
N8    N     N_1   0.763110 0.233121 0.317411 -0.101180
N9    N     N_1   0.910918 0.991880 0.495318 -0.113653
N10   N     N_1   0.208173 0.059664 0.688345 -0.122948
O1    O     O_R   0.506170 0.421690 0.658830 -0.588566
O2    O     O_R   0.491330 0.609320 0.646410 -0.640439
O3    O     O_R   0.690660 0.406170 0.506210 -0.596417
O4    O     O_R   0.675810 0.593790 0.493790 -0.594617
O5    O     O_R   0.508670 0.390680 0.353590 -0.554441
O6    O     O_R   0.493830 0.578310 0.341170 -0.585293
O7    O     O_R   0.324190 0.406210 0.506210 -0.597228
O8    O     O_R   0.309340 0.593830 0.493790 -0.602900
Zn1   Zn    Zn3+2 0.509910 0.374720 0.508290 1.040767
Zn2   Zn    Zn3+2 0.490090 0.625280 0.491710 1.018056

loop_
_geom_bond_atom_site_label_1
_geom_bond_atom_site_label_2
_ccdc_geom_bond_type
Br4   C18   S    
C24   C33   S    
C17   N1    A    
C21   C22   A    
C23   C34   A    
O4    Zn2   S    
C13   N3    A    
C30   N7    T    
C3    C39   A    
C6    C7    A    
C5    C9    A    
C14   C19   A    
C16   C38   S    
C24   C25   A    
C11   N3    A    
Br8   C40   S    
C25   C26   A    
C22   C32   S    
C29   N6    T    
C26   C37   A    
C18   N1    A    
C27   N4    T    
C22   C24   A    
Br6   C11   S    
C3    C5    A    
O2    Zn2   S    
C21   C31   S    
C18   C19   A    
O6    Zn2   S    
C34   C36   A    
C16   O5    A    
O5    Zn1   S    
N3    Zn2   S    
C13   C14   A    
C3    C28   S    
C20   O8    A    
C10   C29   S    
C35   N2    T    
C1    C39   S    
C12   C21   A    
C15   C17   A    
C4    C23   S    
C2    C40   A    
C4    O4    A    
C2    C27   S    
C1    O1    A    
C20   C37   S    
C8    C9    A    
O7    Zn1   S    
C8    C38   A    
C1    O2    A    
O3    Zn1   S    
Br1   C34   S    
Br3   C17   S    
C20   O7    A    
C36   C37   A    
C7    C35   S    
C16   O6    A    
O8    Zn2   S    
C10   C11   A    
C12   C26   A    
O1    Zn1   S    
C2    C39   A    
C28   N5    T    
C4    O3    A    
C6    C40   A    
C14   C15   A    
Br7   C8    S    
C36   H2    S    
N1    Zn1   S    
C7    C38   A    
C32   N9    T    
Br5   C19   S    
C31   N8    T    
C25   H1    S    
C13   C30   S    
C10   C15   A    
C33   N10   T    
C5    C6    A    
Br2   C9    S    
C12   C23   A    
