data_mof_unit_1565.cif
_audit_creation_date              2012-12-10T16:36:48-0500
_audit_creation_method            fapswitch 2.2
_symmetry_space_group_name_H-M    P1
_symmetry_Int_Tables_number       1
_space_group_crystal_system       triclinic
_cell_length_a                    14.038397
_cell_length_b                    16.513122
_cell_length_c                    15.080001
_cell_angle_alpha                 89.788968
_cell_angle_beta                  92.52672
_cell_angle_gamma                 90.075831
_cell_volume                      3492.3873101

loop_
_atom_site_label
_atom_site_type_symbol
_atom_type_description
_atom_site_fract_x
_atom_site_fract_y
_atom_site_fract_z
_atom_type_partial_charge
C1    C     C_R   0.681432 0.845833 0.521807 0.477790
C2    C     C_R   0.981098 0.458456 0.107595 -0.023351
C3    C     C_R   0.561606 0.088841 0.132416 -0.022220
C4    C     C_R   0.061541 0.588875 0.132424 -0.022229
C5    C     C_R   0.557617 0.103331 0.040024 -0.015417
C6    C     C_R   0.057530 0.603379 0.040033 -0.015432
C7    C     C_2   0.243906 0.218538 0.469381 -0.018475
C8    C     C_2   0.237925 0.786817 0.477651 -0.004130
C9    C     C_2   0.743897 0.718532 0.469391 -0.018466
C10   C     C_2   0.737936 0.286805 0.477632 -0.004141
C11   C     C_2   0.751094 0.781766 0.525244 -0.092513
C12   C     C_R   0.681279 0.154233 0.521061 0.482426
C13   C     C_2   0.752047 0.217420 0.523101 -0.084299
C14   C     C_2   0.251093 0.281764 0.525246 -0.092509
C15   C     C_2   0.252049 0.717420 0.523095 -0.084310
C16   C     C_R   0.318717 0.156075 0.479311 0.525576
C17   C     C_R   0.317271 0.845208 0.481293 0.533270
C18   C     C_R   0.818716 0.656074 0.479313 0.525578
C19   C     C_R   0.817273 0.345206 0.481290 0.533270
C20   C     C_R   0.520312 0.002135 0.260754 0.508941
C21   C     C_R   0.020312 0.502136 0.260754 0.508990
C22   C     C_R   0.478471 0.999758 0.738726 0.550871
C23   C     C_R   0.181432 0.345832 0.521807 0.477807
C24   C     C_R   0.978471 0.499758 0.738727 0.550865
C25   C     C_R   0.526547 0.014516 0.165303 -0.002697
C26   C     C_R   0.026544 0.514528 0.165306 -0.002650
C27   C     C_R   0.467595 0.998569 0.834699 0.039470
C28   C     C_R   0.967590 0.498571 0.834702 0.039429
C29   C     C_R   0.387819 0.946141 0.963979 0.011681
C30   C     C_R   0.887864 0.446088 0.963982 0.011678
C31   C     C_R   0.391352 0.954585 0.870733 0.001407
C32   C     C_R   0.891385 0.454541 0.870737 0.001408
C33   C     C_R   0.534279 0.040463 0.890594 0.017365
C34   C     C_R   0.181278 0.654234 0.521058 0.482428
C35   C     C_R   0.034235 0.540511 0.890597 0.017399
C36   C     C_2   0.468062 0.873058 0.138173 0.197620
C37   C     C_2   0.968171 0.373044 0.138163 0.197570
C38   C     C_2   0.597715 0.153444 0.193777 0.197777
C39   C     C_2   0.097603 0.653489 0.193794 0.197787
C40   C     C_3   0.297265 0.914036 0.005258 -0.237418
C41   C     C_3   0.212955 0.972484 0.989595 -0.315231
C42   C     C_3   0.124420 0.942052 0.034832 -0.448691
C43   C     C_3   0.797335 0.413919 0.005262 -0.237439
C44   C     C_3   0.712983 0.472331 0.989622 -0.315234
C45   C     C_R   0.518522 0.042880 0.982372 0.028961
C46   C     C_3   0.624484 0.441869 0.034884 -0.448739
C47   C     C_2   0.581271 0.185685 0.006164 0.179402
C48   C     C_2   0.081102 0.685754 0.006183 0.179425
C49   C     C_2   0.316876 0.915301 0.811658 0.229346
C50   C     C_2   0.816934 0.415226 0.811663 0.229381
C51   C     C_3   0.629612 0.068717 0.855191 -0.230880
C52   C     C_3   0.691809 0.996944 0.828410 -0.324454
C53   C     C_3   0.786042 0.026158 0.792648 -0.445138
C54   C     C_3   0.129531 0.568844 0.855184 -0.230866
C55   C     C_3   0.191810 0.497128 0.828394 -0.324756
C56   C     C_R   0.018482 0.542911 0.982376 0.028997
C57   C     C_3   0.285824 0.526386 0.792332 -0.445522
C58   C     C_3   0.659908 0.715097 0.400155 -0.255014
C59   C     C_3   0.654175 0.642356 0.336879 -0.295496
C60   C     C_3   0.567182 0.648559 0.272737 -0.453070
C61   C     C_3   0.641890 0.301818 0.427014 -0.248322
C62   C     C_3   0.629525 0.382153 0.376079 -0.294215
C63   C     C_3   0.529177 0.389562 0.333494 -0.465121
C64   C     C_3   0.159935 0.215118 0.400123 -0.255018
C65   C     C_3   0.154209 0.142382 0.336840 -0.295497
C66   C     C_3   0.067238 0.148602 0.272673 -0.453067
C67   C     C_R   0.462255 0.980950 0.018229 0.029160
C68   C     C_3   0.141855 0.801856 0.427084 -0.248301
C69   C     C_3   0.129494 0.882194 0.376156 -0.294228
C70   C     C_3   0.029132 0.889626 0.333610 -0.465112
C71   C     C_R   0.962271 0.480942 0.018232 0.029170
C72   C     C_R   0.481061 0.958460 0.107595 -0.023347
H1    H     H_    0.309022 0.287368 0.575016 0.118517
H2    H     H_    0.138793 0.936719 0.107685 0.145716
H3    H     H_    0.064928 0.985454 0.022440 0.160936
H4    H     H_    0.232645 0.032987 0.016935 0.177361
H5    H     H_    0.194730 0.979830 0.917731 0.191783
H6    H     H_    0.279308 0.852797 0.979389 0.152140
H7    H     H_    0.306087 0.907533 0.078081 0.173762
H8    H     H_    0.602534 0.381866 0.007913 0.185064
H9    H     H_    0.638868 0.436600 0.107721 0.145711
H10   H     H_    0.564942 0.485215 0.022475 0.160949
H11   H     H_    0.732638 0.532841 0.016952 0.177361
H12   H     H_    0.320180 0.703188 0.556482 0.108330
H13   H     H_    0.694737 0.479665 0.917766 0.191824
H14   H     H_    0.779421 0.352677 0.979373 0.152103
H15   H     H_    0.806163 0.407397 0.078083 0.173724
H16   H     H_    0.634863 0.222717 0.040653 0.099737
H17   H     H_    0.134644 0.722828 0.040685 0.099741
H18   H     H_    0.285117 0.858303 0.830579 0.111341
H19   H     H_    0.785236 0.358201 0.830567 0.111354
H20   H     H_    0.772582 0.064701 0.732781 0.151694
H21   H     H_    0.827122 0.061439 0.844056 0.164906
H22   H     H_    0.829359 0.973148 0.773990 0.160755
H23   H     H_    0.809040 0.787383 0.574994 0.118492
H24   H     H_    0.707104 0.957620 0.887379 0.179153
H25   H     H_    0.655099 0.959538 0.776474 0.171172
H26   H     H_    0.617338 0.111230 0.798707 0.192738
H27   H     H_    0.673422 0.101682 0.905946 0.162143
H28   H     H_    0.272087 0.564661 0.732385 0.151774
H29   H     H_    0.326863 0.561908 0.843455 0.165033
H30   H     H_    0.329291 0.473438 0.773805 0.160739
H31   H     H_    0.207370 0.457948 0.887372 0.179220
H32   H     H_    0.155064 0.459587 0.776673 0.171313
H33   H     H_    0.117191 0.611352 0.798708 0.192860
H34   H     H_    0.820159 0.203207 0.556532 0.108330
H35   H     H_    0.173318 0.601849 0.905924 0.162137
H36   H     H_    0.500594 0.649148 0.309901 0.167440
H37   H     H_    0.570895 0.704598 0.232031 0.181053
H38   H     H_    0.565152 0.595541 0.227584 0.150657
H39   H     H_    0.718818 0.640384 0.296954 0.193210
H40   H     H_    0.647884 0.585335 0.375551 0.186181
H41   H     H_    0.592543 0.716522 0.436300 0.155673
H42   H     H_    0.662302 0.770853 0.358667 0.150946
H43   H     H_    0.514930 0.339309 0.285949 0.152164
H44   H     H_    0.475172 0.388107 0.385162 0.168100
H45   H     H_    0.467703 0.858320 0.208298 0.108127
H46   H     H_    0.522497 0.447904 0.296900 0.149641
H47   H     H_    0.641330 0.433835 0.422293 0.186900
H48   H     H_    0.680924 0.385284 0.322176 0.192148
H49   H     H_    0.629420 0.251774 0.378795 0.180279
H50   H     H_    0.584823 0.298738 0.475763 0.163851
H51   H     H_    0.000635 0.149206 0.309817 0.167435
H52   H     H_    0.070981 0.204639 0.231965 0.181106
H53   H     H_    0.065207 0.095582 0.227522 0.150660
H54   H     H_    0.218867 0.140403 0.296934 0.193211
H55   H     H_    0.147894 0.085359 0.375505 0.186180
H56   H     H_    0.967764 0.358312 0.208287 0.108069
H57   H     H_    0.092558 0.216548 0.436250 0.155657
H58   H     H_    0.162352 0.270877 0.358641 0.150960
H59   H     H_    0.014849 0.839377 0.286067 0.152182
H60   H     H_    0.975152 0.888178 0.385299 0.168104
H61   H     H_    0.022454 0.947970 0.297022 0.149651
H62   H     H_    0.141338 0.933872 0.422367 0.186902
H63   H     H_    0.180869 0.885314 0.322233 0.192162
H64   H     H_    0.129334 0.751816 0.378867 0.180292
H65   H     H_    0.084818 0.798792 0.475865 0.163856
H66   H     H_    0.571510 0.214951 0.185794 0.077682
H67   H     H_    0.071376 0.714988 0.185800 0.077688
H68   H     H_    0.102405 0.882069 0.007802 0.184997
O1    O     O_3   0.500000 0.000000 0.500000 -0.441896
O2    O     O_R   0.885830 0.337110 0.539910 -0.532033
O3    O     O_R   0.692160 0.095230 0.468550 -0.510814
O4    O     O_R   0.692160 0.904770 0.468550 -0.546809
O5    O     O_R   0.192160 0.595230 0.468550 -0.510802
O6    O     O_R   0.192160 0.404770 0.468550 -0.546818
O7    O     O_R   0.316720 0.904790 0.427870 -0.559661
O8    O     O_R   0.316720 0.095210 0.427870 -0.557338
O9    O     O_R   0.816720 0.404790 0.427870 -0.559669
O10   O     O_R   0.816720 0.595210 0.427870 -0.557333
O11   O     O_R   0.594900 0.000000 0.310900 -0.481689
O12   O     O_3   1.000000 0.500000 0.500000 -0.441888
O13   O     O_R   0.094900 0.500000 0.310900 -0.481696
O14   O     O_R   0.483090 0.932320 0.697550 -0.525833
O15   O     O_R   0.483090 0.067680 0.697550 -0.528066
O16   O     O_R   0.983090 0.432320 0.697550 -0.525801
O17   O     O_R   0.983090 0.567680 0.697550 -0.528108
O18   O     O_R   0.438930 1.000000 0.294000 -0.571298
O19   O     O_R   0.938930 0.500000 0.294000 -0.571292
O20   O     O_2   0.461559 0.817473 0.085019 -0.519501
O21   O     O_2   0.961786 0.317444 0.085001 -0.519455
O22   O     O_2   0.659956 0.139427 0.250756 -0.486487
O23   O     O_R   0.605310 0.837110 0.563680 -0.541764
O24   O     O_2   0.159823 0.639491 0.250797 -0.486500
O25   O     O_2   0.539392 0.213613 0.940262 -0.509424
O26   O     O_2   0.039208 0.713652 0.940274 -0.509456
O27   O     O_2   0.288052 0.947441 0.742534 -0.501227
O28   O     O_2   0.788062 0.447371 0.742558 -0.501213
O29   O     O_R   0.605310 0.162890 0.563680 -0.548001
O30   O     O_R   0.105310 0.337110 0.563680 -0.541747
O31   O     O_R   0.105310 0.662890 0.563680 -0.548025
O32   O     O_R   0.385830 0.162890 0.539910 -0.537152
O33   O     O_R   0.385830 0.837110 0.539910 -0.532032
O34   O     O_R   0.885830 0.662890 0.539910 -0.537161
Zn1   Zn    Zn3+2 0.493670 0.096680 0.574000 0.957601
Zn2   Zn    Zn3+2 0.493670 0.903320 0.574000 0.956224
Zn3   Zn    Zn3+2 0.993670 0.596680 0.574000 0.957569
Zn4   Zn    Zn3+2 0.993670 0.403320 0.574000 0.956252
Zn5   Zn    Zn3+2 0.617760 0.000000 0.438070 0.963804
Zn6   Zn    Zn3+2 0.117760 0.500000 0.438070 0.963822
Zn7   Zn    Zn3+2 0.394920 0.000000 0.413930 0.915198
Zn8   Zn    Zn3+2 0.894920 0.500000 0.413930 0.915209

loop_
_geom_bond_atom_site_label_1
_geom_bond_atom_site_label_2
_ccdc_geom_bond_type
C46   H8    S    
C21   C26   S    
C69   H62   S    
C33   C45   A    
C41   C42   S    
C1    C11   S    
C49   H18   S    
C44   H11   S    
C30   C71   A    
O10   Zn8   S    
C27   C33   A    
C57   H30   S    
C5    C47   S    
C42   H3    S    
C6    C48   S    
C54   H35   S    
O30   Zn4   S    
C65   H55   S    
C17   O7    A    
C9    C58   S    
C41   H5    S    
C47   O25   D    
C34   O5    A    
C20   C25   S    
C11   H23   S    
C55   H31   S    
C52   H25   S    
O1    Zn1   S    
O5    Zn6   S    
C61   H49   S    
C67   C72   A    
O12   Zn3   S    
C20   O11   A    
C60   H37   S    
C46   H10   S    
O16   Zn4   S    
C7    C14   D    
C3    C38   S    
C17   O33   A    
C68   C69   S    
C45   C67   A    
O1    Zn2   S    
C59   H39   S    
C4    C39   S    
C47   H16   S    
O3    Zn5   S    
C15   C34   S    
C62   H48   S    
C60   H36   S    
O32   Zn1   S    
C37   H56   S    
C63   H43   S    
O7    Zn7   S    
C51   H26   S    
C53   H22   S    
O13   Zn6   S    
C59   C60   S    
C69   H63   S    
C20   O18   A    
C35   C54   S    
C21   O19   A    
C68   H65   S    
C61   C62   S    
C31   C49   S    
O23   Zn2   S    
C44   C46   S    
C22   O15   A    
C51   H27   S    
C23   O6    A    
C39   H67   S    
C42   H2    S    
C27   C31   A    
C51   C52   S    
C14   H1    S    
C68   H64   S    
C28   C35   A    
C4    C6    A    
C63   H46   S    
C24   O17   A    
O8    Zn7   S    
O1    Zn7   S    
C58   C59   S    
C57   H28   S    
C42   H68   S    
C55   H32   S    
C61   H50   S    
C14   C23   S    
O12   Zn6   S    
C43   C44   S    
C62   C63   S    
C58   H41   S    
C46   H9    S    
C16   O32   A    
O11   Zn5   S    
O4    Zn5   S    
C28   C32   A    
C10   C19   S    
C56   C71   A    
C53   H20   S    
C70   H60   S    
C59   H40   S    
C38   H66   S    
C40   H7    S    
O6    Zn6   S    
C2    C26   A    
C25   C72   A    
O17   Zn3   S    
C64   H57   S    
C44   H13   S    
C36   H45   S    
C9    C11   D    
O34   Zn3   S    
C32   C50   S    
C62   H47   S    
C15   H12   S    
C63   H44   S    
C18   O34   A    
C7    C16   S    
C64   H58   S    
C8    C68   S    
C8    C15   D    
C48   H17   S    
C55   C57   S    
C50   O28   D    
O9    Zn8   S    
C40   H6    S    
C30   C43   S    
C10   C61   S    
C33   C51   S    
O12   Zn8   S    
C2    C71   A    
C52   C53   S    
C37   O21   D    
C22   O14   A    
O33   Zn2   S    
O15   Zn1   S    
C54   C55   S    
C40   C41   S    
C19   O2    A    
C54   H33   S    
C35   C56   A    
O1    Zn5   S    
C43   H14   S    
C24   C28   S    
C6    C56   A    
C13   H34   S    
C3    C5    A    
C10   C13   D    
C4    C26   A    
C66   H53   S    
C49   O27   D    
C12   O29   A    
O29   Zn1   S    
C57   H29   S    
C8    C17   S    
C12   O3    A    
O14   Zn2   S    
C22   C27   S    
C43   H15   S    
C65   H54   S    
C29   C31   A    
C1    O4    A    
C29   C67   A    
C64   C65   S    
C41   H4    S    
C30   C32   A    
C2    C37   S    
C16   O8    A    
O2    Zn4   S    
C23   O30   A    
C5    C45   A    
C70   H61   S    
C29   C40   S    
C70   H59   S    
C19   O9    A    
C52   H24   S    
C66   H52   S    
O19   Zn8   S    
O12   Zn4   S    
C69   C70   S    
O18   Zn7   S    
C7    C64   S    
C60   H38   S    
C36   O20   D    
C36   C72   S    
C9    C18   S    
C38   O22   D    
C3    C25   A    
C48   O26   D    
C12   C13   S    
C1    O23   A    
C65   C66   S    
C58   H42   S    
C21   O13   A    
C66   H51   S    
O31   Zn3   S    
C39   O24   D    
C18   O10   A    
C50   H19   S    
C53   H21   S    
C34   O31   A    
C24   O16   A    
