data_mof_unit_3691.cif
_audit_creation_date              2012-12-10T18:54:20-0500
_audit_creation_method            fapswitch 2.2
_symmetry_space_group_name_H-M    P1
_symmetry_Int_Tables_number       1
_space_group_crystal_system       triclinic
_cell_length_a                    10.84667
_cell_length_b                    9.797536
_cell_length_c                    23.473069
_cell_angle_alpha                 89.998982
_cell_angle_beta                  89.667918
_cell_angle_gamma                 90.000375
_cell_volume                      2494.45616198

loop_
_atom_site_label
_atom_site_type_symbol
_atom_type_description
_atom_site_fract_x
_atom_site_fract_y
_atom_site_fract_z
_atom_type_partial_charge
C1    C     C_R   0.259724 0.500044 0.499742 0.962927
C2    C     C_R   0.740276 0.500045 0.500262 0.962937
C3    C     C_R   0.530885 0.393287 0.235193 0.353024
C4    C     C_R   0.469132 0.393271 0.764808 0.353033
C5    C     C_R   0.540414 0.388562 0.294742 0.373692
C6    C     C_R   0.459605 0.388545 0.705259 0.373721
C7    C     C_R   0.502714 0.502740 0.326933 -0.291527
C8    C     C_R   0.497283 0.502734 0.673067 -0.291542
C9    C     C_R   0.468946 0.624070 0.299353 -0.306295
C10   C     C_R   0.531024 0.624072 0.700647 -0.306302
C11   C     C_R   0.470357 0.633476 0.240435 0.470616
C12   C     C_R   0.529606 0.633477 0.759565 0.470624
C13   C     C_R   0.500374 0.516448 0.208225 0.025722
C14   C     C_R   0.499614 0.516439 0.791775 0.025693
C15   C     C_R   0.063095 0.375526 0.496225 0.320867
C16   C     C_R   0.936815 0.624834 0.496832 0.322481
C17   C     C_R   0.936902 0.375527 0.503789 0.320877
C18   C     C_R   0.063187 0.624832 0.503184 0.322470
C19   C     C_R   0.872652 0.500198 0.500392 -0.412872
C20   C     C_R   0.127347 0.500197 0.499619 -0.412878
C21   C     C_R   0.461521 0.071897 0.546881 -0.106361
C22   C     C_R   0.537179 0.927894 0.452881 -0.060511
C23   C     C_R   0.538478 0.071901 0.453119 -0.106360
C24   C     C_R   0.462819 0.927890 0.547119 -0.060474
C25   C     C_R   0.501214 0.500172 0.389214 0.944611
C26   C     C_R   0.498786 0.500170 0.610786 0.944614
C27   C     C_R   0.610921 0.519236 0.880051 0.535910
C28   C     C_R   0.389065 0.519171 0.119950 0.535928
C29   C     C_R   0.390550 0.523393 0.880913 0.606580
C30   C     C_R   0.609434 0.523477 0.119088 0.606561
C31   C     C_R   0.388300 0.523098 0.940310 -0.058036
C32   C     C_R   0.611685 0.523182 0.059692 -0.058029
C33   C     C_R   0.500699 0.522313 0.970040 -0.098961
C34   C     C_R   0.499286 0.522315 0.029961 -0.098958
C35   C     C_R   0.614253 0.521292 0.939886 -0.066130
C36   C     C_R   0.385732 0.521216 0.060115 -0.066127
C37   C     C_R   0.276120 0.523209 0.970159 -0.269373
C38   C     C_R   0.723864 0.523372 0.029843 -0.269374
C39   C     C_R   0.273322 0.521815 0.029849 0.484025
C40   C     C_R   0.726663 0.521977 0.970152 0.484026
H1    H     H_    0.189863 0.523804 0.947101 0.196434
H2    H     H_    0.810121 0.524031 0.052900 0.196434
H3    H     H_    0.442235 0.713480 0.323657 0.213004
H4    H     H_    0.557717 0.713491 0.676343 0.213009
H5    H     H_    0.430426 0.126119 0.584263 0.190099
H6    H     H_    0.567552 0.873386 0.415290 0.136014
H7    H     H_    0.569573 0.126128 0.415737 0.190111
H8    H     H_    0.432447 0.873379 0.584710 0.136004
N1    N     N_R   0.500465 0.520737 0.852456 -0.348166
N2    N     N_R   0.499520 0.520747 0.147545 -0.348160
N3    N     N_R   0.500000 0.857200 0.500000 -0.067527
N4    N     N_R   0.500000 0.142800 0.500000 -0.086992
O1    O     O_R   0.316770 0.614620 0.500000 -0.579347
O2    O     O_R   0.683230 0.385380 0.500000 -0.584057
O3    O     O_R   0.683230 0.614620 0.500000 -0.579348
O4    O     O_R   0.316770 0.385380 0.500000 -0.584072
O5    O     O_R   0.499970 0.614690 0.416160 -0.652840
O6    O     O_R   0.500030 0.385310 0.583840 -0.583045
O7    O     O_R   0.500030 0.614690 0.583840 -0.652842
O8    O     O_R   0.499970 0.385310 0.416160 -0.583045
O9    O     O_2   0.716313 0.515467 0.849261 -0.476836
O10   O     O_2   0.283675 0.515339 0.150741 -0.476860
O11   O     O_2   0.283918 0.526149 0.851522 -0.537417
O12   O     O_2   0.716064 0.526305 0.148479 -0.537425
Zn1   Zn    Zn3+2 0.500000 0.653120 0.500000 0.967172
Zn2   Zn    Zn3+2 0.500000 0.346880 0.500000 0.979760
O13   O     O_3   0.162020 0.521446 0.058877 -0.689580
H9    H     H_    0.093286 0.521998 0.031229 0.318462
O14   O     O_3   0.837965 0.521693 0.941124 -0.689581
H10   H     H_    0.906698 0.522312 0.968772 0.318461
O15   O     O_3   0.559936 0.280110 0.202587 -0.595334
C41   C     C_3   0.455059 0.195256 0.199541 0.109386
H11   H     H_    0.372673 0.252740 0.184547 0.162257
H12   H     H_    0.434506 0.148994 0.241870 0.180113
C42   C     C_3   0.480181 0.080917 0.157259 -0.744074
H13   H     H_    0.559914 0.018895 0.171594 0.269762
H14   H     H_    0.397835 0.014104 0.154012 0.228749
H15   H     H_    0.500979 0.124424 0.114568 0.249250
O16   O     O_3   0.440109 0.280082 0.797414 -0.595327
C43   C     C_3   0.545014 0.195273 0.800468 0.109372
H16   H     H_    0.627373 0.252790 0.815470 0.162239
H17   H     H_    0.565600 0.149029 0.758139 0.180101
C44   C     C_3   0.519912 0.080914 0.842744 -0.744066
H18   H     H_    0.440194 0.018875 0.828405 0.269780
H19   H     H_    0.602271 0.014123 0.845991 0.228753
H20   H     H_    0.499097 0.124403 0.885436 0.249239
O17   O     O_3   0.580682 0.270683 0.321450 -0.617589
C45   C     C_3   0.709353 0.253947 0.312951 0.143289
H21   H     H_    0.743957 0.293647 0.271318 0.187961
H22   H     H_    0.729732 0.142873 0.313192 0.159773
C46   C     C_3   0.781575 0.320251 0.361111 -0.886602
H23   H     H_    0.758406 0.270297 0.402194 0.291722
H24   H     H_    0.881786 0.308468 0.352837 0.204420
H25   H     H_    0.760300 0.430873 0.363844 0.235615
O18   O     O_3   0.419366 0.270655 0.678552 -0.617580
C47   C     C_3   0.290700 0.253876 0.687052 0.143279
H26   H     H_    0.256097 0.293519 0.728693 0.187991
H27   H     H_    0.270345 0.142796 0.686792 0.159762
C48   C     C_3   0.218453 0.320211 0.638907 -0.886642
H28   H     H_    0.241632 0.270317 0.597813 0.291735
H29   H     H_    0.118248 0.308379 0.647180 0.204439
H30   H     H_    0.239694 0.430844 0.636196 0.235613
O19   O     O_3   0.441502 0.757976 0.216339 -0.753021
H31   H     H_    0.456613 0.754670 0.174771 0.335045
O20   O     O_3   0.558427 0.757985 0.783660 -0.753013
H32   H     H_    0.543291 0.754681 0.825226 0.335043
O21   O     O_3   0.122814 0.252121 0.488060 -0.574349
C49   C     C_3   0.122291 0.222825 0.429085 0.133422
H33   H     H_    0.161598 0.308904 0.403696 0.128671
H34   H     H_    0.026912 0.201931 0.414419 0.150524
C50   C     C_3   0.200503 0.097108 0.417381 -0.788776
H35   H     H_    0.166068 0.008582 0.442239 0.276203
H36   H     H_    0.197336 0.071525 0.371332 0.206133
H37   H     H_    0.297217 0.117934 0.429273 0.269941
O22   O     O_3   0.877163 0.749264 0.492185 -0.566102
C51   C     C_3   0.880794 0.792087 0.434612 0.156240
H38   H     H_    0.802920 0.745002 0.411076 0.136351
H39   H     H_    0.968793 0.765269 0.412348 0.142263
C52   C     C_3   0.867957 0.946427 0.432318 -0.805075
H40   H     H_    0.946449 0.994390 0.454598 0.283389
H41   H     H_    0.866771 0.981708 0.387373 0.194670
H42   H     H_    0.781986 0.979076 0.453843 0.266475
O23   O     O_3   0.877180 0.252125 0.511959 -0.574349
C53   C     C_3   0.877704 0.222835 0.570935 0.133417
H43   H     H_    0.838413 0.308924 0.596322 0.128663
H44   H     H_    0.973082 0.201928 0.585599 0.150532
C54   C     C_3   0.799474 0.097133 0.582646 -0.788777
H45   H     H_    0.833897 0.008597 0.557792 0.276190
H46   H     H_    0.802640 0.071558 0.628696 0.206137
H47   H     H_    0.702762 0.117974 0.570754 0.269948
O24   O     O_3   0.122841 0.749260 0.507837 -0.566114
C55   C     C_3   0.119227 0.792049 0.565414 0.156260
H48   H     H_    0.197118 0.744966 0.588940 0.136354
H49   H     H_    0.031241 0.765201 0.587684 0.142246
C56   C     C_3   0.132042 0.946390 0.567721 -0.805092
H50   H     H_    0.053531 0.994351 0.545454 0.283369
H51   H     H_    0.133243 0.981645 0.612669 0.194672
H52   H     H_    0.217999 0.979070 0.546190 0.266470

loop_
_geom_bond_atom_site_label_1
_geom_bond_atom_site_label_2
_ccdc_geom_bond_type
C56   H52   S    
C38   C40   A    
O17   C45   S    
C29   O11   S    
C30   O12   S    
C8    C26   S    
C45   H22   S    
O18   C47   S    
O23   C53   S    
C29   N1    A    
C49   H33   S    
C44   H18   S    
C1    O4    A    
C38   H2    S    
C2    O3    A    
C55   C56   S    
C12   O20   S    
C14   N1    S    
O22   C51   S    
C47   C48   S    
C13   N2    S    
C51   H38   S    
C56   H51   S    
N3    Zn1   S    
C15   O21   S    
C1    O1    A    
C27   O9    S    
C17   C19   A    
C28   N2    A    
C17   O23   S    
C50   H35   S    
C51   H39   S    
C55   H48   S    
C47   H27   S    
O21   C49   S    
C31   C33   A    
C25   O8    A    
C32   C38   A    
O1    Zn1   S    
C26   O7    A    
C18   C20   A    
C3    C13   A    
C24   N3    A    
C30   N2    A    
O8    Zn2   S    
C4    C14   A    
C18   O24   S    
C25   O5    A    
C41   C42   S    
O3    Zn1   S    
O6    Zn2   S    
C21   H5    S    
C52   H41   S    
C15   C20   A    
C9    H3    S    
C23   H7    S    
C40   O14   S    
C10   H4    S    
O13   H9    S    
C24   H8    S    
C56   H50   S    
C4    O16   S    
C41   H12   S    
C2    O2    A    
C26   O6    A    
C46   H23   S    
C5    C7    A    
C43   H16   S    
C6    C8    A    
C27   C35   A    
C31   C37   A    
C32   C34   A    
C3    O15   S    
C42   H13   S    
C54   H46   S    
C46   H24   S    
C9    C11   A    
C48   H28   S    
C45   C46   S    
C29   C31   A    
C47   H26   S    
C44   H20   S    
C33   C34   A    
C50   H36   S    
C16   C18   A    
C42   H14   S    
C10   C12   A    
C55   H49   S    
C4    C6    A    
C22   H6    S    
C12   C14   A    
C53   C54   S    
C54   H45   S    
C16   O22   S    
N4    Zn2   S    
C27   N1    A    
C53   H44   S    
C52   H42   S    
C15   C17   A    
C1    C20   S    
C44   H19   S    
C2    C19   S    
C39   O13   S    
C36   C39   A    
O5    Zn1   S    
C41   H11   S    
C3    C5    A    
C52   H40   S    
C49   C50   S    
O2    Zn2   S    
O20   H32   S    
C7    C25   S    
C51   C52   S    
C35   C40   A    
C54   H47   S    
O15   C41   S    
C37   C39   A    
O7    Zn1   S    
C46   H25   S    
C30   C32   A    
C11   C13   A    
C23   N4    A    
C16   C19   A    
O4    Zn2   S    
C43   C44   S    
C33   C35   A    
C43   H17   S    
C49   H34   S    
C50   H37   S    
C34   C36   A    
C37   H1    S    
O14   H10   S    
C42   H15   S    
O16   C43   S    
C5    O17   S    
C7    C9    A    
C48   H30   S    
C45   H21   S    
C28   C36   A    
C8    C10   A    
C6    O18   S    
C21   C24   A    
O19   H31   S    
C22   C23   A    
C22   N3    A    
C11   O19   S    
C48   H29   S    
C21   N4    A    
O24   C55   S    
C53   H43   S    
C28   O10   S    
