data_mof_unit_1931.cif
_audit_creation_date              2012-12-10T18:34:24-0500
_audit_creation_method            fapswitch 2.2
_symmetry_space_group_name_H-M    P1
_symmetry_Int_Tables_number       1
_space_group_crystal_system       triclinic
_cell_length_a                    15.033435
_cell_length_b                    15.30542
_cell_length_c                    15.710639
_cell_angle_alpha                 91.268787
_cell_angle_beta                  103.845175
_cell_angle_gamma                 81.438798
_cell_volume                      3470.42946021

loop_
_atom_site_label
_atom_site_type_symbol
_atom_type_description
_atom_site_fract_x
_atom_site_fract_y
_atom_site_fract_z
_atom_type_partial_charge
C1    C     C_R   0.441821 0.662885 0.487107 0.840815
C2    C     C_R   0.524478 0.113940 0.556810 0.052972
C3    C     C_R   0.339588 0.939146 0.447426 0.031944
C4    C     C_R   0.584381 0.096674 0.641055 0.083467
C5    C     C_R   0.462697 0.977855 0.567283 0.078737
C6    C     C_R   0.454293 0.060731 0.526733 0.074058
C7    C     C_R   0.374730 0.088150 0.459624 -0.163848
C8    C     C_R   0.518655 0.964179 0.653215 -0.186637
C9    C     C_R   0.315567 0.028449 0.423093 -0.216621
C10   C     C_R   0.578095 0.023720 0.690052 -0.208931
C11   C     C_R   0.845834 0.617019 0.652973 -0.318360
C12   C     C_R   0.558139 0.337774 0.514969 0.881127
C13   C     C_R   0.172431 0.339029 0.393155 -0.320196
C14   C     C_R   0.754603 0.603897 0.620254 -0.028194
C15   C     C_R   0.254640 0.373382 0.403210 -0.018354
C16   C     C_R   0.500814 0.500356 0.661786 0.905998
C17   C     C_R   0.499130 0.499818 0.338195 0.874908
C18   C     C_R   0.796781 0.510032 0.509050 0.292000
C19   C     C_R   0.203130 0.490375 0.490510 0.276196
C20   C     C_R   0.892080 0.513910 0.545180 -0.024018
C21   C     C_R   0.121641 0.453571 0.489149 -0.021262
C22   C     C_R   0.914914 0.572480 0.615481 0.143321
C23   C     C_R   0.292477 0.876992 0.396578 -0.208934
C24   C     C_R   0.105538 0.378951 0.435805 0.141746
C25   C     C_R   0.965082 0.463877 0.513198 0.072083
C26   C     C_R   0.054692 0.489146 0.536431 0.072670
C27   C     C_R   0.075563 0.544151 0.609699 -0.194001
C28   C     C_R   0.953870 0.386143 0.464090 -0.186512
C29   C     C_R   0.006815 0.584399 0.648989 -0.215491
C30   C     C_R   0.023324 0.344120 0.426652 -0.212452
C31   C     C_3   0.435648 0.569644 0.013991 -0.251269
C32   C     C_3   0.563040 0.433549 0.985768 -0.201968
C33   C     C_3   0.522633 0.579647 0.979655 -0.257153
C34   C     C_R   0.648687 0.153274 0.675738 -0.332108
C35   C     C_3   0.476021 0.423544 0.019983 -0.209180
C36   C     C_1   0.502621 0.501141 0.751163 -0.177494
C37   C     C_1   0.496952 0.500099 0.248738 -0.181876
C38   C     C_3   0.417432 0.492237 0.951281 0.289911
C39   C     C_3   0.581214 0.511038 0.048388 0.290433
C40   C     C_3   0.502402 0.501934 0.917405 0.103675
C41   C     C_3   0.496312 0.501193 0.082308 0.103576
C42   C     C_1   0.503220 0.501675 0.826651 -0.059031
C43   C     C_1   0.495940 0.500586 0.173168 -0.059600
C44   C     C_R   0.405060 0.757846 0.475786 -0.235145
C45   C     C_R   0.326186 0.787340 0.407333 0.404024
C46   C     C_R   0.590758 0.246793 0.545794 -0.162135
C47   C     C_3   0.164681 0.647947 0.467889 -0.721186
C48   C     C_3   0.760690 0.517317 0.350657 -0.768746
C49   C     C_3   0.743574 0.523880 0.061308 -0.796707
C50   C     C_3   0.257634 0.470005 0.938866 -0.789634
C51   C     C_3   0.549669 0.114626 0.366299 -0.785749
C52   C     C_3   0.619591 0.804393 0.560343 -0.721406
C53   C     C_R   0.649585 0.230876 0.630111 0.425295
C54   C     C_R   0.451159 0.820501 0.530640 0.093101
C55   C     C_R   0.538647 0.182175 0.504865 0.083493
C56   C     C_R   0.416173 0.911839 0.518508 0.046173
H1    H     H_    0.543531 0.642182 0.962208 0.147478
H2    H     H_    0.615768 0.379245 0.972974 0.144686
H3    H     H_    0.255809 0.050669 0.370325 0.142510
H4    H     H_    0.621233 0.011134 0.755759 0.145605
H5    H     H_    0.233898 0.898445 0.342344 0.168250
H6    H     H_    0.693870 0.140053 0.740514 0.141566
H7    H     H_    0.356931 0.155814 0.435921 0.170407
H8    H     H_    0.516039 0.908249 0.692915 0.166514
H9    H     H_    0.025553 0.626201 0.705087 0.144642
H10   H     H_    0.011931 0.284819 0.389103 0.145393
H11   H     H_    0.279589 0.583397 0.559396 0.269159
H12   H     H_    0.455555 0.360851 0.037586 0.143966
H13   H     H_    0.180361 0.711589 0.498836 0.237652
H14   H     H_    0.088815 0.647558 0.455037 0.234249
H15   H     H_    0.185484 0.642392 0.404642 0.289780
H16   H     H_    0.717497 0.427110 0.426437 0.266116
H17   H     H_    0.739921 0.476447 0.292032 0.248314
H18   H     H_    0.828624 0.537507 0.350460 0.240912
H19   H     H_    0.708230 0.577338 0.346844 0.252802
H20   H     H_    0.665043 0.572874 0.148783 0.224098
H21   H     H_    0.809257 0.528357 0.110694 0.242950
H22   H     H_    0.727548 0.582200 0.016410 0.235927
H23   H     H_    0.308645 0.340336 0.374055 0.144391
H24   H     H_    0.753394 0.462483 0.023517 0.249262
H25   H     H_    0.306320 0.530216 0.845441 0.220350
H26   H     H_    0.193753 0.458873 0.889869 0.243140
H27   H     H_    0.241349 0.529573 0.977257 0.235307
H28   H     H_    0.280756 0.411327 0.983301 0.248058
H29   H     H_    0.497516 0.244811 0.381235 0.221740
H30   H     H_    0.515700 0.118743 0.295198 0.236195
H31   H     H_    0.544665 0.048583 0.391064 0.255793
H32   H     H_    0.623809 0.121797 0.375122 0.235887
H33   H     H_    0.543702 0.737086 0.627853 0.225286
H34   H     H_    0.701695 0.633442 0.652443 0.148465
H35   H     H_    0.629516 0.756566 0.508165 0.256111
H36   H     H_    0.681593 0.794027 0.616018 0.218233
H37   H     H_    0.613757 0.872129 0.533715 0.240938
H38   H     H_    0.738614 0.272978 0.727806 0.326386
H39   H     H_    0.331770 0.682468 0.335767 0.340676
H40   H     H_    0.862577 0.659803 0.708607 0.149051
H41   H     H_    0.162072 0.280611 0.353918 0.147341
H42   H     H_    0.145663 0.553145 0.640986 0.169111
H43   H     H_    0.893915 0.353456 0.457894 0.171684
H44   H     H_    0.382579 0.623694 0.026622 0.152714
N1    N     N_R   0.731710 0.552730 0.549140 -0.117937
N2    N     N_R   0.268290 0.447270 0.450860 -0.118181
N3    N     N_2   0.214029 0.575318 0.525765 -0.340940
N4    N     N_2   0.767947 0.466162 0.428996 -0.325551
N5    N     N_2   0.669848 0.521869 0.105376 -0.312853
N6    N     N_2   0.328503 0.482429 0.894207 -0.301754
N7    N     N_2   0.504194 0.184394 0.411595 -0.314129
N8    N     N_2   0.538062 0.793289 0.590856 -0.312605
O1    O     O_R   0.383110 0.605620 0.475230 -0.609696
O2    O     O_3   0.284690 0.732147 0.344450 -0.778021
O3    O     O_R   0.616890 0.394380 0.524770 -0.569721
O4    O     O_R   0.531900 0.639510 0.506760 -0.608313
O5    O     O_R   0.468100 0.360490 0.493240 -0.627797
O6    O     O_R   0.425620 0.483070 0.607460 -0.631096
O7    O     O_R   0.574380 0.516930 0.392540 -0.623036
O8    O     O_R   0.574400 0.516960 0.638990 -0.598947
O9    O     O_R   0.425600 0.483040 0.361010 -0.613198
O10   O     O_3   0.702888 0.293926 0.668436 -0.748133
Zn1   Zn    Zn3+2 0.400660 0.477370 0.478940 0.934154
Zn2   Zn    Zn3+2 0.599340 0.522630 0.521060 0.951132

loop_
_geom_bond_atom_site_label_1
_geom_bond_atom_site_label_2
_ccdc_geom_bond_type
C11   H40   S    
C21   C26   A    
C27   H42   S    
C37   C43   T    
H20   N5    S    
C23   C45   A    
C22   C29   A    
C27   C29   A    
C5    C56   A    
C36   C42   T    
O1    Zn1   S    
C32   H2    S    
H11   N3    S    
C39   C41   S    
C25   C28   A    
C17   O7    A    
C26   C27   A    
C33   C39   S    
C19   C21   A    
C2    C55   A    
O9    Zn1   S    
C1    O4    A    
C5    C6    A    
C19   N2    A    
C20   C25   A    
C48   N4    S    
C34   H6    S    
C49   H22   S    
H33   N8    S    
C7    C9    A    
C32   C39   S    
C3    C23   A    
C47   H13   S    
C1    O1    A    
O5    Zn1   S    
C19   N3    S    
C15   H23   S    
C46   C55   A    
C31   C33   S    
O6    Zn1   S    
C17   O9    A    
C40   C42   S    
C41   C43   S    
C48   H19   S    
C2    C6    A    
C16   O8    A    
C51   H30   S    
C50   H27   S    
C4    C34   A    
C54   C56   A    
C33   C40   S    
C47   N3    S    
C50   H28   S    
C32   C35   S    
C48   H18   S    
C35   C38   S    
C12   C46   S    
C51   H31   S    
O4    Zn2   S    
C53   O10   S    
C14   N1    A    
C49   N5    S    
H16   N4    S    
C25   C26   A    
O8    Zn2   S    
C13   C24   A    
C55   N7    S    
O3    Zn2   S    
C9    H3    S    
C18   N1    A    
C38   N6    S    
C10   H4    S    
C47   H14   S    
C3    C9    A    
C3    C56   A    
C1    C44   S    
C47   H15   S    
C52   H37   S    
C18   N4    S    
C31   H44   S    
C7    H7    S    
C30   H10   S    
C8    H8    S    
C29   H9    S    
C28   H43   S    
C51   N7    S    
C14   H34   S    
C20   C22   A    
C13   C15   A    
C52   H36   S    
C17   C37   S    
C4    C10   A    
C44   C45   A    
C50   H26   S    
C12   O5    A    
C39   N5    S    
H25   N6    S    
C33   H1    S    
C31   C41   S    
C45   O2    S    
N1    Zn2   S    
C48   H17   S    
H39   O2    S    
C16   O6    A    
C51   H32   S    
C5    C8    A    
C49   H24   S    
C6    C7    A    
C11   C22   A    
C31   C38   S    
C54   N8    S    
C28   C30   A    
C16   C36   S    
C38   C40   S    
H38   O10   S    
C35   H12   S    
C2    C4    A    
C46   C53   A    
C11   C14   A    
C49   H21   S    
C18   C20   A    
C32   C40   S    
C15   N2    A    
C13   H41   S    
C35   C41   S    
C24   C30   A    
C44   C54   A    
C23   H5    S    
C52   N8    S    
C34   C53   A    
C8    C10   A    
O7    Zn2   S    
C21   C24   A    
C50   N6    S    
C52   H35   S    
H29   N7    S    
C12   O3    A    
N2    Zn1   S    
