data_mof_unit_460.cif
_audit_creation_date              2013-03-05T15:46:12-0500
_audit_creation_method            fapswitch 2.2
_symmetry_space_group_name_H-M    P1
_symmetry_Int_Tables_number       1
_space_group_crystal_system       triclinic
_cell_length_a                    10.520636
_cell_length_b                    10.655534
_cell_length_c                    17.119994
_cell_angle_alpha                 80.422711
_cell_angle_beta                  90.07503
_cell_angle_gamma                 119.041128
_cell_volume                      1647.47510154

loop_
_atom_site_label
_atom_site_type_symbol
_atom_site_description
_atom_site_fract_x
_atom_site_fract_y
_atom_site_fract_z
_atom_type_partial_charge
O1    O     O_R   0.521780 0.757110 0.108900 -0.468433
O2    O     O_R   0.275160 0.783810 0.101120 -0.489100
C1    C     C_R   0.223273 0.854846 0.128867 0.551195
O3    O     O_R   0.237900 0.972600 0.090980 -0.466496
O4    O     O_R   0.511190 0.220540 0.061620 -0.440601
C2    C     C_R   0.639070 0.284996 0.084340 0.561583
O5    O     O_R   0.736920 0.257720 0.063840 -0.525981
O6    O     O_R   0.710450 0.984050 0.081720 -0.490095
C3    C     C_R   0.640876 0.858378 0.125298 0.551791
O7    O     O_R   0.524090 0.765520 0.933110 -0.511163
O8    O     O_R   0.277300 0.791600 0.938160 -0.500004
C4    C     C_R   0.291288 0.905373 0.888713 0.541867
O9    O     O_R   0.240210 0.981010 0.915190 -0.468877
O10   O     O_R   0.513330 0.228330 0.898660 -0.504517
C5    C     C_R   0.637469 0.285339 0.861023 0.545358
O11   O     O_R   0.739230 0.266130 0.888050 -0.459338
O12   O     O_R   0.712580 0.991850 0.918770 -0.449341
C6    C     C_R   0.648653 0.865475 0.900196 0.544576
Cr1   Cr    Cr6+3 0.402240 0.783890 0.019450 1.098230
Cr2   Cr    Cr6+3 0.382360 0.097900 0.991800 1.142710
Cr3   Cr    Cr6+3 0.715380 0.118170 0.988700 1.113291
O13   O     O_3   0.499990 0.999980 0.999980 -0.323099
C7    C     C_R   0.559533 0.382306 0.186618 0.178254
C8    C     C_R   0.579251 0.418683 0.262487 -0.060287
C9    C     C_R   0.708349 0.439460 0.299444 -0.056892
C10   C     C_R   0.823678 0.444433 0.253996 -0.063247
C11   C     C_R   0.804606 0.415697 0.178081 -0.168494
H1    H     H_    0.892917 0.414963 0.145789 0.169283
C12   C     C_R   0.669131 0.369987 0.147501 -0.008420
C13   C     C_1   0.669180 0.848672 0.205410 -0.019978
C14   C     C_1   0.679922 0.838634 0.274889 -0.021102
C15   C     C_1   0.182036 0.827090 0.211385 -0.011428
C16   C     C_1   0.152692 0.820789 0.279981 -0.003360
C17   C     C_1   0.644931 0.325196 0.778240 -0.003096
C18   C     C_1   0.652788 0.346969 0.707665 -0.016310
C19   C     C_R   0.616385 0.708714 0.803163 -0.075353
C20   C     C_R   0.600831 0.700860 0.724306 -0.160154
H2    H     H_    0.536700 0.593577 0.709130 0.171267
C21   C     C_R   0.671398 0.826712 0.665265 -0.041063
C22   C     C_R   0.765966 0.963218 0.685789 -0.052719
C23   C     C_R   0.783422 0.972079 0.766224 0.166513
C24   C     C_R   0.696098 0.846538 0.825018 -0.004926
C25   C     C_R   0.270093 0.000642 0.748402 -0.046084
C26   C     C_R   0.236609 0.976073 0.672567 -0.136568
H3    H     H_    0.232828 0.062279 0.630570 0.159374
C27   C     C_R   0.191812 0.838290 0.653196 -0.006373
C28   C     C_R   0.211047 0.734012 0.706156 -0.042326
C29   C     C_R   0.252047 0.761009 0.781843 -0.138565
H4    H     H_    0.262440 0.678459 0.823348 0.163728
C30   C     C_R   0.270467 0.889076 0.805540 -0.012334
O14   O     O_R   0.083770 0.911170 0.376030 -0.483565
O15   O     O_R   0.808770 0.880340 0.383890 -0.488622
C31   C     C_R   0.686292 0.809603 0.357224 0.541770
O16   O     O_R   0.584340 0.689460 0.394160 -0.502759
O17   O     O_R   0.614320 0.443940 0.423590 -0.496430
C32   C     C_R   0.726521 0.459119 0.382898 0.544313
O18   O     O_R   0.805020 0.410040 0.421340 -0.481544
O19   O     O_R   0.049240 0.685450 0.403290 -0.508119
C33   C     C_R   0.104377 0.810419 0.359336 0.542703
O20   O     O_R   0.077520 0.903010 0.551800 -0.516502
O21   O     O_R   0.802980 0.872780 0.546830 -0.490495
C34   C     C_R   0.677766 0.801341 0.585261 0.545502
O22   O     O_R   0.578090 0.681300 0.569920 -0.508183
O23   O     O_R   0.608530 0.436370 0.586530 -0.503710
C35   C     C_R   0.679183 0.382846 0.624619 0.553657
O24   O     O_R   0.798770 0.401880 0.597100 -0.461752
O25   O     O_R   0.043450 0.677890 0.566230 -0.485999
C36   C     C_R   0.105680 0.805247 0.584350 0.543113
Cr4   Cr    Cr6+3 0.936650 0.882420 0.465510 1.073818
Cr5   Cr    Cr6+3 0.605770 0.565620 0.493360 1.061448
Cr6   Cr    Cr6+3 0.921340 0.550490 0.496380 1.097504
O26   O     O_3   0.821250 0.666180 0.485090 -0.300158
N1    N     N_R   0.427794 0.355879 0.150198 0.087298
O27   O     O_R   0.300943 0.255733 0.185865 -0.311147
O28   O     O_R   0.434678 0.434263 0.081751 -0.299903
C37   C     C_1   0.188199 0.599234 0.685269 0.252524
N2    N     N_1   0.170821 0.491574 0.668405 -0.190259
C38   C     C_1   0.463266 0.430039 0.300619 0.310436
N3    N     N_1   0.369439 0.438046 0.330451 -0.202301
C39   C     C_1   0.959987 0.466201 0.284389 0.244025
N4    N     N_1   0.068751 0.481763 0.308206 -0.227894
C40   C     C_1   0.539799 0.573748 0.860606 0.234726
N5    N     N_1   0.476866 0.466662 0.906929 -0.181678
C41   C     C_1   0.848624 0.092569 0.624896 0.287751
N6    N     N_1   0.914924 0.195537 0.576181 -0.219178
N7    N     N_R   0.890195 0.106515 0.788231 0.093809
O29   O     O_R   0.980906 0.105164 0.839678 -0.295681
O30   O     O_R   0.896954 0.230039 0.757585 -0.311712
C42   C     C_1   0.292329 0.137857 0.765753 0.256440
N8    N     N_1   0.308721 0.247641 0.778861 -0.216141

loop_
_geom_bond_atom_site_label_1
_geom_bond_atom_site_label_2
_geom_bond_distance
_ccdc_geom_bond_type
O17   C32   1.297760 A    
O11   Cr3   2.056902 S    
C11   C12   1.397026 A    
N1    O27   1.302032 A    
C22   C41   1.450274 S    
C19   C24   1.409373 A    
C9    C32   1.477070 S    
O4    Cr2   1.941509 S    
C31   O16   1.260351 A    
O15   C31   1.267635 A    
C23   N7    1.439454 S    
O8    Cr1   1.932178 S    
C10   C11   1.376685 A    
C25   C42   1.446709 S    
C7    C12   1.404784 A    
C19   C20   1.371164 A    
C20   H2    1.085853 S    
C28   C37   1.443474 S    
C6    C24   1.460212 S    
C13   C14   1.186643 T    
N7    O30   1.300837 A    
O19   Cr6   1.944950 S    
C14   C31   1.400672 S    
C18   C35   1.400614 S    
C5    O11   1.257816 A    
C32   O18   1.300772 A    
C17   C18   1.186968 T    
C23   C24   1.416981 A    
O15   Cr4   1.933781 S    
C41   N6    1.157549 T    
C28   C29   1.396381 A    
C19   C40   1.446034 S    
O6    C3    1.266067 A    
C7    C8    1.403251 A    
O23   Cr5   1.936378 S    
C5    C17   1.400968 S    
C29   C30   1.411245 A    
C16   C33   1.419002 S    
Cr3   O13   1.976815 S    
N1    O28   1.300685 A    
O21   C34   1.268752 A    
C7    N1    1.437442 S    
C26   C27   1.406194 A    
O6    Cr3   1.937027 S    
O1    Cr1   2.050899 S    
O25   C36   1.281966 A    
O10   Cr2   1.944698 S    
Cr1   O13   1.979142 S    
O1    C3    1.265047 A    
C8    C9    1.430534 A    
C21   C22   1.411794 A    
N7    O29   1.301399 A    
O19   C33   1.262415 A    
O5    Cr3   2.055691 S    
O18   Cr6   2.060405 S    
Cr4   O26   1.980803 S    
C25   C26   1.378606 A    
C27   C36   1.469641 S    
C34   O22   1.270261 A    
O24   Cr6   2.063592 S    
O16   Cr5   2.053896 S    
O22   Cr5   2.051644 S    
O7    Cr1   2.052181 S    
O12   C6    1.276485 A    
C37   N2    1.157253 T    
C3    C13   1.400734 S    
C8    C38   1.449672 S    
C29   H4    1.084334 S    
Cr2   O13   1.960699 S    
C35   O24   1.252203 A    
O14   C33   1.268640 A    
C1    O3    1.249293 A    
C26   H3    1.085333 S    
O21   Cr4   1.934869 S    
C21   C34   1.447268 S    
C27   C28   1.407205 A    
C22   C23   1.401672 A    
O9    Cr2   2.058662 S    
O2    Cr1   1.935407 S    
C38   N3    1.157637 T    
C39   N4    1.157657 T    
C4    C30   1.466361 S    
O8    C4    1.301380 A    
C25   C30   1.409862 A    
C2    O5    1.262053 A    
C15   C16   1.197311 T    
O2    C1    1.272037 A    
C9    C10   1.416581 A    
Cr6   O26   1.961198 S    
C20   C21   1.398405 A    
O23   C35   1.260781 A    
O4    C2    1.274153 A    
O20   Cr4   2.052653 S    
O7    C6    1.271371 A    
O25   Cr6   1.940680 S    
C1    C15   1.417531 S    
C10   C39   1.447869 S    
O17   Cr5   1.935139 S    
O3    Cr2   2.063450 S    
C2    C12   1.461606 S    
C4    O9    1.298650 A    
O20   C36   1.260762 A    
C40   N5    1.155899 T    
C11   H1    1.085686 S    
O10   C5    1.261584 A    
Cr5   O26   1.974693 S    
O14   Cr4   2.055707 S    
C42   N8    1.157551 T    
O12   Cr3   1.934818 S    
