data_mof_unit_3127.cif
_audit_creation_date              2012-12-10T19:42:06-0500
_audit_creation_method            fapswitch 2.2
_symmetry_space_group_name_H-M    P1
_symmetry_Int_Tables_number       1
_space_group_crystal_system       triclinic
_cell_length_a                    18.336836
_cell_length_b                    18.357634
_cell_length_c                    18.443937
_cell_angle_alpha                 120.071175
_cell_angle_beta                  90.043385
_cell_angle_gamma                 119.730505
_cell_volume                      4401.59205062

loop_
_atom_site_label
_atom_site_type_symbol
_atom_type_description
_atom_site_fract_x
_atom_site_fract_y
_atom_site_fract_z
_atom_type_partial_charge
C1    C     C_R   0.140717 0.780153 0.139747 0.538131
C2    C     C_R   0.814417 0.109157 0.801876 0.011947
C3    C     C_R   0.825613 0.055034 0.828956 0.120127
C4    C     C_R   0.862129 0.220362 0.859795 0.520612
C5    C     C_R   0.763948 0.946731 0.779530 0.116517
C6    C     C_R   0.700839 0.892299 0.695948 0.016488
C7    C     C_R   0.705231 0.948035 0.663193 0.005395
C8    C     C_3   0.636298 0.944517 0.613851 -0.035961
C9    C     C_3   0.699100 0.064675 0.673301 -0.007007
C10   C     C_R   0.779028 0.565937 0.226905 -0.012352
C11   C     C_R   0.799011 0.493480 0.191004 0.090078
C12   C     C_R   0.776938 0.691308 0.809099 -0.090313
C13   C     C_R   0.754982 0.412496 0.202415 0.100208
C14   C     C_R   0.700255 0.413462 0.255654 -0.147880
C15   C     C_R   0.689305 0.493907 0.298386 -0.008952
C16   C     C_R   0.139567 0.496229 0.860103 0.483014
C17   C     C_R   0.724115 0.565089 0.277313 0.025746
C18   C     C_3   0.769534 0.679557 0.329940 -0.010181
C19   C     C_3   0.831647 0.680211 0.273019 -0.149214
C20   C     C_R   0.164967 0.949224 0.212457 0.023163
C21   C     C_R   0.199986 0.892083 0.194402 -0.006110
C22   C     C_R   0.294964 0.949151 0.233471 -0.016205
C23   C     C_R   0.758068 0.594676 0.781213 -0.009476
C24   C     C_R   0.346022 0.057258 0.288823 -0.123710
C25   C     C_R   0.306652 0.110295 0.305635 -0.012599
C26   C     C_R   0.216037 0.053070 0.265785 -0.013180
C27   C     C_3   0.140290 0.062365 0.259450 0.004197
C28   C     C_R   0.859486 0.499304 0.139591 0.574314
C29   C     C_3   0.080609 0.942617 0.196945 0.179446
C30   C     C_R   0.276797 0.583566 0.253363 0.025327
C31   C     C_R   0.195876 0.492690 0.188971 0.017081
C32   C     C_R   0.171552 0.399472 0.176682 -0.006131
C33   C     C_R   0.226726 0.403042 0.233459 -0.106633
C34   C     C_R   0.795178 0.587678 0.842459 0.019202
C35   C     C_R   0.304080 0.496731 0.301767 -0.009371
C36   C     C_R   0.328675 0.585873 0.309786 -0.050712
C37   C     C_3   0.354982 0.688697 0.389106 -0.059312
C38   C     C_3   0.300357 0.688784 0.325155 0.134471
C39   C     C_R   0.284177 0.562243 0.835944 -0.017908
C40   C     C_R   0.139863 0.497879 0.138010 0.506413
C41   C     C_R   0.193512 0.487148 0.802849 -0.047275
C42   C     C_R   0.155648 0.404681 0.710652 -0.020888
C43   C     C_R   0.208275 0.410553 0.654291 0.115289
C44   C     C_R   0.300886 0.492513 0.692236 0.012443
C45   C     C_R   0.800691 0.502069 0.808443 -0.005239
C46   C     C_R   0.334991 0.565031 0.783249 -0.084426
C47   C     C_3   0.420623 0.655998 0.857671 0.224166
C48   C     C_3   0.361073 0.658058 0.919008 0.311876
C49   C     C_R   0.639473 0.499476 0.359637 0.509278
C50   C     C_R   0.359465 0.498671 0.639260 0.518019
C51   C     C_R   0.639823 0.780075 0.640079 0.516941
C52   C     C_R   0.858697 0.500023 0.861020 0.527168
C53   C     C_R   0.360483 0.220607 0.360733 0.505492
C54   C     C_R   0.359971 0.500036 0.360400 0.479414
C55   C     C_R   0.642159 0.501651 0.639419 0.512282
C56   C     C_R   0.753990 0.418342 0.719573 -0.124829
C57   C     C_R   0.824334 0.666926 0.934116 -0.051270
C58   C     C_R   0.831507 0.756567 0.961065 -0.116613
C59   C     C_R   0.814760 0.771903 0.898647 -0.124989
C60   C     C_2   0.547689 0.898188 0.627950 0.172326
C61   C     C_2   0.740133 0.112274 0.623842 0.311920
C62   C     C_2   0.664723 0.119574 0.739711 0.254144
C63   C     C_3   0.833618 0.347201 0.221983 -0.243271
C64   C     C_2   0.711506 0.709333 0.312373 0.316089
C65   C     C_2   0.812987 0.733692 0.428005 0.231205
C66   C     C_2   0.929076 0.741095 0.324410 0.221011
C67   C     C_R   0.700658 0.416119 0.664006 0.106913
C68   C     C_2   0.345889 0.903122 0.219508 0.211738
C69   C     C_3   0.198852 0.123036 0.162510 -0.276568
C70   C     C_3   0.944130 0.902201 0.237457 -0.318064
C71   C     C_2   0.037141 0.895441 0.101198 0.287830
C72   C     C_2   0.089886 0.298329 0.106148 0.215706
C73   C     C_2   0.319236 0.683116 0.461450 0.270184
C74   C     C_2   0.221457 0.691582 0.347471 0.298969
C75   C     C_3   0.422911 0.761934 0.268660 -0.279429
C76   C     C_2   0.065088 0.309255 0.675504 0.281151
C77   C     C_3   0.131303 0.349391 0.508520 -0.222519
C78   C     C_R   0.702743 0.505025 0.694533 0.039574
C79   C     C_3   0.570858 0.683945 0.886011 -0.267337
C80   C     C_2   0.466484 0.746153 0.850810 0.248570
C81   C     C_3   0.458202 0.724571 0.060517 -0.289365
C82   C     C_3   0.302418 0.751783 0.906185 -0.267178
C83   C     C_3   0.556231 0.256062 0.571908 -0.258336
C84   C     C_3   0.976835 0.111591 0.869761 -0.300497
C85   C     C_3   0.715043 0.902041 0.879810 -0.271892
C86   C     C_2   0.624297 0.893720 0.515769 0.259523
C87   C     C_R   0.759521 0.053548 0.715432 -0.014998
H1    H     H_    0.755254 0.351509 0.693929 0.168239
H2    H     H_    0.828796 0.845422 0.920307 0.114184
H3    H     H_    0.763207 0.705643 0.762344 0.152504
H4    H     H_    0.528010 0.845521 0.646780 0.101174
H5    H     H_    0.698955 0.113146 0.582399 0.107372
H6    H     H_    0.642246 0.099809 0.785647 0.115320
H7    H     H_    0.707757 0.259944 0.133512 0.251970
H8    H     H_    0.843791 0.285129 0.184460 0.157085
H9    H     H_    0.898140 0.422091 0.249316 0.206113
H10   H     H_    0.811810 0.345482 0.277650 0.131653
H11   H     H_    0.742227 0.786964 0.331097 0.123897
H12   H     H_    0.669489 0.353287 0.266223 0.149299
H13   H     H_    0.850716 0.712592 0.448304 0.119745
H14   H     H_    0.968213 0.824286 0.363696 0.108597
H15   H     H_    0.326552 0.832598 0.158028 0.137953
H16   H     H_    0.144534 0.178178 0.258241 0.271852
H17   H     H_    0.178982 0.144382 0.123369 0.166205
H18   H     H_    0.191278 0.049640 0.115375 0.165475
H19   H     H_    0.269703 0.184370 0.204748 0.151221
H20   H     H_    0.051440 0.915382 0.294544 0.241765
H21   H     H_    0.909045 0.875948 0.277209 0.126338
H22   H     H_    0.896599 0.851542 0.169352 0.142993
H23   H     H_    0.822110 0.698332 0.226091 0.101281
H24   H     H_    0.965586 0.982461 0.268382 0.144196
H25   H     H_    0.004418 0.924258 0.086444 0.115904
H26   H     H_    0.053198 0.289756 0.053329 0.147801
H27   H     H_    0.295673 0.617108 0.463206 0.100516
H28   H     H_    0.224390 0.760889 0.372588 0.136366
H29   H     H_    0.319243 0.778602 0.279126 0.273595
H30   H     H_    0.465274 0.832697 0.271275 0.188389
H31   H     H_    0.390705 0.694654 0.198083 0.144031
H32   H     H_    0.467123 0.757343 0.304608 0.157320
H33   H     H_    0.044838 0.278988 0.714998 0.131421
H34   H     H_    0.837944 0.661308 0.987073 0.168791
H35   H     H_    0.131366 0.257481 0.543766 0.270061
H36   H     H_    0.072085 0.347111 0.524017 0.187882
H37   H     H_    0.110842 0.289095 0.436890 0.135862
H38   H     H_    0.180316 0.425453 0.521551 0.161576
H39   H     H_    0.450404 0.565529 0.876859 0.270201
H40   H     H_    0.599625 0.645186 0.891177 0.139852
H41   H     H_    0.601937 0.760153 0.950068 0.150940
H42   H     H_    0.585946 0.692831 0.831612 0.195836
H43   H     H_    0.458633 0.733629 0.786429 0.097162
H44   H     H_    0.325478 0.599522 0.996505 0.269731
H45   H     H_    0.417414 0.100343 0.318236 0.190662
H46   H     H_    0.478344 0.695040 0.090387 0.139085
H47   H     H_    0.443715 0.777988 0.110304 0.143027
H48   H     H_    0.514570 0.767573 0.043565 0.196865
H49   H     H_    0.340536 0.763740 0.018850 0.255446
H50   H     H_    0.230095 0.697496 0.890117 0.143783
H51   H     H_    0.317439 0.734460 0.843627 0.146451
H52   H     H_    0.319013 0.830829 0.944038 0.158998
H53   H     H_    0.674501 0.285575 0.547919 0.255080
H54   H     H_    0.558159 0.226971 0.611684 0.164728
H55   H     H_    0.516172 0.189670 0.501592 0.167984
H56   H     H_    0.129164 0.095320 0.324415 0.130556
H57   H     H_    0.523266 0.296630 0.596565 0.153788
H58   H     H_    0.892613 0.085046 0.942031 0.271627
H59   H     H_    0.034261 0.148318 0.925722 0.155429
H60   H     H_    0.997900 0.156723 0.841153 0.149462
H61   H     H_    0.957785 0.032699 0.818811 0.153600
H62   H     H_    0.823682 0.911660 0.839776 0.243352
H63   H     H_    0.746955 0.983430 0.936413 0.147958
H64   H     H_    0.715373 0.860175 0.906539 0.121782
H65   H     H_    0.644988 0.868135 0.847127 0.198764
H66   H     H_    0.586115 0.899803 0.476760 0.098321
H67   H     H_    0.209174 0.332919 0.225127 0.166545
H68   H     H_    0.427746 0.747843 0.415428 0.144956
H69   H     H_    0.852041 0.815541 0.030685 0.090678
N1    N     N_2   0.766779 0.331469 0.163172 -0.490533
N2    N     N_2   0.902926 0.107879 0.899988 -0.500507
N3    N     N_2   0.762283 0.894290 0.816370 -0.505013
N4    N     N_2   0.143119 0.113060 0.217462 -0.528452
N5    N     N_2   0.019968 0.896074 0.235145 -0.505486
N6    N     N_2   0.355541 0.766189 0.308553 -0.510201
N7    N     N_2   0.170049 0.331606 0.561188 -0.470261
N8    N     N_2   0.475494 0.621750 0.865573 -0.504219
N9    N     N_2   0.379810 0.639146 0.982380 -0.523055
N10   N     N_2   0.353652 0.745395 0.960142 -0.458787
N11   N     N_2   0.645477 0.324014 0.577357 -0.480649
O1    O     O_3   0.000000 0.500000 0.000000 -0.460408
O2    O     O_R   0.323450 0.268330 0.384170 -0.535205
O3    O     O_R   0.444860 0.560620 0.384150 -0.511853
O4    O     O_R   0.055050 0.731580 0.115780 -0.469392
O5    O     O_R   0.615780 0.439200 0.555040 -0.501854
O6    O     O_R   0.323420 0.439190 0.384160 -0.566184
O7    O     O_R   0.615760 0.560630 0.676470 -0.565675
O8    O     O_R   0.615740 0.731500 0.676460 -0.545377
O9    O     O_R   0.444900 0.268330 0.384170 -0.553232
O10   O     O_R   0.615750 0.560630 0.384150 -0.475989
O11   O     O_R   0.323430 0.439200 0.555040 -0.518543
O12   O     O_R   0.055090 0.439280 0.823480 -0.534517
O13   O     O_R   0.884220 0.268410 0.823490 -0.504863
O14   O     O_R   0.176520 0.560720 0.944920 -0.561861
O15   O     O_R   0.884200 0.439290 0.115800 -0.508744
O16   O     O_R   0.176530 0.560720 0.115800 -0.560384
O17   O     O_R   0.884180 0.560710 0.944910 -0.551114
O18   O     O_R   0.055100 0.439290 0.115810 -0.537969
O19   O     O_R   0.884190 0.439280 0.823480 -0.516154
O20   O     O_2   0.496095 0.917704 0.615845 -0.450799
O21   O     O_2   0.818352 0.149366 0.629416 -0.437868
O22   O     O_2   0.662065 0.186307 0.742955 -0.510767
O23   O     O_R   0.884180 0.560710 0.115790 -0.537994
O24   O     O_2   0.630745 0.647976 0.278005 -0.468211
O25   O     O_2   0.806102 0.800651 0.485049 -0.457949
O26   O     O_2   0.964418 0.699351 0.323743 -0.494483
O27   O     O_2   0.414430 0.947416 0.277276 -0.541124
O28   O     O_2   0.038909 0.826210 0.040192 -0.507305
O29   O     O_2   0.062697 0.222357 0.105698 -0.539650
O30   O     O_2   0.317715 0.754089 0.519873 -0.428319
O31   O     O_2   0.155826 0.618646 0.340814 -0.493210
O32   O     O_2   0.011695 0.265266 0.604254 -0.479117
O33   O     O_2   0.514276 0.833835 0.917719 -0.523397
O34   O     O_R   0.176500 0.731590 0.115790 -0.590062
O35   O     O_2   0.656969 0.846503 0.479616 -0.426599
O36   O     O_R   0.884220 0.268420 0.944930 -0.528206
O37   O     O_3   0.499960 0.499910 0.499960 -0.458139
O38   O     O_R   0.615770 0.439200 0.384160 -0.556412
O39   O     O_R   0.444870 0.560630 0.676470 -0.556753
O40   O     O_R   0.615730 0.731500 0.555020 -0.481726
Zn1   Zn    Zn3+2 0.956630 0.413250 0.869870 0.993770
Zn2   Zn    Zn3+2 0.130130 0.586750 0.043370 0.901849
Zn3   Zn    Zn3+2 0.956630 0.413250 0.043380 0.967449
Zn4   Zn    Zn3+2 0.956610 0.586750 0.043370 0.994598
Zn5   Zn    Zn3+2 0.543330 0.586660 0.630080 0.905099
Zn6   Zn    Zn3+2 0.543320 0.586660 0.456570 1.020874
Zn7   Zn    Zn3+2 0.369830 0.413160 0.456580 0.914969
Zn8   Zn    Zn3+2 0.543350 0.413170 0.456590 0.944464

loop_
_geom_bond_atom_site_label_1
_geom_bond_atom_site_label_2
_ccdc_geom_bond_type
C77   N7    S    
C79   H41   S    
C1    C21   S    
H58   N2    S    
C63   H8    S    
C27   C29   S    
C41   C42   A    
C37   H68   S    
C35   C36   A    
C75   H30   S    
O40   Zn6   S    
C79   N8    S    
C43   C44   A    
C1    O34   A    
C64   O24   D    
C81   H47   S    
C32   C72   S    
O3    Zn6   S    
C18   C65   S    
O2    Zn7   S    
C75   H31   S    
O37   Zn8   S    
C26   C27   S    
C76   H33   S    
C20   C26   A    
C75   N6    S    
O7    Zn5   S    
C54   O6    A    
H29   N6    S    
C36   C37   S    
C50   O11   A    
C86   H66   S    
C25   C53   S    
C82   H50   S    
O13   Zn1   S    
C82   N10   S    
C83   H57   S    
C51   O40   A    
H16   N4    S    
C19   H23   S    
C10   C17   A    
C67   N11   S    
C79   H42   S    
O37   Zn7   S    
O15   Zn3   S    
C69   N4    S    
C31   C40   S    
C30   C38   S    
C19   C66   S    
O14   Zn2   S    
C18   C19   S    
C59   H2    S    
O34   Zn2   S    
C28   O15   A    
C85   H63   S    
C37   C73   S    
O12   Zn1   S    
C12   C59   A    
C7    C87   A    
C48   N9    S    
C74   O31   D    
C45   C56   A    
C8    C9    S    
C5    N3    S    
C73   O30   D    
C3    N2    S    
C27   H56   S    
O1    Zn1   S    
O36   Zn3   S    
C12   H3    S    
C6    C51   S    
O5    Zn8   S    
C86   O35   D    
C8    C86   S    
C61   H5    S    
C53   O2    A    
C40   O16   A    
H53   N11   S    
C64   H11   S    
C21   C22   A    
C35   C54   S    
O1    Zn4   S    
C67   C78   A    
C52   O19   A    
C47   C80   S    
C4    O13   A    
H39   N8    S    
C13   N1    S    
C44   C46   A    
C81   H48   S    
C62   O22   D    
C49   O10   A    
C20   C29   S    
C84   H61   S    
H44   N9    S    
C80   H43   S    
O11   Zn7   S    
C9    C62   S    
C29   N5    S    
C7    C8    S    
C75   H32   S    
C24   C25   A    
C39   C41   A    
C10   C11   A    
C83   H54   S    
C55   C78   S    
C84   N2    S    
C33   H67   S    
C4    O36   A    
C40   O18   A    
C45   C52   S    
C25   C26   A    
C83   N11   S    
C63   H9    S    
C1    O4    A    
C61   O21   D    
C73   H27   S    
C2    C4    S    
O23   Zn4   S    
C85   H64   S    
C55   O7    A    
C37   C38   S    
C77   H36   S    
C70   H22   S    
O10   Zn6   S    
C34   C57   A    
O4    Zn4   S    
C24   H45   S    
C71   O28   D    
C47   C48   S    
C12   C23   A    
C65   O25   D    
C10   C19   S    
C23   C34   A    
C71   H25   S    
O37   Zn5   S    
C82   H52   S    
C14   C15   A    
C17   C18   S    
O9    Zn8   S    
C2    C87   A    
C34   C45   A    
O8    Zn5   S    
C51   O8    A    
H62   N3    S    
C22   C68   S    
C58   H69   S    
C39   C46   A    
C47   N8    S    
C50   O39   A    
C63   H10   S    
C49   O38   A    
H7    N1    S    
C14   H12   S    
C9    C61   S    
C58   C59   A    
C42   C43   A    
C63   N1    S    
C70   N5    S    
H20   N5    S    
C55   O5    A    
C66   O26   D    
C77   H38   S    
O17   Zn4   S    
C38   C74   S    
C84   H60   S    
C44   C50   S    
C15   C17   A    
C79   H40   S    
C46   C47   S    
C60   H4    S    
C69   H18   S    
C80   O33   D    
C16   O14   A    
O1    Zn2   S    
C31   C32   A    
C52   O17   A    
C65   H13   S    
C68   H15   S    
C3    C5    A    
C76   O32   D    
C28   O23   A    
C72   O29   D    
C83   H55   S    
C69   H19   S    
C16   O12   A    
C81   H46   S    
C6    C7    A    
C84   H59   S    
O16   Zn2   S    
C56   C67   A    
C42   C76   S    
O19   Zn1   S    
C32   C33   A    
C2    C3    A    
C27   N4    S    
C85   H65   S    
C30   C36   A    
C77   H37   S    
C70   H21   S    
C9    C87   S    
C60   O20   D    
C11   C13   A    
C30   C31   A    
C18   C64   S    
C57   C58   A    
C5    C6    A    
H49   N10   S    
C11   C28   S    
C74   H28   S    
C72   H26   S    
C33   C35   A    
C66   H14   S    
O6    Zn7   S    
C22   C24   A    
C15   C49   S    
C23   C78   A    
O37   Zn6   S    
C56   H1    S    
C70   H24   S    
H35   N7    S    
C57   H34   S    
O39   Zn5   S    
C38   N6    S    
C48   N10   S    
C20   C21   A    
O38   Zn8   S    
O1    Zn3   S    
C82   H51   S    
C62   H6    S    
C54   O3    A    
C81   N9    S    
O18   Zn3   S    
C68   O27   D    
C85   N3    S    
C29   C71   S    
C13   C14   A    
C16   C41   S    
C8    C60   S    
C53   O9    A    
C39   C48   S    
C69   H17   S    
C43   N7    S    
