data_mof_unit_3930.cif
_audit_creation_date              2013-03-05T15:55:32-0500
_audit_creation_method            fapswitch 2.2
_symmetry_space_group_name_H-M    P1
_symmetry_Int_Tables_number       1
_space_group_crystal_system       triclinic
_cell_length_a                    19.951747
_cell_length_b                    7.338183
_cell_length_c                    14.152334
_cell_angle_alpha                 89.999745
_cell_angle_beta                  102.870224
_cell_angle_gamma                 90.001456
_cell_volume                      2019.98152735

loop_
_atom_site_label
_atom_site_type_symbol
_atom_site_description
_atom_site_fract_x
_atom_site_fract_y
_atom_site_fract_z
_atom_type_partial_charge
O1    O     O_R   0.449560 0.506810 0.599700 -0.597657
O2    O     O_R   0.550440 0.006810 0.400300 -0.597569
O3    O     O_R   0.587960 0.180060 0.595760 -0.568426
O4    O     O_R   0.412040 0.680060 0.404240 -0.568523
C1    C     C_R   0.615538 0.345920 0.615271 0.991765
C2    C     C_R   0.384466 0.845920 0.384718 0.991464
O5    O     O_R   0.452380 0.177430 0.611700 -0.574627
O6    O     O_R   0.547620 0.677430 0.388300 -0.574624
O7    O     O_R   0.413900 0.001890 0.416350 -0.585858
O8    O     O_R   0.586100 0.501890 0.583650 -0.585788
C3    C     C_R   0.436660 0.346133 0.635914 0.961695
C4    C     C_R   0.563342 0.846139 0.364090 0.961479
O9    O     O_3   0.487530 0.337490 0.435890 -0.265356
O10   O     O_3   0.512470 0.837490 0.564110 -0.265383
V1    V     V_3+5 0.502310 0.064660 0.511890 1.270741
V2    V     V_3+5 0.497690 0.564660 0.488110 1.270705
C5    C     C_R   0.598948 0.905397 0.114894 -0.185070
C6    C     C_R   0.401039 0.405377 0.885105 -0.185231
H1    H     H_    0.680477 0.830368 0.992670 0.167812
H2    H     H_    0.319499 0.330525 0.007331 0.167764
C7    C     C_R   0.598705 0.858681 0.284759 -0.211328
C8    C     C_R   0.401297 0.358647 0.715247 -0.211161
C9    C     C_R   0.927491 0.893349 0.305202 0.558942
C10   C     C_R   0.072504 0.393281 0.694774 0.558962
C11   C     C_R   0.891442 0.931020 0.376137 0.656834
C12   C     C_R   0.108559 0.430878 0.623826 0.656706
C13   C     C_R   0.819960 0.936263 0.353456 0.503785
C14   C     C_R   0.180042 0.436139 0.646510 0.503858
C15   C     C_R   0.781997 0.889131 0.259560 -0.203638
C16   C     C_R   0.217999 0.389078 0.740422 -0.203787
C17   C     C_R   0.818553 0.859026 0.184818 -0.102956
C18   C     C_R   0.181438 0.359028 0.815166 -0.102933
C19   C     C_R   0.708413 0.880405 0.236730 0.237698
C20   C     C_R   0.291582 0.380355 0.763262 0.237792
C21   C     C_R   0.671701 0.883852 0.138896 0.073562
C22   C     C_R   0.328288 0.383866 0.861096 0.073565
C23   C     C_R   0.707811 0.850564 0.067180 -0.191586
C24   C     C_R   0.292172 0.350656 0.932813 -0.191711
C25   C     C_R   0.778734 0.827550 0.089584 -0.010086
C26   C     C_R   0.221252 0.327609 0.910406 -0.010054
C27   C     C_R   0.670356 0.855994 0.307967 -0.152732
C28   C     C_R   0.329644 0.355878 0.692039 -0.152994
C29   C     C_R   0.562288 0.893410 0.189375 -0.171394
C30   C     C_R   0.437711 0.393377 0.810637 -0.171569
C31   C     C_R   0.892645 0.863717 0.209050 -0.505724
C32   C     C_R   0.107346 0.363714 0.790934 -0.505710
H3    H     H_    0.695480 0.825931 0.381804 0.181054
H4    H     H_    0.304513 0.325686 0.618222 0.181166
C33   C     C_R   0.200062 0.999643 0.262433 0.873253
C34   C     C_R   0.799950 0.499604 0.737562 0.873252
C35   C     C_R   0.268222 0.009105 0.318961 -0.221330
C36   C     C_R   0.731800 0.509059 0.681002 -0.221280
C37   C     C_R   0.313519 0.857800 0.320685 -0.303779
C38   C     C_R   0.686486 0.357793 0.679303 -0.303885
C39   C     C_R   0.286078 0.701198 0.270492 -0.159879
C40   C     C_R   0.713910 0.201202 0.729526 -0.159798
H5    H     H_    0.316443 0.577930 0.278187 0.224658
H6    H     H_    0.683537 0.077937 0.721839 0.224636
C41   C     C_R   0.216918 0.693129 0.221369 -0.154598
C42   C     C_R   0.783070 0.193116 0.778650 -0.154544
C43   C     C_R   0.177563 0.852571 0.201061 -0.356783
C44   C     C_R   0.822432 0.352556 0.798953 -0.356757
O11   O     O_R   0.913920 0.203370 0.916260 -0.578185
O12   O     O_R   0.086080 0.703370 0.083740 -0.578193
O13   O     O_R   0.047620 0.535540 0.888290 -0.564396
O14   O     O_R   0.952380 0.035540 0.111710 -0.564411
C45   C     C_R   0.064435 0.368287 0.863747 1.135481
C46   C     C_R   0.935556 0.868286 0.136241 1.135495
O15   O     O_R   0.912040 0.532780 0.904220 -0.580601
O16   O     O_R   0.087960 0.032780 0.095780 -0.580626
O17   O     O_R   0.949550 0.708160 0.099720 -0.599294
O18   O     O_R   0.050450 0.208160 0.900280 -0.599291
C47   C     C_R   0.888163 0.363153 0.877142 1.082933
C48   C     C_R   0.111834 0.863158 0.122865 1.082881
O19   O     O_3   0.012480 0.375300 0.064060 -0.319760
O20   O     O_3   0.987520 0.875300 0.935940 -0.319709
V3    V     V_3+5 0.997690 0.648180 0.988110 1.270058
V4    V     V_3+5 0.002310 0.148180 0.011890 1.270048
C49   C     C_2   0.486472 0.917762 0.169058 1.091619
O21   O     O_2   0.459897 0.052575 0.125530 -0.617814
O22   O     O_R   0.445586 0.786479 0.200230 -0.776157
H7    H     H_    0.394793 0.814990 0.178489 0.340386
C50   C     C_2   0.513535 0.417646 0.830998 1.091330
O23   O     O_2   0.540146 0.552120 0.874878 -0.617781
O24   O     O_R   0.554395 0.286600 0.799545 -0.776460
H8    H     H_    0.605193 0.314934 0.821416 0.340399
C51   C     C_2   0.288691 0.179322 0.373588 1.091411
O25   O     O_2   0.336991 0.268707 0.358710 -0.620280
O26   O     O_R   0.247602 0.249621 0.432731 -0.713775
H9    H     H_    0.261694 0.378380 0.454079 0.351460
C52   C     C_2   0.711389 0.679187 0.626265 1.091255
O27   O     O_2   0.663084 0.768701 0.641014 -0.620352
O28   O     O_R   0.752561 0.749287 0.567182 -0.713779
H10   H     H_    0.738567 0.878100 0.545854 0.351692
C53   C     C_2   0.182672 0.519657 0.226061 1.166308
O29   O     O_2   0.213393 0.379450 0.217845 -0.648644
O30   O     O_R   0.117150 0.516439 0.246617 -0.713008
H11   H     H_    0.095508 0.391643 0.242467 0.395778
C54   C     C_2   0.817313 0.019650 0.773923 1.166085
O31   O     O_2   0.786587 0.879427 0.782096 -0.648633
O32   O     O_R   0.882838 0.016465 0.753377 -0.713097
H12   H     H_    0.904472 0.891666 0.757478 0.395803
C55   C     C_2   0.561683 0.943553 0.013193 1.133486
O33   O     O_2   0.585676 0.052006 0.964088 -0.600958
O34   O     O_R   0.498863 0.858805 0.974207 -0.753779
H13   H     H_    0.478336 0.899056 0.905291 0.344270
C56   C     C_2   0.438290 0.443520 0.986810 1.133785
O35   O     O_2   0.414329 0.552138 0.035858 -0.600707
O36   O     O_R   0.501057 0.358567 0.025866 -0.753682
H14   H     H_    0.521591 0.398887 0.094769 0.344421
F1    F     F_    0.997339 0.898420 0.329108 -0.579322
F2    F     F_    0.002656 0.398333 0.670862 -0.579295
F3    F     F_    0.789183 0.008583 0.421001 -0.654753
F4    F     F_    0.210833 0.508403 0.578945 -0.654548
F5    F     F_    0.926350 0.974138 0.467062 -0.527721
F6    F     F_    0.073656 0.473894 0.532880 -0.527684
C57   C     C_2   0.807476 0.768832 0.009274 1.001326
O37   O     O_2   0.797113 0.614130 0.977424 -0.634655
O38   O     O_R   0.843903 0.893772 0.967394 -0.801702
H15   H     H_    0.870505 0.830670 0.924597 0.358967
C58   C     C_2   0.192513 0.268860 0.990711 1.001374
O39   O     O_2   0.202876 0.114150 0.022548 -0.634649
O40   O     O_R   0.156078 0.393772 0.032593 -0.801682
H16   H     H_    0.129477 0.330645 0.075384 0.358983
F7    F     F_    0.152410 0.120744 0.276878 -0.657328
F8    F     F_    0.847615 0.620689 0.723133 -0.657363

loop_
_geom_bond_atom_site_label_1
_geom_bond_atom_site_label_2
_geom_bond_distance
_ccdc_geom_bond_type
O14   C46   1.338449 A    
C51   O25   1.222121 D    
O28   H10   1.012434 S    
C9    C31   1.400313 A    
C39   C41   1.401252 A    
C13   C15   1.418013 A    
O12   V3    2.010580 S    
O15   V3    2.035436 S    
C53   O29   1.216373 D    
O1    C3    1.333369 A    
C42   C54   1.453264 S    
O2    C4    1.333339 A    
C2    O7    1.318362 A    
O30   H11   1.008580 S    
O40   H16   1.003078 S    
O24   H8    1.013153 S    
O5    C3    1.340257 A    
C26   C58   1.447964 S    
O32   H12   1.008571 S    
C21   C23   1.390896 A    
C10   C12   1.386904 A    
C11   F5    1.357126 S    
O16   V4    2.035465 S    
C29   C49   1.486270 S    
C15   C19   1.432673 A    
C42   C44   1.402723 A    
C45   O18   1.337966 A    
C6    C56   1.491944 S    
O18   V4    2.070513 S    
H1    C23   1.084040 S    
C7    C29   1.406476 A    
C8    C30   1.406528 A    
C54   O31   1.216371 D    
C17   C25   1.422685 A    
C20   C28   1.402125 A    
C33   C35   1.417586 A    
C10   F2    1.359375 S    
O16   C48   1.357140 A    
C33   F7    1.349828 S    
C34   C36   1.417581 A    
C56   O35   1.222107 D    
C44   C47   1.517869 S    
O15   C47   1.357149 A    
C34   F8    1.349837 S    
C16   C18   1.429488 A    
C30   C50   1.486326 S    
O5    V1    2.073500 S    
O6    V2    2.073475 S    
C56   O36   1.397892 S    
C41   C53   1.453228 S    
C36   C38   1.428417 A    
O22   H7    1.013179 S    
C37   C39   1.397016 A    
O14   V4    2.073206 S    
C38   C40   1.397062 A    
C41   C43   1.402707 A    
O13   V3    2.073231 S    
C16   C20   1.432669 A    
C1    C38   1.503689 S    
C33   C43   1.395334 A    
O20   V3    1.815842 S    
O4    C2    1.338908 A    
C35   C51   1.477840 S    
C52   O27   1.222106 D    
C49   O22   1.395868 S    
O11   C47   1.348573 A    
O13   C45   1.338466 A    
C25   C57   1.447985 S    
C4    C7    1.455900 S    
C40   C42   1.401266 A    
C35   C37   1.428406 A    
O4    V2    2.035355 S    
C5    C29   1.413267 A    
C6    C30   1.413270 A    
C52   O28   1.394470 S    
H2    C24   1.084026 S    
C50   O23   1.222451 D    
O6    C4    1.340272 A    
C31   C46   1.479481 S    
C27   H3    1.076364 S    
C55   O34   1.397865 S    
O1    V2    2.066875 S    
C28   H4    1.076329 S    
O2    V1    2.066887 S    
C58   O39   1.221946 D    
C14   F4    1.354476 S    
C7    C27   1.393824 A    
C13   F3    1.354265 S    
C54   O32   1.401284 S    
C39   H5    1.080636 S    
C34   C44   1.395296 A    
C2    C37   1.503695 S    
C22   C24   1.390889 A    
O17   V3    2.070528 S    
O3    V1    2.035322 S    
C50   O24   1.396140 S    
C18   C32   1.441583 A    
O3    C1    1.338894 A    
O38   H15   1.003096 S    
C53   O30   1.401283 S    
C43   C48   1.517891 S    
C11   C13   1.390900 A    
C9    F1    1.359374 S    
O34   H13   1.014044 S    
C3    C8    1.455914 S    
C12   C14   1.390923 A    
C19   C27   1.402156 A    
C57   O38   1.382738 S    
C5    C55   1.491998 S    
C10   C32   1.400329 A    
C32   C45   1.479530 S    
C23   C25   1.389810 A    
O8    V2    2.022218 S    
O36   H14   1.014059 S    
C24   C26   1.389759 A    
C8    C28   1.393878 A    
C46   O17   1.337955 A    
C14   C16   1.418034 A    
C19   C21   1.415073 A    
C40   H6    1.080674 S    
C20   C22   1.415036 A    
C18   C26   1.422654 A    
O7    V1    2.022205 S    
O19   V4    1.815839 S    
C12   F6    1.357171 S    
C58   O40   1.382730 S    
C49   O21   1.222218 D    
C1    O8    1.318378 A    
C9    C11   1.386799 A    
C15   C17   1.429462 A    
C17   C31   1.441598 A    
O9    V2    1.816442 S    
C55   O33   1.222147 D    
C51   O26   1.394443 S    
O12   C48   1.348599 A    
O10   V1    1.816445 S    
C36   C52   1.477826 S    
C5    C21   1.423977 A    
O26   H9    1.012536 S    
C57   O37   1.221946 D    
C6    C22   1.423927 A    
O11   V4    2.010599 S    
