data_mof_unit_3155.cif
_audit_creation_date              2013-03-05T16:03:51-0500
_audit_creation_method            fapswitch 2.2
_symmetry_space_group_name_H-M    P1
_symmetry_Int_Tables_number       1
_space_group_crystal_system       triclinic
_cell_length_a                    6.939498
_cell_length_b                    17.666734
_cell_length_c                    19.447436
_cell_angle_alpha                 109.065403
_cell_angle_beta                  90.728741
_cell_angle_gamma                 90.636097
_cell_volume                      2252.96269947

loop_
_atom_site_label
_atom_site_type_symbol
_atom_site_description
_atom_site_fract_x
_atom_site_fract_y
_atom_site_fract_z
_atom_type_partial_charge
O1    O     O_R   0.505700 0.440210 0.561730 -0.606673
O2    O     O_R   0.169350 0.406300 0.412660 -0.556307
O3    O     O_R   0.005650 0.559790 0.438270 -0.517638
C1    C     C_R   0.336430 0.384679 0.383497 0.987772
O4    O     O_R   0.175560 0.430650 0.559600 -0.611093
O5    O     O_R   0.011900 0.584320 0.586250 -0.580259
C2    C     C_R   0.345015 0.415353 0.581062 0.923227
O6    O     O_R   0.499450 0.415680 0.413750 -0.595851
O7    O     O_3   0.341370 0.550390 0.508570 -0.230473
V1    V     V_3+5 0.063940 0.490650 0.498410 1.256089
O8    O     O_R   0.682570 0.593700 0.587340 -0.601136
C3    C     C_R   0.852871 0.616617 0.614889 0.937347
O9    O     O_R   0.676370 0.569350 0.440400 -0.590639
C4    C     C_R   0.845926 0.587021 0.421276 1.049289
V2    V     V_3+5 0.564750 0.509350 0.501590 1.233524
O10   O     O_3   0.837190 0.449610 0.491430 -0.286576
C5    C     C_R   0.027054 0.735317 0.329897 -0.239141
H1    H     H_    0.146287 0.776857 0.334505 0.151635
C6    C     C_R   0.016569 0.692557 0.379460 0.420652
C7    C     C_R   0.858342 0.639165 0.374890 -0.290059
C8    C     C_R   0.714229 0.632040 0.321739 -0.058375
H2    H     H_    0.594880 0.590624 0.316123 0.186435
C9    C     C_R   0.725351 0.675695 0.273536 -0.130005
H3    H     H_    0.612651 0.667329 0.232582 0.116057
C10   C     C_R   0.882309 0.727668 0.276773 0.040040
C11   C     C_R   0.727873 0.807979 0.205825 -0.151444
H4    H     H_    0.589123 0.800437 0.227811 0.108799
C12   C     C_R   0.738955 0.853072 0.158729 -0.154764
H5    H     H_    0.607771 0.878247 0.145343 0.126483
C13   C     C_R   0.916797 0.866296 0.130137 -0.122088
C14   C     C_R   0.083245 0.832920 0.149790 -0.170404
H6    H     H_    0.222516 0.841651 0.128783 0.127972
C15   C     C_R   0.072003 0.787614 0.196831 -0.149478
H7    H     H_    0.202619 0.761994 0.210101 0.109872
C16   C     C_R   0.894184 0.774709 0.225624 0.153409
H8    H     H_    0.009921 0.629859 0.932786 0.116963
C17   C     C_R   0.863518 0.908797 0.746807 -0.321160
C18   C     C_R   0.831786 0.923704 0.681030 0.358491
C19   C     C_R   0.798814 0.858864 0.617381 -0.169836
C20   C     C_R   0.805349 0.780540 0.618620 -0.121162
C21   C     C_R   0.846236 0.764388 0.683739 0.107795
C22   C     C_R   0.870318 0.829725 0.749438 0.079772
C23   C     C_R   0.866944 0.684730 0.683967 -0.281579
C24   C     C_R   0.907095 0.670328 0.750236 0.113321
C25   C     C_R   0.924607 0.735622 0.816435 0.110894
C26   C     C_R   0.905042 0.815233 0.816032 -0.276936
C27   C     C_R   0.927853 0.591407 0.752139 -0.171223
C28   C     C_R   0.965264 0.577333 0.817448 -0.112946
C29   C     C_R   0.981556 0.641115 0.882147 -0.103269
C30   C     C_R   0.961135 0.719459 0.881997 -0.159641
H9    H     H_    0.885897 0.959603 0.795729 0.163736
H10   H     H_    0.771436 0.868569 0.565992 0.181679
H11   H     H_    0.780648 0.732814 0.567626 0.140061
H12   H     H_    0.914570 0.539767 0.703373 0.100760
H13   H     H_    0.980949 0.516568 0.817854 0.114518
H14   H     H_    0.974422 0.767029 0.933745 0.095181
H15   H     H_    0.369862 0.477421 0.167377 0.151713
C31   C     C_R   0.328207 0.220325 0.382053 -0.166076
C32   C     C_R   0.333637 0.142265 0.384155 -0.066390
C33   C     C_R   0.365650 0.078590 0.321000 -0.102362
C34   C     C_R   0.393914 0.092493 0.255303 -0.176885
C35   C     C_R   0.390032 0.171060 0.251466 0.125968
C36   C     C_R   0.354671 0.236378 0.316084 0.114271
C37   C     C_R   0.425005 0.185115 0.184972 -0.281378
C38   C     C_R   0.423414 0.264622 0.183291 0.112926
C39   C     C_R   0.366737 0.329128 0.245699 -0.026406
C40   C     C_R   0.344219 0.315750 0.313768 -0.277655
C41   C     C_R   0.473929 0.280909 0.119334 -0.159568
C42   C     C_R   0.464612 0.358078 0.115817 -0.161029
C43   C     C_R   0.391909 0.419426 0.173674 -0.188024
C44   C     C_R   0.333922 0.405149 0.237129 0.316238
H16   H     H_    0.301186 0.267691 0.432540 0.099039
H17   H     H_    0.312358 0.131130 0.435090 0.144668
H18   H     H_    0.369646 0.018079 0.322959 0.128601
H19   H     H_    0.421079 0.041144 0.207827 0.103320
H20   H     H_    0.523214 0.234328 0.071623 0.109730
H21   H     H_    0.505052 0.369524 0.066489 0.136614
C45   C     C_R   0.542934 0.278809 0.681426 0.348756
C46   C     C_R   0.525589 0.323684 0.633577 -0.275680
H22   H     H_    0.645831 0.326406 0.599432 0.175188
C47   C     C_R   0.357189 0.366002 0.630163 -0.167912
C48   C     C_R   0.204654 0.363177 0.675986 -0.117060
H23   H     H_    0.073907 0.395899 0.675421 0.123529
C49   C     C_R   0.220501 0.319539 0.724320 -0.080697
H24   H     H_    0.101217 0.319528 0.759521 0.173550
C50   C     C_R   0.386748 0.275650 0.727022 -0.088023
C51   C     C_R   0.347336 0.259416 0.850365 -0.095552
H25   H     H_    0.307149 0.321662 0.872426 0.102851
C52   C     C_R   0.358286 0.213361 0.896977 -0.145997
H26   H     H_    0.324352 0.240537 0.953888 0.105760
C53   C     C_R   0.415330 0.133174 0.870478 -0.123779
C54   C     C_R   0.454869 0.098869 0.796300 -0.090330
H27   H     H_    0.494882 0.036560 0.774579 0.110058
C55   C     C_R   0.441169 0.144478 0.749459 0.082995
H28   H     H_    0.471280 0.116492 0.692316 0.146228
C56   C     C_R   0.391632 0.225858 0.776229 0.136944
O11   O     O_R   0.273230 0.084330 0.086440 -0.585082
O12   O     O_R   0.596660 0.069390 0.940470 -0.586625
O13   O     O_R   0.760270 0.915710 0.913690 -0.588539
C57   C     C_R   0.427133 0.084467 0.919311 0.921917
O14   O     O_R   0.603330 0.093680 0.087390 -0.590150
O15   O     O_R   0.766990 0.940160 0.061660 -0.599844
C58   C     C_R   0.435784 0.116306 0.115667 0.929729
O16   O     O_R   0.266510 0.059870 0.938470 -0.580709
O17   O     O_3   0.431050 0.949630 0.991510 -0.279007
V3    V     V_3+5 0.708490 0.009340 0.001580 1.175682
O18   O     O_R   0.096270 0.930570 0.059390 -0.604862
C59   C     C_R   0.927686 0.915446 0.081006 0.916307
O19   O     O_R   0.089600 0.906290 0.912460 -0.590141
C60   C     C_R   0.919204 0.883338 0.885059 0.948995
V4    V     V_3+5 0.207670 0.990600 0.998190 1.170418
O20   O     O_3   0.935250 0.050360 0.008480 -0.262465
N1    N     N_R   0.835886 0.004401 0.678823 0.231751
O21   O     O_R   0.788571 0.018982 0.619447 -0.374241
O22   O     O_R   0.895002 0.063625 0.735191 -0.375021
N2    N     N_R   0.165563 0.705621 0.434426 0.244360
O23   O     O_R   0.121809 0.714343 0.501374 -0.435161
O24   O     O_R   0.341696 0.720893 0.420178 -0.395790
N3    N     N_R   0.211778 0.462805 0.285283 0.212144
O25   O     O_R   0.035743 0.441518 0.293478 -0.421492
O26   O     O_R   0.254381 0.538677 0.303117 -0.448356
N4    N     N_R   0.722194 0.239875 0.684868 0.229570
O27   O     O_R   0.789438 0.237105 0.746744 -0.401857
O28   O     O_R   0.829887 0.215325 0.627757 -0.371293

loop_
_geom_bond_atom_site_label_1
_geom_bond_atom_site_label_2
_geom_bond_distance
_ccdc_geom_bond_type
C37   C58   1.494716 S    
C51   H25   1.082955 S    
C28   H13   1.082802 S    
C21   C22   1.421120 A    
C42   H21   1.082698 S    
V4    O20   2.155094 S    
C1    O6    1.297956 A    
C47   C48   1.403194 A    
V3    O20   1.710316 S    
C25   C26   1.417050 A    
C34   H19   1.082587 S    
C11   H4    1.082825 S    
C35   C36   1.427504 A    
C6    N2    1.438876 S    
C12   H5    1.083008 S    
C49   C50   1.407069 A    
C3    C23   1.483309 S    
C42   C43   1.387483 A    
O19   V4    1.996335 S    
O5    C3    1.294475 A    
C18   C19   1.399051 A    
C17   H9    1.081756 S    
V2    O10   2.155194 S    
C57   O16   1.294479 A    
N2    O23   1.300417 A    
C22   C26   1.418076 A    
C17   C22   1.415759 A    
C35   C37   1.417454 A    
C5    C6    1.407578 A    
O8    V2    1.996219 S    
C27   C28   1.393461 A    
C41   C42   1.389344 A    
C9    H3    1.082818 S    
C14   C15   1.400882 A    
O15   C59   1.297378 A    
C43   C44   1.400771 A    
O1    V2    1.990527 S    
H15   C43   1.083117 S    
C52   C53   1.403519 A    
O7    V1    2.160647 S    
C32   H17   1.082633 S    
C24   C27   1.415681 A    
C45   C50   1.421110 A    
C9    C10   1.404178 A    
C39   C40   1.428797 A    
O17   V4    1.706554 S    
C32   C33   1.390388 A    
O14   C58   1.302690 A    
O9    C4    1.303485 A    
C21   C23   1.417648 A    
C55   H28   1.082734 S    
C11   C12   1.398767 A    
C5    H1    1.083008 S    
N3    O26   1.299709 A    
C8    C9    1.397268 A    
C36   C40   1.420229 A    
C4    C7    1.487591 S    
C49   H24   1.080901 S    
C19   C20   1.393007 A    
O4    C2    1.303193 A    
C18   N1    1.440227 S    
C45   C46   1.410716 A    
C31   C32   1.393853 A    
O13   C60   1.294271 A    
C30   H14   1.082101 S    
C19   H10   1.082639 S    
C33   C34   1.393379 A    
O2    C1    1.302660 A    
C23   C24   1.417726 A    
C17   C18   1.403007 A    
C1    C40   1.499742 S    
C39   C44   1.426680 A    
O18   C59   1.302186 A    
C38   C41   1.412561 A    
C51   C56   1.407669 A    
C54   C55   1.402557 A    
C15   H7    1.082814 S    
N3    O25   1.301173 A    
C55   C56   1.408120 A    
O11   C58   1.294002 A    
O3    C4    1.294456 A    
C50   C56   1.496824 S    
C10   C16   1.492511 S    
C27   H12   1.082070 S    
C20   C21   1.412243 A    
C2    C47   1.490845 S    
C48   H23   1.083087 S    
O6    V2    1.994711 S    
C48   C49   1.400953 A    
O9    V2    1.992219 S    
C53   C57   1.477328 S    
N4    O28   1.301476 A    
O2    V1    1.992097 S    
C53   C54   1.402214 A    
C24   C25   1.423216 A    
C46   C47   1.406718 A    
N1    O21   1.301562 A    
O14   V3    1.992040 S    
O13   V3    1.992117 S    
C28   C29   1.390306 A    
C13   C59   1.488293 S    
O1    C2    1.298159 A    
O18   V4    1.992159 S    
C14   H6    1.082897 S    
C31   C36   1.415122 A    
O5    V1    1.992296 S    
O16   V4    1.985620 S    
O8    C3    1.295835 A    
C20   H11   1.081656 S    
N4    O27   1.301088 A    
C41   H20   1.081955 S    
O17   V3    2.160611 S    
O12   C57   1.300191 A    
O12   V3    1.989620 S    
C44   N3    1.431492 S    
C5    C10   1.404958 A    
C37   C38   1.415810 A    
C6    C7    1.422341 A    
C12   C13   1.408108 A    
O7    V2    1.706772 S    
O4    V1    1.989601 S    
C26   C60   1.482629 S    
V1    O10   1.710278 S    
O19   C60   1.295672 A    
C31   H16   1.082051 S    
C13   C14   1.406785 A    
C25   C30   1.415162 A    
O11   V4    2.000317 S    
C33   H18   1.082709 S    
C54   H27   1.083179 S    
C15   C16   1.408165 A    
N2    O24   1.301410 A    
O15   V3    1.988859 S    
C38   C39   1.430015 A    
C34   C35   1.414681 A    
C45   N4    1.439454 S    
C46   H22   1.083316 S    
C11   C16   1.406170 A    
C7    C8    1.403689 A    
C29   C30   1.393840 A    
O3    V1    1.988909 S    
C51   C52   1.403916 A    
C52   H26   1.082998 S    
C8    H2    1.079477 S    
H8    C29   1.082584 S    
N1    O22   1.301705 A    
