data_mof_unit_2801.cif
_audit_creation_date              2012-12-10T17:50:47-0500
_audit_creation_method            fapswitch 2.2
_symmetry_space_group_name_H-M    P1
_symmetry_Int_Tables_number       1
_space_group_crystal_system       triclinic
_cell_length_a                    14.70582
_cell_length_b                    14.646884
_cell_length_c                    15.850505
_cell_angle_alpha                 76.80752
_cell_angle_beta                  102.960693
_cell_angle_gamma                 114.986375
_cell_volume                      2981.10728697

loop_
_atom_site_label
_atom_site_type_symbol
_atom_type_description
_atom_site_fract_x
_atom_site_fract_y
_atom_site_fract_z
_atom_type_partial_charge
C1    C     C_R   0.880190 0.311843 0.514017 0.802793
C2    C     C_R   0.359364 0.923584 0.462641 0.067940
C3    C     C_R   0.678765 0.999690 0.507795 0.110809
C4    C     C_R   0.320205 0.000933 0.432420 0.112726
C5    C     C_R   0.533534 0.052454 0.469279 0.077674
C6    C     C_R   0.465743 0.948906 0.474193 0.078188
C7    C     C_R   0.506158 0.873880 0.487504 -0.219704
C8    C     C_R   0.492832 0.128003 0.439693 -0.218889
C9    C     C_R   0.609863 0.898850 0.502798 -0.242345
C10   C     C_R   0.389062 0.102726 0.420615 -0.240514
C11   C     C_R   0.717189 0.671408 0.357170 -0.329495
C12   C     C_R   0.119759 0.688077 0.483919 0.805497
C13   C     C_R   0.284477 0.331093 0.645018 -0.324490
C14   C     C_R   0.797941 0.640485 0.379094 0.073299
C15   C     C_R   0.202885 0.360745 0.621996 0.074254
C16   C     C_R   0.999831 0.500049 0.660070 0.830402
C17   C     C_R   0.000070 0.499776 0.339951 0.829152
C18   C     C_R   0.714669 0.508887 0.488026 0.006636
C19   C     C_R   0.285473 0.491386 0.512143 0.006267
C20   C     C_R   0.629364 0.536120 0.468537 -0.023010
C21   C     C_R   0.371723 0.465598 0.532884 -0.024158
C22   C     C_R   0.632851 0.619769 0.401646 0.167042
C23   C     C_R   0.785377 0.024784 0.528216 0.096450
C24   C     C_R   0.368835 0.382821 0.600575 0.166274
C25   C     C_R   0.541944 0.484468 0.512888 0.074695
C26   C     C_R   0.459487 0.517776 0.488994 0.077762
C27   C     C_R   0.467827 0.602299 0.422426 -0.242843
C28   C     C_R   0.534163 0.400765 0.580237 -0.236767
C29   C     C_R   0.552662 0.651878 0.379817 -0.209691
C30   C     C_R   0.449650 0.351646 0.623260 -0.200242
C31   C     C_3   0.923604 0.413596 0.030242 -0.198964
C32   C     C_3   0.075467 0.584280 0.970074 -0.199133
C33   C     C_3   0.911400 0.496923 0.954391 0.149087
C34   C     C_R   0.213362 0.974681 0.414621 0.097525
C35   C     C_3   0.087658 0.500945 0.045910 0.149229
C36   C     C_1   0.999661 0.500008 0.749755 -0.185277
C37   C     C_1   0.999861 0.499099 0.250353 -0.183057
C38   C     C_3   0.013323 0.415949 0.992224 -0.201270
C39   C     C_3   0.985735 0.581927 0.008055 -0.201048
C40   C     C_3   0.000101 0.499268 0.917274 0.133245
C41   C     C_3   0.998966 0.498633 0.083011 0.133033
C42   C     C_1   0.999987 0.499729 0.825451 -0.079864
C43   C     C_1   0.999263 0.498709 0.174750 -0.078881
C44   C     C_R   0.812585 0.203421 0.516574 -0.092594
C45   C     C_R   0.850878 0.127744 0.530660 -0.202886
C46   C     C_R   0.187094 0.796315 0.467409 -0.091038
C47   C     C_3   0.811236 0.494620 0.898920 -0.412848
C48   C     C_3   0.737708 0.492034 0.955100 -0.347963
C49   C     C_3   0.637825 0.489548 0.899241 -0.837256
C50   C     C_3   0.187722 0.503050 0.101464 -0.412700
C51   C     C_3   0.261125 0.505143 0.045412 -0.348320
C52   C     C_3   0.360803 0.507156 0.101394 -0.837982
C53   C     C_3   0.826912 0.941350 0.546412 -0.414553
C54   C     C_3   0.942161 0.975050 0.573788 -0.372525
C55   C     C_3   0.973240 0.884386 0.591785 -0.833823
C56   C     C_R   0.148299 0.871408 0.432113 -0.204890
C57   C     C_3   0.171123 0.057181 0.377133 -0.414201
C58   C     C_3   0.055523 0.020005 0.350420 -0.370709
C59   C     C_3   0.023187 0.109464 0.314524 -0.843980
C60   C     C_R   0.708319 0.177094 0.500585 -0.258733
C61   C     C_R   0.291418 0.823034 0.483367 -0.265425
C62   C     C_R   0.639923 0.077147 0.491792 0.069123
Cu1   Cu    Cu3+1 0.081740 0.475690 0.522610 0.932413
Cu2   Cu    Cu3+1 0.918260 0.524310 0.477390 0.932050
H1    H     H_    0.279894 0.551566 0.460462 0.123311
H2    H     H_    0.137989 0.653677 0.944496 0.132395
H3    H     H_    0.973682 0.649351 0.015615 0.131353
H4    H     H_    0.025358 0.348515 0.984665 0.130916
H5    H     H_    0.634691 0.837149 0.511304 0.151127
H6    H     H_    0.364079 0.164943 0.397838 0.144439
H7    H     H_    0.318604 0.764031 0.514740 0.159170
H8    H     H_    0.681921 0.236365 0.496664 0.153765
H9    H     H_    0.067002 0.848025 0.418883 0.146010
H10   H     H_    0.932120 0.150440 0.543361 0.149203
H11   H     H_    0.459186 0.794853 0.482803 0.142388
H12   H     H_    0.719645 0.447744 0.538831 0.122257
H13   H     H_    0.539306 0.208096 0.426781 0.145729
H14   H     H_    0.555539 0.716416 0.329126 0.141866
H15   H     H_    0.447387 0.288002 0.674793 0.139050
H16   H     H_    0.651297 0.558581 0.848771 0.255032
H17   H     H_    0.600829 0.420580 0.866484 0.253149
H18   H     H_    0.585984 0.487616 0.941512 0.239177
H19   H     H_    0.721892 0.423270 0.006047 0.219090
H20   H     H_    0.772198 0.560677 0.988292 0.218367
H21   H     H_    0.827184 0.563467 0.848077 0.200014
H22   H     H_    0.776722 0.426001 0.865721 0.197829
H23   H     H_    0.137386 0.320421 0.655799 0.123092
H24   H     H_    0.398064 0.576120 0.134157 0.254070
H25   H     H_    0.346985 0.438097 0.151865 0.253758
H26   H     H_    0.412569 0.508755 0.059214 0.239253
H27   H     H_    0.226369 0.436472 0.012244 0.218016
H28   H     H_    0.277257 0.573897 0.994449 0.219257
H29   H     H_    0.222437 0.571770 0.134540 0.198408
H30   H     H_    0.171575 0.434286 0.152404 0.200023
H31   H     H_    0.938771 0.829089 0.648027 0.254225
H32   H     H_    0.948450 0.845282 0.533317 0.250643
H33   H     H_    0.057034 0.911386 0.607866 0.244296
H34   H     H_    0.863557 0.680949 0.345447 0.120850
H35   H     H_    0.982485 0.031523 0.520828 0.222971
H36   H     H_    0.965831 0.010505 0.634314 0.219234
H37   H     H_    0.789979 0.882784 0.600151 0.201091
H38   H     H_    0.805333 0.905224 0.486423 0.198776
H39   H     H_    0.045274 0.159544 0.365034 0.254372
H40   H     H_    0.059037 0.154652 0.255536 0.252207
H41   H     H_    0.939531 0.080320 0.296071 0.242091
H42   H     H_    0.030887 0.970313 0.299162 0.217338
H43   H     H_    0.016569 0.976042 0.407881 0.226104
H44   H     H_    0.194383 0.108985 0.426505 0.200938
H45   H     H_    0.720891 0.735694 0.306033 0.134974
H46   H     H_    0.206042 0.101779 0.317489 0.197279
H47   H     H_    0.281422 0.267717 0.696991 0.135077
H48   H     H_    0.410002 0.632775 0.401684 0.130009
H49   H     H_    0.592442 0.370950 0.601693 0.131385
H50   H     H_    0.861116 0.344191 0.055857 0.132690
N1    N     N_R   0.795440 0.560790 0.443380 -0.174591
N2    N     N_R   0.204560 0.439210 0.556620 -0.175642
O1    O     O_R   0.977900 0.338120 0.529810 -0.592016
O2    O     O_R   0.022100 0.661880 0.470190 -0.592139
O3    O     O_R   0.839850 0.379180 0.491620 -0.587912
O4    O     O_R   0.160150 0.620820 0.508380 -0.588032
O5    O     O_R   0.069010 0.479460 0.640020 -0.576194
O6    O     O_R   0.930990 0.520540 0.359980 -0.576380
O7    O     O_R   0.930960 0.520530 0.601820 -0.577652
O8    O     O_R   0.069040 0.479470 0.398180 -0.579009

loop_
_geom_bond_atom_site_label_1
_geom_bond_atom_site_label_2
_ccdc_geom_bond_type
C21   C26   A    
C34   C56   A    
C23   C45   A    
C22   C29   A    
C11   H45   S    
C36   C42   T    
Cu1   O8    S    
C39   C41   S    
C53   C54   S    
C25   C28   A    
C26   C27   A    
C33   C39   S    
Cu2   O3    S    
C59   H40   S    
C47   H21   S    
C15   H23   S    
C19   C21   A    
C16   O7    A    
C9    H5    S    
C5    C6    A    
Cu1   O1    S    
C11   C14   A    
C27   C29   A    
C20   C25   A    
C60   H8    S    
C14   N1    A    
Cu2   O2    S    
C60   C62   A    
C58   H43   S    
C1    O3    A    
C32   C39   S    
C49   H17   S    
C3    C23   A    
C1    C44   S    
C51   H27   S    
C12   O4    A    
C52   H26   S    
C29   H14   S    
C47   C48   S    
C53   H37   S    
C34   C57   S    
C31   C33   S    
C14   H34   S    
C31   H50   S    
C2    C61   A    
C61   H7    S    
C40   C42   S    
Cu2   N1    S    
C41   C43   S    
C54   H36   S    
C52   H25   S    
C2    C6    A    
Cu1   O5    S    
C23   C53   S    
C4    C34   A    
C33   C40   S    
C46   C61   A    
C51   C52   S    
C32   C35   S    
C52   H24   S    
C35   C38   S    
C12   C46   S    
C50   H30   S    
C7    H11   S    
C25   C26   A    
C48   H20   S    
C13   C24   A    
C45   H10   S    
C58   H42   S    
C49   H18   S    
C37   C43   T    
C2    C4    A    
C16   O5    A    
C47   H22   S    
C3    C9    A    
C51   H28   S    
C17   O8    A    
C57   H46   S    
C53   H38   S    
C55   H33   S    
C35   C50   S    
C50   C51   S    
C59   H41   S    
C12   O2    A    
Cu1   N2    S    
C10   H6    S    
C55   H31   S    
C48   C49   S    
C20   C22   A    
C27   H48   S    
C13   C15   A    
C8    H13   S    
C33   C47   S    
C54   H35   S    
C30   H15   S    
C4    C10   A    
C44   C45   A    
C32   H2    S    
C3    C62   A    
C7    C9    A    
C54   C55   S    
C18   H12   S    
C56   H9    S    
C31   C41   S    
C39   H3    S    
C38   H4    S    
C55   H32   S    
C18   N1    A    
C5    C8    A    
C48   H19   S    
C50   H29   S    
C6    C7    A    
C17   C37   S    
Cu2   O7    S    
C11   C22   A    
C49   H16   S    
C59   H39   S    
C31   C38   S    
C28   C30   A    
C58   C59   S    
C13   H47   S    
C16   C36   S    
C38   C40   S    
Cu1   O4    S    
C57   C58   S    
C19   N2    A    
C44   C60   A    
Cu2   O6    S    
C5    C62   A    
C19   H1    S    
C18   C20   A    
C32   C40   S    
C35   C41   S    
C24   C30   A    
C28   H49   S    
Cu1   Cu2   S    
C17   O6    A    
C57   H44   S    
C8    C10   A    
C21   C24   A    
C46   C56   A    
C15   N2    A    
C1    O1    A    
