data_mof_unit_2536.cif
_audit_creation_date              2012-12-10T20:26:30-0500
_audit_creation_method            fapswitch 2.2
_symmetry_space_group_name_H-M    P1
_symmetry_Int_Tables_number       1
_space_group_crystal_system       triclinic
_cell_length_a                    10.735849
_cell_length_b                    10.706514
_cell_length_c                    9.901328
_cell_angle_alpha                 89.363816
_cell_angle_beta                  89.847671
_cell_angle_gamma                 90.322025
_cell_volume                      1138.00112563

loop_
_atom_site_label
_atom_site_type_symbol
_atom_type_description
_atom_site_fract_x
_atom_site_fract_y
_atom_site_fract_z
_atom_type_partial_charge
C1    C     C_R   0.502892 0.260097 0.500541 0.980713
C2    C     C_R   0.607916 0.511701 0.071278 -0.108554
C3    C     C_R   0.607967 0.511319 0.927780 -0.082707
C4    C     C_R   0.262624 0.496430 0.500406 0.977163
C5    C     C_R   0.390491 0.499688 0.929033 0.268220
C6    C     C_3   0.289951 0.402442 0.923458 -0.311778
C7    C     C_3   0.291201 0.399356 0.077295 -0.318297
C8    C     C_R   0.503802 0.739742 0.499360 0.883325
C9    C     C_R   0.737132 0.495017 0.499542 0.964153
C10   C     C_2   0.935459 0.449680 0.393178 0.010197
C11   C     C_2   0.869314 0.495468 0.496985 -0.345019
C12   C     C_R   0.518353 0.128374 0.501213 -0.077377
C13   C     C_2   0.066280 0.479397 0.389369 -0.247078
C14   C     C_2   0.132161 0.473036 0.502532 -0.234289
C15   C     C_R   0.514321 0.061073 0.622457 0.184534
C16   C     C_2   0.886234 0.370027 0.283108 0.482936
C17   C     C_2   0.487689 0.112633 0.869300 0.328707
C18   C     C_2   0.167669 0.449451 0.868989 0.425294
C19   C     C_2   0.334538 0.277542 0.136749 0.483790
C20   C     C_2   0.297127 0.107725 0.722518 0.357342
C21   C     C_R   0.544921 0.066344 0.380129 -0.144426
C22   C     C_R   0.545759 0.937027 0.379012 -0.214825
C23   C     C_R   0.521621 0.871098 0.499354 -0.084367
C24   C     C_R   0.518433 0.934005 0.621216 0.081485
C25   C     C_3   0.434415 0.918649 0.740741 -0.582587
C26   C     C_3   0.428448 0.061076 0.743815 -0.040034
C27   C     C_R   0.390715 0.497744 0.071401 0.106779
H1    H     H_    0.695385 0.519688 0.124276 0.154707
H2    H     H_    0.913397 0.547864 0.577448 0.151461
H3    H     H_    0.107551 0.507119 0.294056 0.161511
H4    H     H_    0.090559 0.442354 0.597386 0.166560
H5    H     H_    0.557727 0.116601 0.285534 0.186378
H6    H     H_    0.557863 0.889677 0.283783 0.174776
H7    H     H_    0.483855 0.874727 0.827602 0.205630
H8    H     H_    0.229587 0.096726 0.803604 0.065568
H9    H     H_    0.345205 0.871428 0.714319 0.223193
H10   H     H_    0.933977 0.369006 0.186329 0.042430
H11   H     H_    0.455564 0.079507 0.967305 0.051512
H12   H     H_    0.695542 0.518608 0.874142 0.159394
H13   H     H_    0.090697 0.384324 0.857965 0.065840
H14   H     H_    0.321859 0.315978 0.873989 0.139385
H15   H     H_    0.203850 0.433396 0.122800 0.171719
H16   H     H_    0.427519 0.243989 0.115601 0.073725
N1    N     N_R   0.499170 0.499140 0.142800 -0.122393
N2    N     N_R   0.499170 0.499180 0.857150 -0.115584
O1    O     O_R   0.500020 0.316790 0.614690 -0.586404
O2    O     O_2   0.571252 0.190338 0.862748 -0.548418
O3    O     O_2   0.152790 0.559420 0.839260 -0.573786
O4    O     O_2   0.265966 0.216651 0.211029 -0.551049
O5    O     O_2   0.264619 0.156446 0.616383 -0.558424
O6    O     O_R   0.500000 0.316760 0.385350 -0.611138
O7    O     O_R   0.319080 0.500020 0.614640 -0.597333
O8    O     O_R   0.319070 0.499980 0.385300 -0.617480
O9    O     O_R   0.500000 0.683240 0.614650 -0.615986
O10   O     O_R   0.499980 0.683210 0.385310 -0.629958
O11   O     O_R   0.680930 0.500020 0.614700 -0.633699
O12   O     O_R   0.680920 0.499980 0.385360 -0.603206
O13   O     O_2   0.797975 0.299376 0.301570 -0.566243
Zn1   Zn    Zn3+2 0.500010 0.500020 0.653130 1.006669
Zn2   Zn    Zn3+2 0.499990 0.499980 0.346870 0.987345

loop_
_geom_bond_atom_site_label_1
_geom_bond_atom_site_label_2
_ccdc_geom_bond_type
C20   O5    D    
C23   C24   A    
O11   Zn1   S    
C6    C7    S    
O7    Zn1   S    
O1    Zn1   S    
C19   H16   S    
C9    C11   S    
C19   O4    D    
C7    C19   S    
C12   C15   A    
C5    C27   A    
C25   H7    S    
O9    Zn1   S    
C6    H14   S    
C2    C3    A    
C3    H12   S    
C18   O3    D    
C9    O11   A    
C16   O13   D    
C13   C14   D    
C1    O6    A    
C1    C12   S    
C20   C26   S    
N1    Zn2   S    
C17   C26   S    
C12   C21   A    
C8    O10   A    
C21   C22   A    
C15   C24   A    
O8    Zn2   S    
C4    O7    A    
C9    O12   A    
C17   H11   S    
C4    C14   S    
C5    C6    S    
C6    C18   S    
C21   H5    S    
C1    O1    A    
C4    O8    A    
C10   C11   D    
C25   H9    S    
C13   H3    S    
C8    C23   S    
C7    C27   S    
C24   C25   S    
C11   H2    S    
C7    H15   S    
C8    O9    A    
C10   C16   S    
C14   H4    S    
C18   H13   S    
C22   C23   A    
N2    Zn1   S    
C15   C26   S    
C2    H1    S    
O6    Zn2   S    
C25   C26   S    
O10   Zn2   S    
C20   H8    S    
C5    N2    A    
C27   N1    A    
C3    N2    A    
C17   O2    D    
C16   H10   S    
C2    N1    A    
O12   Zn2   S    
C10   C13   S    
C22   H6    S    
