data_mof_unit_299.cif
_audit_creation_date              2012-12-10T18:31:59-0500
_audit_creation_method            fapswitch 2.2
_symmetry_space_group_name_H-M    P1
_symmetry_Int_Tables_number       1
_space_group_crystal_system       triclinic
_cell_length_a                    10.634604
_cell_length_b                    14.927641
_cell_length_c                    15.479621
_cell_angle_alpha                 82.292166
_cell_angle_beta                  89.642125
_cell_angle_gamma                 104.027486
_cell_volume                      2360.64163853

loop_
_atom_site_label
_atom_site_type_symbol
_atom_type_description
_atom_site_fract_x
_atom_site_fract_y
_atom_site_fract_z
_atom_type_partial_charge
C1    C     C_R   0.484928 0.441848 0.662171 0.863937
C2    C     C_R   0.558681 0.446498 0.897736 0.092042
C3    C     C_R   0.528486 0.350018 0.930087 0.177065
C4    C     C_R   0.742133 0.500181 0.500029 0.825532
C5    C     C_R   0.598472 0.513599 0.954902 0.070131
C6    C     C_R   0.582989 0.483699 0.045562 0.070342
C7    C     C_R   0.559077 0.387115 0.076392 -0.234561
C8    C     C_R   0.534937 0.321442 0.018995 -0.238621
C9    C     C_R   0.650672 0.609504 0.924709 -0.230296
C10   C     C_R   0.672441 0.675164 0.982210 -0.230279
C11   C     C_R   0.637855 0.647556 0.070438 0.169682
C12   C     C_3   0.121040 0.498693 0.499729 0.165695
C13   C     C_R   0.590533 0.551569 0.102172 0.091325
C14   C     C_R   0.647719 0.714516 0.127325 -0.190734
C15   C     C_R   0.607748 0.686876 0.214927 -0.162197
C16   C     C_R   0.521514 0.558201 0.337734 0.869826
C17   C     C_R   0.543837 0.526363 0.188455 -0.266382
C18   C     C_R   0.704503 0.844103 0.630823 -0.323514
C19   C     C_R   0.664750 0.753213 0.612635 0.017010
C20   C     C_R   0.520613 0.796453 0.507819 -0.087981
C21   C     C_R   0.565606 0.891392 0.517261 -0.011841
C22   C     C_R   0.653729 0.913350 0.584091 0.198814
C23   C     C_3   0.099541 0.577765 0.429897 -0.384796
C24   C     C_R   0.520160 0.963708 0.466946 -0.029826
C25   C     C_R   0.542417 0.052274 0.497369 0.083008
C26   C     C_R   0.630305 0.071083 0.564703 -0.227153
C27   C     C_R   0.687933 0.003507 0.605111 -0.210929
C28   C     C_R   0.257836 0.499455 0.499908 0.833865
C29   C     C_R   0.454710 0.951936 0.387481 -0.035411
C30   C     C_R   0.386084 0.016538 0.353334 -0.195500
C31   C     C_R   0.394480 0.098427 0.388998 0.123183
C32   C     C_R   0.477065 0.119314 0.458830 -0.000846
C33   C     C_R   0.326893 0.162615 0.351535 -0.307115
C34   C     C_3   0.076387 0.514224 0.590950 -0.393136
C35   C     C_R   0.344475 0.247964 0.381826 0.014672
C36   C     C_R   0.490064 0.207182 0.486820 -0.058452
C37   C     C_3   0.896410 0.404322 0.478411 -0.381670
C38   C     C_3   0.039067 0.403847 0.478278 -0.395400
C39   C     C_3   0.955327 0.578376 0.430133 -0.397239
C40   C     C_3   0.932198 0.514910 0.591008 -0.406295
C41   C     C_3   0.878666 0.499652 0.499940 0.174196
C42   C     C_2   0.474169 0.883095 0.330873 0.356447
C43   C     C_R   0.495642 0.407591 0.754115 -0.063905
C44   C     C_R   0.554580 0.592414 0.245438 -0.069154
C45   C     C_R   0.488840 0.283591 0.873259 -0.204990
C46   C     C_R   0.473129 0.312303 0.785325 -0.205041
C47   C     C_R   0.538011 0.473370 0.810349 -0.269201
H1    H     H_    0.858209 0.391362 0.413179 0.181591
H2    H     H_    0.442376 0.260306 0.742235 0.157743
H3    H     H_    0.549671 0.546035 0.785718 0.161719
H4    H     H_    0.841796 0.346231 0.527586 0.171962
H5    H     H_    0.561227 0.360683 0.144664 0.151736
H6    H     H_    0.678402 0.635272 0.857025 0.140868
H7    H     H_    0.686057 0.787988 0.104047 0.140128
H8    H     H_    0.755558 0.020980 0.655953 0.139760
H9    H     H_    0.551786 0.230353 0.538295 0.121927
H10   H     H_    0.296501 0.299531 0.351422 0.127527
H11   H     H_    0.331909 0.005913 0.294857 0.184773
H12   H     H_    0.134204 0.581736 0.608254 0.184456
H13   H     H_    0.774102 0.860115 0.680809 0.140783
H14   H     H_    0.705716 0.699335 0.646471 0.124929
H15   H     H_    0.442291 0.771978 0.466349 0.138626
H16   H     H_    0.053086 0.345727 0.527450 0.180124
H17   H     H_    0.658470 0.137964 0.587250 0.129963
H18   H     H_    0.263930 0.147966 0.297730 0.144033
H19   H     H_    0.069478 0.390867 0.413018 0.174650
H20   H     H_    0.916867 0.568309 0.364456 0.162717
H21   H     H_    0.131446 0.567352 0.364121 0.164721
H22   H     H_    0.921032 0.582756 0.608109 0.177311
H23   H     H_    0.944657 0.647493 0.444022 0.184836
H24   H     H_    0.877030 0.458915 0.641733 0.159197
H25   H     H_    0.091589 0.457879 0.641636 0.158525
H26   H     H_    0.558803 0.854660 0.337677 0.060180
H27   H     H_    0.157945 0.646760 0.443439 0.189171
H28   H     H_    0.515404 0.248006 0.044735 0.149526
H29   H     H_    0.495494 0.454906 0.211931 0.161344
H30   H     H_    0.618924 0.738924 0.258521 0.158737
H31   H     H_    0.711640 0.748077 0.956980 0.145011
H32   H     H_    0.467782 0.209664 0.897144 0.138455
N1    N     N_R   0.573860 0.731700 0.552730 -0.097533
N2    N     N_R   0.426060 0.268290 0.447230 -0.099781
O1    O     O_R   0.462770 0.383110 0.605620 -0.617694
O2    O     O_R   0.510160 0.531900 0.639510 -0.620834
O3    O     O_R   0.661510 0.425600 0.483070 -0.628785
O4    O     O_R   0.708900 0.574390 0.516960 -0.626899
O5    O     O_R   0.489840 0.468100 0.360490 -0.622178
O6    O     O_R   0.537230 0.616890 0.394380 -0.614058
O7    O     O_R   0.291100 0.425610 0.483040 -0.627075
O8    O     O_R   0.338490 0.574400 0.516930 -0.621287
O9    O     O_2   0.397437 0.858613 0.275153 -0.577745
Zn1   Zn    Zn3+2 0.468350 0.400660 0.477370 0.928063
Zn2   Zn    Zn3+2 0.531650 0.599340 0.522630 0.934469

loop_
_geom_bond_atom_site_label_1
_geom_bond_atom_site_label_2
_ccdc_geom_bond_type
C40   H24   S    
C29   C42   S    
C35   N2    A    
C33   H18   S    
C7    C8    A    
C39   C41   S    
C15   H30   S    
C45   C46   A    
O2    Zn2   S    
C12   C23   S    
C26   C27   A    
C29   C30   A    
C12   C28   S    
C37   C41   S    
C34   C40   S    
C32   C36   A    
C15   C44   A    
O5    Zn1   S    
C5    C6    A    
C37   H4    S    
C11   C14   A    
C27   H8    S    
C4    C41   S    
C18   C19   A    
C26   H17   S    
C24   C29   A    
C1    C43   S    
C38   H19   S    
C4    O3    A    
C28   O7    A    
C17   H29   S    
C31   C33   A    
C28   O8    A    
O3    Zn1   S    
C9    C10   A    
C16   C44   S    
C25   C32   A    
C21   C22   A    
C16   O5    A    
O4    Zn2   S    
C47   H3    S    
C10   H31   S    
C40   H22   S    
C20   N1    A    
C24   C25   A    
C3    C8    A    
C4    O4    A    
C25   C26   A    
C3    C45   A    
C8    H28   S    
O1    Zn1   S    
C42   O9    D    
C23   H21   S    
N1    Zn2   S    
C5    C9    A    
C37   C38   S    
C36   H9    S    
C16   O6    A    
C31   C32   A    
C46   H2    S    
O7    Zn1   S    
C36   N2    A    
C45   H32   S    
O8    Zn2   S    
C18   H13   S    
C40   C41   S    
C14   H7    S    
C22   C27   A    
C34   H12   S    
C2    C5    A    
C9    H6    S    
C23   H27   S    
C12   C34   S    
C12   C38   S    
C34   H25   S    
C38   H16   S    
C42   H26   S    
C18   C22   A    
C39   H20   S    
C7    H5    S    
C6    C7    A    
C2    C47   A    
C1    O2    A    
C13   C17   A    
C35   H10   S    
C2    C3    A    
C1    O1    A    
C17   C44   A    
C6    C13   A    
C37   H1    S    
C11   C13   A    
C30   C31   A    
C19   H14   S    
C23   C39   S    
C30   H11   S    
C33   C35   A    
C39   H23   S    
C20   H15   S    
C19   N1    A    
C43   C46   A    
C10   C11   A    
N2    Zn1   S    
C20   C21   A    
C21   C24   A    
C14   C15   A    
O6    Zn2   S    
C43   C47   A    
