data_mof_unit_399.cif
_audit_creation_date              2012-12-11T17:36:10-0500
_audit_creation_method            fapswitch 2.2
_symmetry_space_group_name_H-M    P1
_symmetry_Int_Tables_number       1
_space_group_crystal_system       triclinic
_cell_length_a                    25.930488
_cell_length_b                    6.903119
_cell_length_c                    21.572727
_cell_angle_alpha                 90.000609
_cell_angle_beta                  96.143836
_cell_angle_gamma                 89.999685
_cell_volume                      3839.36562389

loop_
_atom_site_label
_atom_site_type_symbol
_atom_type_description
_atom_site_fract_x
_atom_site_fract_y
_atom_site_fract_z
_atom_type_partial_charge
O1    O     O_R   0.208650 0.594520 0.175450 -0.534372
O2    O     O_R   0.791350 0.405480 0.824550 -0.536681
O3    O     O_R   0.291350 0.094520 0.324550 -0.534375
O4    O     O_R   0.708650 0.905480 0.675450 -0.536688
O5    O     O_R   0.192980 0.260780 0.300160 -0.539706
O6    O     O_R   0.807020 0.739220 0.699840 -0.539783
O7    O     O_R   0.307020 0.760780 0.199840 -0.539705
O8    O     O_R   0.692980 0.239220 0.800160 -0.539783
C1    C     C_R   0.178612 0.433022 0.318105 0.689529
C2    C     C_R   0.821338 0.566601 0.681838 0.693487
C3    C     C_R   0.321389 0.933021 0.181895 0.689522
C4    C     C_R   0.678661 0.066602 0.818160 0.693560
O9    O     O_R   0.202550 0.264660 0.174420 -0.538603
O10   O     O_R   0.797450 0.735340 0.825580 -0.537462
O11   O     O_R   0.297450 0.764660 0.325580 -0.538601
O12   O     O_R   0.702550 0.235340 0.674420 -0.537472
O13   O     O_R   0.300990 0.096480 0.197920 -0.538792
O14   O     O_R   0.699010 0.903520 0.802080 -0.539586
O15   O     O_R   0.199010 0.596480 0.302080 -0.538792
O16   O     O_R   0.800990 0.403520 0.697920 -0.539596
C5    C     C_R   0.190862 0.433621 0.150998 0.698185
C6    C     C_R   0.808413 0.566793 0.849637 0.700395
C7    C     C_R   0.309138 0.933622 0.349002 0.698182
C8    C     C_R   0.691586 0.066792 0.650363 0.700413
O17   O     O_3   0.282290 0.427760 0.257860 -0.363096
O18   O     O_3   0.717710 0.572240 0.742140 -0.364359
O19   O     O_3   0.217710 0.927760 0.242140 -0.363095
O20   O     O_3   0.782290 0.072240 0.757860 -0.364349
V1    V     V_3+5 0.244010 0.152080 0.248540 1.407529
V2    V     V_3+5 0.755990 0.847920 0.751460 1.397543
V3    V     V_3+5 0.255990 0.652080 0.251460 1.407534
V4    V     V_3+5 0.744010 0.347920 0.748540 1.397531
C9    C     C_R   0.658636 0.060117 0.589698 -0.072923
C10   C     C_R   0.342681 0.941305 0.409128 -0.066933
C11   C     C_R   0.841363 0.560118 0.910302 -0.072916
C12   C     C_R   0.157319 0.441299 0.090871 -0.066936
C13   C     C_R   0.645801 0.111441 0.477820 -0.131524
C14   C     C_R   0.353690 0.937211 0.522182 -0.132871
C15   C     C_R   0.854195 0.611391 0.022184 -0.131581
C16   C     C_R   0.146310 0.437244 0.977818 -0.132872
C17   C     C_R   0.677553 0.125409 0.534348 0.043432
C18   C     C_R   0.320960 0.946825 0.466267 0.046561
C19   C     C_R   0.822447 0.625414 0.965654 0.043426
C20   C     C_R   0.179040 0.446838 0.033732 0.046572
C21   C     C_R   0.606651 0.997949 0.587604 -0.202680
C22   C     C_R   0.397074 0.941248 0.409415 -0.199514
C23   C     C_R   0.893348 0.497937 0.912394 -0.202666
C24   C     C_R   0.102926 0.441221 0.090585 -0.199510
C25   C     C_R   0.572516 0.001878 0.531131 0.045963
C26   C     C_R   0.430803 0.946900 0.466173 0.047499
C27   C     C_R   0.927482 0.501846 0.968868 0.045962
C28   C     C_R   0.069196 0.446879 0.033827 0.047497
C29   C     C_R   0.594071 0.050397 0.475549 -0.021303
C30   C     C_R   0.407845 0.935418 0.522765 -0.019163
C31   C     C_R   0.905925 0.550330 0.024453 -0.021296
C32   C     C_R   0.092155 0.435436 0.977234 -0.019164
C33   C     C_R   0.517603 0.966622 0.528031 -0.032499
C34   C     C_R   0.486181 0.968615 0.468927 -0.032419
C35   C     C_R   0.982396 0.466602 0.971968 -0.032504
C36   C     C_R   0.013817 0.468569 0.031073 -0.032416
C37   C     C_R   0.510820 0.003023 0.414833 -0.228278
C38   C     C_R   0.492637 0.940929 0.582354 -0.230351
C39   C     C_R   0.989175 0.502920 0.085169 -0.228290
C40   C     C_R   0.007364 0.440955 0.917644 -0.230352
C41   C     C_R   0.563386 0.045197 0.418128 0.604978
C42   C     C_R   0.439001 0.928138 0.579849 0.605883
C43   C     C_R   0.936608 0.545085 0.081876 0.604967
C44   C     C_R   0.060999 0.428178 0.920149 0.605882
H1    H     H_    0.411726 0.936866 0.364537 0.103226
H2    H     H_    0.593819 0.951515 0.631114 0.107336
H3    H     H_    0.088274 0.436821 0.135463 0.103224
H4    H     H_    0.906181 0.451508 0.868883 0.107331
H5    H     H_    0.661255 0.157425 0.435429 0.185896
H6    H     H_    0.336434 0.937751 0.565802 0.182602
H7    H     H_    0.838741 0.657357 0.064578 0.185901
H8    H     H_    0.163567 0.437805 0.934198 0.182604
H9    H     H_    0.489975 0.007480 0.368938 0.154405
H10   H     H_    0.513417 0.938784 0.628308 0.154135
H11   H     H_    0.010017 0.507339 0.131066 0.154407
H12   H     H_    0.986585 0.438835 0.871690 0.154135
C45   C     C_R   0.438622 0.807075 0.096336 -0.164152
C46   C     C_R   0.564357 0.185622 0.909752 -0.156223
C47   C     C_R   0.061376 0.307074 0.403656 -0.164113
C48   C     C_R   0.935632 0.685627 0.590232 -0.156246
H13   H     H_    0.464928 0.686505 0.093209 0.124553
H14   H     H_    0.538464 0.305793 0.915250 0.118713
H15   H     H_    0.035070 0.186504 0.406779 0.124547
H16   H     H_    0.961525 0.805797 0.584735 0.118745
C49   C     C_R   0.398760 0.792001 0.135341 -0.190556
C50   C     C_R   0.603329 0.205498 0.869660 -0.182191
C51   C     C_R   0.101240 0.292000 0.364656 -0.190582
C52   C     C_R   0.896664 0.705500 0.630329 -0.182188
H17   H     H_    0.394984 0.659146 0.161160 0.132605
H18   H     H_    0.607065 0.341668 0.845624 0.128642
H19   H     H_    0.105018 0.159144 0.338836 0.132612
H20   H     H_    0.892930 0.841667 0.654369 0.128640
C53   C     C_R   0.364229 0.946627 0.140859 -0.064210
C54   C     C_R   0.636527 0.050102 0.860109 -0.067838
C55   C     C_R   0.135772 0.446627 0.359141 -0.064211
C56   C     C_R   0.863466 0.550103 0.639881 -0.067750
C57   C     C_R   0.371271 0.117855 0.107163 -0.191744
C58   C     C_R   0.629268 0.874111 0.891231 -0.194634
C59   C     C_R   0.128729 0.617852 0.392839 -0.191742
C60   C     C_R   0.870722 0.374117 0.608753 -0.194568
H21   H     H_    0.345438 0.239548 0.111089 0.118019
H22   H     H_    0.654082 0.751680 0.884238 0.123847
H23   H     H_    0.154563 0.739544 0.388916 0.118012
H24   H     H_    0.845909 0.251685 0.615749 0.123848
C61   C     C_R   0.411017 0.133959 0.067685 0.111871
C62   C     C_R   0.591748 0.855218 0.933469 0.104283
C63   C     C_R   0.088980 0.633955 0.432314 0.111866
C64   C     C_R   0.908238 0.355226 0.566511 0.104238
C65   C     C_R   0.444654 0.975785 0.061621 0.110003
C66   C     C_R   0.558739 0.012876 0.942682 0.112306
C67   C     C_R   0.055341 0.475785 0.438371 0.110026
C68   C     C_R   0.941248 0.512883 0.557298 0.112282
C69   C     C_1   0.485399 0.985989 0.020196 -0.060866
C70   C     C_1   0.518709 0.998651 0.984942 -0.056554
C71   C     C_1   0.014590 0.485991 0.479788 -0.060827
C72   C     C_1   0.981278 0.498655 0.515039 -0.056551
F1    F     F_    0.584095 0.086283 0.364368 -0.681737
F2    F     F_    0.417372 0.912250 0.634293 -0.681299
F3    F     F_    0.915896 0.586120 0.135639 -0.681734
F4    F     F_    0.082630 0.412331 0.865705 -0.681303
C73   C     C_3   0.263586 0.976467 0.469937 -0.375430
C74   C     C_3   0.252584 0.192635 0.479151 -0.286069
C75   C     C_3   0.198229 0.225003 0.497613 -0.771891
H25   H     H_    0.169250 0.159091 0.462518 0.237693
H26   H     H_    0.194741 0.159006 0.543912 0.238875
H27   H     H_    0.190336 0.382714 0.500359 0.222363
H28   H     H_    0.280797 0.254212 0.516448 0.207597
H29   H     H_    0.256778 0.272179 0.435154 0.195871
H30   H     H_    0.239977 0.923074 0.427383 0.156302
H31   H     H_    0.251388 0.890833 0.509567 0.176622
C76   C     C_3   0.729986 0.221362 0.533313 -0.372056
C77   C     C_3   0.724099 0.443842 0.533258 -0.264133
C78   C     C_3   0.763978 0.544173 0.497095 -0.781271
H32   H     H_    0.803838 0.501836 0.515332 0.235592
H33   H     H_    0.757344 0.504784 0.446961 0.238466
H34   H     H_    0.760199 0.703724 0.501478 0.220170
H35   H     H_    0.684969 0.487931 0.511641 0.207186
H36   H     H_    0.728314 0.497520 0.582109 0.195395
H37   H     H_    0.757495 0.175953 0.573632 0.148879
H38   H     H_    0.747397 0.171781 0.491094 0.177928
C79   C     C_3   0.236415 0.476457 0.030063 -0.375432
C80   C     C_3   0.247423 0.692617 0.020849 -0.286107
C81   C     C_3   0.301778 0.724961 0.002386 -0.771899
H39   H     H_    0.330755 0.659029 0.037476 0.237711
H40   H     H_    0.305261 0.658976 0.956083 0.238890
H41   H     H_    0.309674 0.882672 0.999645 0.222363
H42   H     H_    0.219213 0.754200 0.983554 0.207602
H43   H     H_    0.243233 0.772171 0.064845 0.195879
H44   H     H_    0.260022 0.423060 0.072617 0.156305
H45   H     H_    0.248612 0.390812 0.990434 0.176609
C82   C     C_3   0.770022 0.721433 0.966693 -0.372105
C83   C     C_3   0.775939 0.943902 0.966834 -0.264149
C84   C     C_3   0.736019 0.044189 0.002949 -0.781092
H46   H     H_    0.696165 0.002082 0.984581 0.235558
H47   H     H_    0.742554 0.004498 0.053074 0.238406
H48   H     H_    0.739856 0.203776 0.998668 0.220159
H49   H     H_    0.815054 0.987861 0.988539 0.207195
H50   H     H_    0.771794 0.997731 0.917999 0.195379
H51   H     H_    0.742518 0.676217 0.926343 0.148955
H52   H     H_    0.752588 0.671733 0.008883 0.177907
C85   C     C_3   0.418209 0.323143 0.034434 -0.384692
C86   C     C_3   0.395679 0.314346 0.965861 -0.301486
C87   C     C_3   0.411571 0.492323 0.930401 -0.737298
H53   H     H_    0.400716 0.627502 0.953683 0.233813
H54   H     H_    0.454148 0.492154 0.928156 0.219915
H55   H     H_    0.391844 0.489935 0.882129 0.232680
H56   H     H_    0.409556 0.182861 0.943006 0.209338
H57   H     H_    0.352654 0.307347 0.963106 0.193606
H58   H     H_    0.398702 0.441512 0.057565 0.167424
H59   H     H_    0.460163 0.360302 0.038318 0.178854
C88   C     C_3   0.587381 0.665045 0.967276 -0.387725
C89   C     C_3   0.611581 0.676862 0.035144 -0.307641
C90   C     C_3   0.606811 0.483185 0.068228 -0.728070
H60   H     H_    0.565328 0.442638 0.068213 0.224070
H61   H     H_    0.627282 0.367573 0.044631 0.230168
H62   H     H_    0.624525 0.495009 0.117264 0.231753
H63   H     H_    0.653323 0.715182 0.036436 0.197120
H64   H     H_    0.592006 0.790357 0.060635 0.209802
H65   H     H_    0.545940 0.622092 0.965306 0.175287
H66   H     H_    0.607813 0.549716 0.943701 0.176413
C91   C     C_3   0.081786 0.823146 0.465562 -0.384731
C92   C     C_3   0.104272 0.814331 0.534149 -0.301591
C93   C     C_3   0.088384 0.992344 0.569590 -0.737369
H67   H     H_    0.099328 0.127479 0.546358 0.233830
H68   H     H_    0.045797 0.992376 0.571729 0.219914
H69   H     H_    0.108032 0.989826 0.617900 0.232705
H70   H     H_    0.090359 0.682906 0.556988 0.209377
H71   H     H_    0.147293 0.807229 0.536945 0.193658
H72   H     H_    0.101317 0.941491 0.442456 0.167468
H73   H     H_    0.039835 0.860346 0.461642 0.178847
C94   C     C_3   0.912610 0.165048 0.532706 -0.387753
C95   C     C_3   0.888415 0.176848 0.464839 -0.307588
C96   C     C_3   0.893249 0.983224 0.431735 -0.728130
H74   H     H_    0.934740 0.942909 0.431727 0.224041
H75   H     H_    0.872835 0.867468 0.455328 0.230188
H76   H     H_    0.875522 0.994999 0.382714 0.231774
H77   H     H_    0.846662 0.214992 0.463545 0.197092
H78   H     H_    0.907959 0.290463 0.439362 0.209799
H79   H     H_    0.954050 0.122106 0.534684 0.175305
H80   H     H_    0.892177 0.049716 0.556278 0.176397

loop_
_geom_bond_atom_site_label_1
_geom_bond_atom_site_label_2
_ccdc_geom_bond_type
C73   H31   S    
O17   V3    S    
C55   C59   A    
O1    C5    A    
C74   C75   S    
O19   V1    S    
O13   V1    S    
O3    C7    A    
C81   H39   S    
C10   C18   A    
C56   C60   A    
C91   H73   S    
O15   V3    S    
C44   F4    S    
C79   C80   S    
C91   C92   S    
C25   C33   A    
C76   C77   S    
C87   H54   S    
C5    C12   S    
C39   H11   S    
C62   C88   S    
O7    C3    A    
C6    C11   S    
C78   H33   S    
C35   C40   A    
C26   C30   A    
C36   C39   A    
C40   C44   A    
O2    V4    S    
O9    V1    S    
C83   C84   S    
C81   H40   S    
C14   C18   A    
C13   C17   A    
O16   V4    S    
O4    C8    A    
C17   C76   S    
C94   H79   S    
C57   C61   A    
C60   H24   S    
O1    V3    S    
C9    C21   A    
C59   C63   A    
C92   H70   S    
O3    V1    S    
C93   H69   S    
C77   H36   S    
C28   C36   A    
C18   C73   S    
C1    O15   A    
C84   H46   S    
C15   C31   A    
C3    O13   A    
C37   H9    S    
C16   C32   A    
O2    C6    A    
C42   F2    S    
C58   H22   S    
C10   C22   A    
C41   F1    S    
C11   C19   A    
C62   C66   A    
C4    C54   S    
C61   C65   A    
C13   C29   A    
C7    C10   S    
C34   C37   A    
O11   C7    A    
C11   C23   A    
C35   C36   A    
O12   C8    A    
C86   H57   S    
C57   H21   S    
C40   H12   S    
C86   C87   S    
O10   V2    S    
C19   C82   S    
C50   H18   S    
C87   H55   S    
O5    V1    S    
C52   H20   S    
O17   V1    S    
C89   H63   S    
C78   H34   S    
C39   C43   A    
C63   C91   S    
O7    V3    S    
C38   C42   A    
O19   V3    S    
O8    V4    S    
C92   H71   S    
C47   C67   A    
O20   V4    S    
C81   H41   S    
C46   C66   A    
C2    O16   A    
C87   H53   S    
C60   C64   A    
C1    C55   S    
O18   V4    S    
C77   C78   S    
C15   C19   A    
C94   H80   S    
C82   H51   S    
C85   H59   S    
C32   C44   A    
C51   H19   S    
C68   C72   S    
C86   H56   S    
C49   C53   A    
C80   H42   S    
C26   C34   A    
C96   H76   S    
C89   H64   S    
C75   H26   S    
C64   C94   S    
O5    C1    A    
C77   H35   S    
C37   C41   A    
C31   C43   A    
C88   C89   S    
C14   C30   A    
C24   C28   A    
O8    C4    A    
C90   H62   S    
C53   C57   A    
C4    O14   A    
C20   C79   S    
O9    C5    A    
C2    C56   S    
C66   C70   S    
C61   C85   S    
C80   H43   S    
C79   H45   S    
C89   C90   S    
O6    V2    S    
C83   H49   S    
O18   V2    S    
C84   H48   S    
C15   H7    S    
O14   V2    S    
C65   C69   S    
C48   C68   A    
C12   C20   A    
C27   C35   A    
C33   C38   A    
C24   H3    S    
C95   H78   S    
C75   H25   S    
C64   C68   A    
C29   C41   A    
C52   C56   A    
C88   H65   S    
C80   C81   S    
C14   H6    S    
C73   H30   S    
C13   H5    S    
C76   H38   S    
C21   H2    S    
C38   H10   S    
C48   H16   S    
C91   H72   S    
C95   C96   S    
C43   F3    S    
C47   H15   S    
O6    C2    A    
C23   C27   A    
C71   C72   T    
O11   V3    S    
C30   C42   A    
C82   H52   S    
O12   V4    S    
C47   C51   A    
C78   H32   S    
C22   C26   A    
C67   C71   S    
C8    C9    S    
C46   C50   A    
C3    C53   S    
C59   H23   S    
C9    C17   A    
O10   C6    A    
C96   H75   S    
C92   C93   S    
C75   H27   S    
C79   H44   S    
C93   H67   S    
C54   C58   A    
C69   C70   T    
C46   H14   S    
C33   C34   A    
C73   C74   S    
C74   H28   S    
C25   C29   A    
O20   V2    S    
C76   H37   S    
C90   H61   S    
C21   C25   A    
C12   C24   A    
C27   C31   A    
C45   C49   A    
C49   H17   S    
C96   H74   S    
O4    V2    S    
C23   H4    S    
C93   H68   S    
C58   C62   A    
C74   H29   S    
C83   H50   S    
C94   C95   S    
C16   H8    S    
C85   C86   S    
C16   C20   A    
C84   H47   S    
C90   H60   S    
C45   C65   A    
C82   C83   S    
C22   H1    S    
C63   C67   A    
C48   C52   A    
C51   C55   A    
C95   H77   S    
C85   H58   S    
C50   C54   A    
C45   H13   S    
C28   C32   A    
C88   H66   S    
