data_mof_unit_55.cif
_audit_creation_date              2012-12-11T15:23:42-0500
_audit_creation_method            fapswitch 2.2
_symmetry_space_group_name_H-M    P1
_symmetry_Int_Tables_number       1
_space_group_crystal_system       triclinic
_cell_length_a                    6.92226
_cell_length_b                    17.546319
_cell_length_c                    19.294041
_cell_angle_alpha                 109.592074
_cell_angle_beta                  90.528193
_cell_angle_gamma                 90.311386
_cell_volume                      2207.59632381

loop_
_atom_site_label
_atom_site_type_symbol
_atom_type_description
_atom_site_fract_x
_atom_site_fract_y
_atom_site_fract_z
_atom_type_partial_charge
O1    O     O_R   0.505810 0.439670 0.562310 -0.548906
O2    O     O_R   0.169070 0.404920 0.411210 -0.545931
O3    O     O_R   0.005550 0.560330 0.437690 -0.541847
C1    C     C_R   0.338459 0.381690 0.382800 0.684362
O4    O     O_R   0.175650 0.430000 0.560110 -0.540123
O5    O     O_R   0.012170 0.585580 0.587650 -0.539162
C2    C     C_R   0.345156 0.415496 0.582193 0.695856
O6    O     O_R   0.499180 0.414420 0.412350 -0.543977
O7    O     O_3   0.341430 0.551020 0.508860 -0.346398
V1    V     V_3+5 0.063930 0.490540 0.498360 1.458140
O8    O     O_R   0.682850 0.595080 0.588790 -0.538593
C3    C     C_R   0.853086 0.618273 0.617017 0.707384
O9    O     O_R   0.676280 0.570000 0.439890 -0.505029
C4    C     C_R   0.844705 0.586850 0.419590 0.778047
V2    V     V_3+5 0.564760 0.509460 0.501640 1.502560
O10   O     O_3   0.837130 0.448980 0.491140 -0.382859
C5    C     C_R   0.766058 0.877931 0.181564 -0.154899
C6    C     C_R   0.916203 0.865831 0.131064 -0.089313
C7    C     C_R   0.056113 0.807189 0.127996 -0.180318
C8    C     C_R   0.048669 0.760222 0.175109 0.013991
C9    C     C_R   0.896135 0.773576 0.226174 0.071105
C10   C     C_R   0.755537 0.832813 0.229078 0.151331
C11   C     C_R   0.185221 0.698649 0.170647 -0.084895
C12   C     C_R   0.169444 0.651689 0.217745 -0.068311
C13   C     C_R   0.019424 0.667233 0.270410 0.030547
C14   C     C_R   0.881692 0.727545 0.273905 0.016798
C15   C     C_R   0.728485 0.742191 0.325224 0.078610
C16   C     C_R   0.590439 0.801285 0.326282 -0.131807
C17   C     C_R   0.603909 0.845736 0.278871 -0.192661
C18   C     C_R   0.004996 0.624258 0.320330 -0.175226
C19   C     C_R   0.854023 0.637419 0.371025 -0.147062
C20   C     C_R   0.715375 0.697374 0.373932 0.339612
H1    H     H_    0.657552 0.923200 0.184321 0.109700
H2    H     H_    0.167330 0.797631 0.087111 0.154314
H3    H     H_    0.111344 0.579345 0.320218 0.161182
H4    H     H_    0.469440 0.813723 0.363327 0.183565
H5    H     H_    0.494378 0.890380 0.281049 0.122748
C21   C     C_3   0.709281 0.778426 0.772471 -0.123128
C22   C     C_3   0.801361 0.774844 0.698588 -0.120979
H6    H     H_    0.731576 0.795006 0.655746 0.147401
H7    H     H_    0.563465 0.802226 0.791127 0.123350
C23   C     C_3   0.869072 0.688344 0.687733 -0.024842
C24   C     C_3   0.777130 0.691068 0.760800 -0.126978
C25   C     C_3   0.969643 0.724722 0.801602 -0.137822
C26   C     C_3   0.061691 0.721121 0.727715 -0.124320
C27   C     C_3   0.993891 0.808447 0.739359 -0.108744
C28   C     C_3   0.901949 0.811255 0.812454 -0.032980
H8    H     H_    0.687284 0.642285 0.769071 0.133399
H9    H     H_    0.039456 0.704545 0.844427 0.131814
H10   H     H_    0.207508 0.697334 0.709049 0.124961
H11   H     H_    0.084506 0.856729 0.730671 0.170293
C29   C     C_3   0.557150 0.283427 0.277036 -0.133875
C30   C     C_3   0.496806 0.194245 0.263427 -0.175962
H12   H     H_    0.589475 0.148074 0.274476 0.107176
H13   H     H_    0.699729 0.310595 0.299124 0.136606
C31   C     C_3   0.413697 0.189133 0.187639 -0.065591
C32   C     C_3   0.471771 0.277315 0.201194 0.009629
C33   C     C_3   0.273888 0.306757 0.236127 -0.175801
C34   C     C_3   0.214377 0.217522 0.222653 -0.085858
C35   C     C_3   0.298017 0.223175 0.299045 -0.142242
C36   C     C_3   0.357371 0.311537 0.311820 -0.039562
H14   H     H_    0.180684 0.352681 0.224948 0.165540
H15   H     H_    0.071836 0.190412 0.200483 0.126335
H16   H     H_    0.224426 0.200976 0.339569 0.102454
C37   C     C_R   0.262054 0.117623 0.812478 0.362660
C38   C     C_R   0.413242 0.130674 0.865310 -0.142451
C39   C     C_R   0.553802 0.190197 0.870049 -0.183275
C40   C     C_R   0.549810 0.237119 0.823134 -0.034815
C41   C     C_R   0.395089 0.225481 0.772004 -0.004329
C42   C     C_R   0.250110 0.166294 0.767145 0.094403
C43   C     C_R   0.693411 0.296942 0.827519 -0.084082
C44   C     C_R   0.684013 0.342644 0.779496 0.322537
C45   C     C_R   0.529015 0.331228 0.728675 0.008866
C46   C     C_R   0.383356 0.273478 0.725881 0.030753
C47   C     C_R   0.224844 0.263602 0.676665 0.158658
C48   C     C_R   0.081229 0.206295 0.673463 -0.202365
C49   C     C_R   0.094166 0.157889 0.717496 -0.110860
C50   C     C_R   0.515242 0.376531 0.680517 -0.148717
C51   C     C_R   0.357187 0.366919 0.631903 -0.102614
C52   C     C_R   0.211513 0.310961 0.631033 -0.152960
H17   H     H_    0.664656 0.200185 0.912014 0.173765
H18   H     H_    0.625133 0.420808 0.681122 0.176029
H19   H     H_    0.089235 0.303057 0.593653 0.119262
H20   H     H_    0.958265 0.198579 0.636465 0.125074
H21   H     H_    0.978407 0.114764 0.712722 0.185631
O11   O     O_R   0.271890 0.085690 0.087580 -0.542609
O12   O     O_R   0.595690 0.070020 0.939870 -0.536343
O13   O     O_R   0.758900 0.914390 0.912370 -0.541278
C53   C     C_R   0.426031 0.083309 0.916541 0.795982
O14   O     O_R   0.602020 0.095100 0.088770 -0.547606
O15   O     O_R   0.765280 0.939660 0.062330 -0.542588
C54   C     C_R   0.432577 0.118588 0.116954 0.690322
O16   O     O_R   0.265520 0.060430 0.937620 -0.499402
O17   O     O_3   0.429560 0.949050 0.991100 -0.380271
V3    V     V_3+5 0.707160 0.009450 0.001650 1.494580
O18   O     O_R   0.094540 0.929890 0.060190 -0.550812
C55   C     C_R   0.926053 0.914726 0.081655 0.680594
O19   O     O_R   0.088200 0.904800 0.911290 -0.536958
C56   C     C_R   0.917946 0.881505 0.883105 0.747719
V4    V     V_3+5 0.206300 0.990390 0.998440 1.498527
O20   O     O_3   0.934030 0.050940 0.008900 -0.353469
C57   C     C_2   0.568232 0.306960 0.145787 0.737864
O21   O     O_2   0.726848 0.339829 0.159502 -0.548114
O22   O     O_R   0.475873 0.296512 0.078496 -0.659266
H22   H     H_    0.555063 0.318522 0.045362 0.310375
Cl1   Cl    Cl    0.091436 0.038181 0.800535 -0.706546
C58   C     C_2   0.852965 0.313871 0.882825 0.851538
O23   O     O_2   0.960155 0.259633 0.885090 -0.559515
O24   O     O_R   0.881146 0.392424 0.931989 -0.611697
H23   H     H_    0.994475 0.396594 0.966780 0.331204
Cl2   Cl    Cl    0.871782 0.412947 0.782198 -0.646214
C59   C     C_2   0.339076 0.679466 0.114158 0.803082
O25   O     O_2   0.455268 0.731556 0.112646 -0.565436
O26   O     O_R   0.352370 0.601098 0.063577 -0.632979
H24   H     H_    0.463669 0.595148 0.028408 0.323019
C60   C     C_2   0.310130 0.585761 0.210961 0.819116
O27   O     O_2   0.483513 0.600516 0.215925 -0.547802
O28   O     O_R   0.243786 0.506575 0.197078 -0.649949
H25   H     H_    0.353201 0.467232 0.193129 0.302327
Cl3   Cl    Cl    0.531947 0.720032 0.441370 -0.681375

loop_
_geom_bond_atom_site_label_1
_geom_bond_atom_site_label_2
_ccdc_geom_bond_type
C25   H9    S    
C33   H14   S    
C9    C14   A    
C47   C48   A    
C10   C17   A    
C43   C58   S    
C45   C46   A    
C7    C8    A    
C4    C19   S    
C1    O6    A    
C48   H20   S    
C59   O26   S    
O26   H24   S    
O14   V3    S    
C1    C36   S    
C30   H12   S    
C60   O27   D    
C32   C57   S    
C14   C15   A    
C18   H3    S    
C16   C17   A    
C29   C36   S    
O5    C3    A    
C21   C22   S    
C37   C42   A    
O19   C56   A    
C28   C56   S    
C31   C32   S    
C6    C7    A    
O28   H25   S    
C59   O25   D    
C3    C23   S    
C57   O21   D    
O8    V2    S    
C40   C41   A    
O12   V3    S    
C58   O23   D    
O1    V2    S    
C6    C55   S    
C22   C23   S    
O11   V4    S    
O7    V1    S    
C25   C28   S    
C33   C36   S    
C38   C39   A    
C44   Cl2   S    
C49   H21   S    
C34   C35   S    
O9    C4    A    
C42   C49   A    
C53   O16   A    
C58   O24   S    
O17   V3    S    
C5    H1    S    
C20   Cl3   S    
C52   H19   S    
O22   H22   S    
C30   C35   S    
C38   C53   S    
C48   C49   A    
C46   C47   A    
C39   C40   A    
C12   C13   A    
C21   H7    S    
C22   H6    S    
O4    C2    A    
C50   C51   A    
C13   C14   A    
C26   C27   S    
C45   C50   A    
C27   H11   S    
C35   C36   S    
C23   C26   S    
O2    C1    A    
C24   C25   S    
C11   C59   S    
C50   H18   S    
O14   C54   A    
C19   C20   A    
C8    C11   A    
O17   V4    S    
C11   C12   A    
C24   H8    S    
O18   C55   A    
C5    C6    A    
C41   C46   A    
O15   C55   A    
C57   O22   S    
O16   V4    S    
C21   C28   S    
O3    C4    A    
C22   C27   S    
C12   C60   S    
O6    V2    S    
O19   V4    S    
O12   C53   A    
C23   C24   S    
O2    V1    S    
C37   Cl1   S    
C29   C30   S    
C2    C51   S    
C47   C52   A    
C30   C31   S    
C13   C18   A    
C27   C28   S    
C15   C20   A    
O1    C2    A    
C25   C26   S    
C44   C45   A    
C7    H2    S    
O5    V1    S    
O8    C3    A    
C29   H13   S    
C39   H17   S    
C34   H15   S    
C5    C10   A    
C31   C34   S    
C35   H16   S    
O9    V2    S    
C33   C34   S    
C21   C24   S    
O3    V1    S    
V1    O10   S    
O24   H23   S    
C32   C33   S    
C18   C19   A    
C26   H10   S    
C40   C43   A    
V2    O10   S    
O18   V4    S    
V4    O20   S    
C60   O28   S    
O7    V2    S    
C41   C42   A    
O13   V3    S    
O13   C56   A    
C29   C32   S    
O15   V3    S    
C51   C52   A    
O4    V1    S    
C43   C44   A    
C8    C9    A    
C16   H4    S    
C37   C38   A    
C17   H5    S    
C15   C16   A    
O11   C54   A    
C9    C10   A    
C31   C54   S    
V3    O20   S    
