data_mof_unit_1852.cif
_audit_creation_date              2013-03-05T16:12:15-0500
_audit_creation_method            fapswitch 2.2
_symmetry_space_group_name_H-M    P1
_symmetry_Int_Tables_number       1
_space_group_crystal_system       triclinic
_cell_length_a                    10.624022
_cell_length_b                    9.83915
_cell_length_c                    19.097468
_cell_angle_alpha                 89.993552
_cell_angle_beta                  89.978649
_cell_angle_gamma                 91.006061
_cell_volume                      1995.97614324

loop_
_atom_site_label
_atom_site_type_symbol
_atom_site_description
_atom_site_fract_x
_atom_site_fract_y
_atom_site_fract_z
_atom_type_partial_charge
O1    O     O_R   0.316770 0.614620 0.500000 -0.624398
O2    O     O_R   0.683230 0.385380 0.500000 -0.627424
O3    O     O_R   0.683230 0.614620 0.500000 -0.577119
O4    O     O_R   0.316770 0.385380 0.500000 -0.575097
C1    C     C_R   0.260389 0.498612 0.499982 1.042811
C2    C     C_R   0.739630 0.501401 0.500062 1.031112
O5    O     O_R   0.499990 0.614700 0.398140 -0.625820
O6    O     O_R   0.500010 0.385300 0.601860 -0.624098
O7    O     O_R   0.500010 0.614700 0.601860 -0.620156
O8    O     O_R   0.499990 0.385300 0.398140 -0.619593
C3    C     C_R   0.501550 0.500029 0.365230 0.952022
C4    C     C_R   0.502680 0.500054 0.634736 0.955652
Zn1   Zn    Zn3+2 0.500000 0.653120 0.500000 1.022966
Zn2   Zn    Zn3+2 0.500000 0.346880 0.500000 1.022666
C5    C     C_R   0.064976 0.488145 0.435751 0.199547
C6    C     C_R   0.935063 0.512247 0.564311 0.201877
C7    C     C_R   0.934783 0.494719 0.435623 0.211752
C8    C     C_R   0.065288 0.505794 0.564515 0.209063
C9    C     C_R   0.872049 0.505705 0.499898 -0.359017
C10   C     C_R   0.128006 0.494318 0.500205 -0.362665
C11   C     C_R   0.573744 0.073330 0.545850 -0.048955
C12   C     C_R   0.426258 0.926672 0.454153 -0.049903
C13   C     C_R   0.426242 0.070585 0.454161 -0.045629
C14   C     C_R   0.573758 0.929412 0.545843 -0.044695
C15   C     C_R   0.525882 0.624092 0.253242 -0.111803
C16   C     C_R   0.538670 0.377914 0.746009 -0.124279
C17   C     C_R   0.530043 0.624266 0.746446 -0.102684
C18   C     C_R   0.535639 0.377808 0.253798 -0.111793
H1    H     H_    0.513243 0.720122 0.279846 0.160427
H2    H     H_    0.533279 0.281167 0.719015 0.159501
H3    H     H_    0.517722 0.720331 0.719818 0.161318
H4    H     H_    0.530855 0.281092 0.280856 0.162871
C19   C     C_R   0.552434 0.625241 0.182159 -0.125357
C20   C     C_R   0.565534 0.379024 0.817066 -0.121281
C21   C     C_R   0.556979 0.625413 0.817469 -0.125420
C22   C     C_R   0.562132 0.378923 0.182690 -0.122053
C23   C     C_R   0.570623 0.502654 0.146348 0.074063
C24   C     C_R   0.574335 0.502766 0.853370 0.075130
H5    H     H_    0.632695 0.128982 0.582503 0.143730
H6    H     H_    0.367295 0.871024 0.417507 0.146733
H7    H     H_    0.367261 0.124045 0.417534 0.163551
H8    H     H_    0.632724 0.875948 0.582478 0.161174
N1    N     N_R   0.500000 0.857200 0.500000 -0.091456
N2    N     N_R   0.500000 0.142800 0.500000 -0.091562
C25   C     C_R   0.517783 0.500415 0.289510 0.008951
C26   C     C_R   0.520688 0.500528 0.710320 0.008426
N3    N     N_R   0.594240 0.384774 0.034665 -0.159068
N4    N     N_R   0.590487 0.622141 0.965187 -0.159441
N5    N     N_R   0.595297 0.384805 0.965203 -0.159322
N6    N     N_R   0.589426 0.622111 0.034635 -0.159593
C27   C     C_R   0.591320 0.503412 0.929244 0.312265
C28   C     C_R   0.589113 0.503346 0.070578 0.312533
N7    N     N_R   0.133238 0.481073 0.370843 0.225606
O9    O     O_R   0.211695 0.383305 0.359857 -0.401105
O10   O     O_R   0.112598 0.568605 0.321261 -0.324009
N8    N     N_R   0.866699 0.520723 0.629090 0.224837
O11   O     O_R   0.791166 0.621098 0.640174 -0.403879
O12   O     O_R   0.885462 0.432720 0.678698 -0.329804
N9    N     N_R   0.866161 0.487845 0.370860 0.229363
O13   O     O_R   0.791125 0.585316 0.353553 -0.392213
O14   O     O_R   0.884709 0.388884 0.327070 -0.322340
N10   N     N_R   0.133881 0.514651 0.629296 0.230998
O15   O     O_R   0.213211 0.420900 0.646132 -0.390859
O16   O     O_R   0.112751 0.612899 0.673125 -0.315095
H9    H     H_    0.557605 0.722129 0.155319 0.159429
H10   H     H_    0.578036 0.282874 0.843540 0.159482
H11   H     H_    0.562656 0.722332 0.844243 0.159088
H12   H     H_    0.575064 0.282806 0.156262 0.160041

loop_
_geom_bond_atom_site_label_1
_geom_bond_atom_site_label_2
_geom_bond_distance
_ccdc_geom_bond_type
N6    C28   1.355122 A    
C22   H12   1.082860 S    
N3    C28   1.355283 A    
C11   N2    1.366353 A    
C14   H8    1.081893 S    
N10   O16   1.301209 A    
C12   N1    1.366312 A    
C13   H7    1.081856 S    
C21   H11   1.082848 S    
O6    C4    1.291846 A    
O3    C2    1.274138 A    
C12   H6    1.081822 S    
C23   C28   1.460220 S    
C20   H10   1.082864 S    
Zn1   N1    2.007974 S    
N4    N6    1.326334 A    
C19   H9    1.082847 S    
N9    O13   1.300567 A    
N3    N5    1.326597 A    
C1    C10   1.406343 S    
O2    C2    1.279901 A    
N7    O9    1.300846 A    
O5    C3    1.291928 A    
C2    C9    1.406719 S    
C18   H4    1.083205 S    
N4    C27   1.355168 A    
N10   O15   1.300773 A    
C6    N8    1.437505 S    
C7    N9    1.436915 S    
C6    C9    1.401664 A    
O1    C1    1.279691 A    
C5    N7    1.438209 S    
C17   C26   1.401462 A    
C4    C26   1.456155 S    
C22   C23   1.402791 A    
C7    C9    1.401618 A    
N8    O12   1.301160 A    
C16   H2    1.083227 S    
C8    C10   1.402559 A    
N7    O10   1.301172 A    
O4    Zn2   1.989672 S    
C5    C10   1.402293 A    
O2    Zn2   1.976614 S    
O7    C4    1.291663 A    
C18   C25   1.401618 A    
C3    C25   1.456229 S    
N9    O14   1.301172 A    
O8    C3    1.291796 A    
C16   C26   1.401602 A    
C17   H3    1.083245 S    
C15   C25   1.401431 A    
O5    Zn1   1.981699 S    
C21   C24   1.402864 A    
O1    Zn1   1.976615 S    
N8    O11   1.300724 A    
C18   C22   1.386745 A    
C15   H1    1.083244 S    
Zn2   N2    2.007974 S    
O8    Zn2   1.981616 S    
C11   C14   1.416026 A    
C5    C7    1.385822 A    
C14   N1    1.366174 A    
O7    Zn1   1.981616 S    
C12   C13   1.415984 A    
C8    N10   1.437930 S    
O6    Zn2   1.981699 S    
C24   C27   1.460257 S    
C17   C21   1.386327 A    
C20   C24   1.402858 A    
C11   H5    1.081861 S    
C16   C20   1.386819 A    
C6    C8    1.386091 A    
C19   C23   1.402903 A    
C13   N2    1.366136 A    
C15   C19   1.386412 A    
O4    C1    1.274152 A    
N5    C27   1.355291 A    
O3    Zn1   1.989671 S    
