data_mof_unit_2812.cif
_audit_creation_date              2012-12-11T15:31:38-0500
_audit_creation_method            fapswitch 2.2
_symmetry_space_group_name_H-M    P1
_symmetry_Int_Tables_number       1
_space_group_crystal_system       triclinic
_cell_length_a                    6.944236
_cell_length_b                    14.789359
_cell_length_c                    21.308242
_cell_angle_alpha                 74.732037
_cell_angle_beta                  90.278834
_cell_angle_gamma                 90.504327
_cell_volume                      2111.04527966

loop_
_atom_site_label
_atom_site_type_symbol
_atom_type_description
_atom_site_fract_x
_atom_site_fract_y
_atom_site_fract_z
_atom_type_partial_charge
O1    O     O_R   0.648150 0.130050 0.214300 -0.541783
O2    O     O_R   0.351850 0.869950 0.785700 -0.541753
O3    O     O_R   0.320490 0.006660 0.340150 -0.544064
O4    O     O_R   0.679510 0.993340 0.659850 -0.539803
O5    O     O_R   0.146100 0.869940 0.285700 -0.540356
O6    O     O_R   0.853900 0.130060 0.714300 -0.527591
C1    C     C_R   0.488972 0.001617 0.367157 0.696933
C2    C     C_R   0.511127 0.998429 0.632859 0.698333
O7    O     O_R   0.318690 0.137980 0.218120 -0.539861
O8    O     O_R   0.681310 0.862020 0.781880 -0.539786
O9    O     O_R   0.144280 0.002190 0.162800 -0.541637
O10   O     O_R   0.855720 0.997810 0.837200 -0.541763
C3    C     C_R   0.487989 0.175516 0.206277 0.689863
C4    C     C_R   0.511955 0.824484 0.793702 0.689972
O11   O     O_R   0.649960 0.997790 0.337200 -0.534345
O12   O     O_R   0.350040 0.002210 0.662800 -0.539373
O13   O     O_3   0.479300 0.955290 0.231990 -0.372348
O14   O     O_3   0.520700 0.044710 0.768010 -0.371985
V1    V     V_3+5 0.206040 0.008290 0.253340 1.449541
V2    V     V_3+5 0.793960 0.991710 0.746660 1.460678
O15   O     O_R   0.814320 0.993320 0.159850 -0.545546
O16   O     O_R   0.185680 0.006680 0.840150 -0.545296
C5    C     C_R   0.982608 0.998294 0.132855 0.679339
C6    C     C_R   0.017396 0.001680 0.867150 0.679767
O17   O     O_R   0.816120 0.862000 0.281880 -0.534505
O18   O     O_R   0.183880 0.138000 0.718120 -0.545540
C7    C     C_R   0.984522 0.824390 0.294642 0.771724
C8    C     C_R   0.015980 0.175638 0.705092 0.768020
V3    V     V_3+5 0.705540 0.991700 0.246660 1.455421
V4    V     V_3+5 0.294460 0.008300 0.753340 1.444599
O19   O     O_3   0.982150 0.044700 0.268010 -0.374070
O20   O     O_3   0.017850 0.955300 0.731990 -0.374235
C9    C     C_R   0.995281 0.722763 0.322218 -0.085762
C10   C     C_R   0.014006 0.277582 0.677726 -0.088075
C11   C     C_R   0.071229 0.569881 0.308935 -0.140205
C12   C     C_R   0.098254 0.431188 0.689170 -0.138770
C13   C     C_R   0.051795 0.666001 0.282700 -0.260811
C14   C     C_R   0.079802 0.335127 0.715921 -0.256779
C15   C     C_R   0.960317 0.683386 0.388754 0.378872
C16   C     C_R   0.967645 0.316475 0.611862 0.374287
C17   C     C_R   0.014210 0.588516 0.417984 -0.003197
C18   C     C_R   0.021468 0.411466 0.581326 -0.007375
C19   C     C_R   0.052994 0.530697 0.376196 0.054475
C20   C     C_R   0.071322 0.469733 0.622220 0.057787
C21   C     C_R   0.035550 0.549670 0.486585 -0.049570
C22   C     C_R   0.033487 0.450066 0.512332 -0.048724
C23   C     C_R   0.071180 0.393585 0.469092 0.364126
C24   C     C_R   0.086382 0.606161 0.528864 0.364230
C25   C     C_R   0.081844 0.434963 0.401882 -0.273000
C26   C     C_R   0.103929 0.565237 0.595877 -0.273656
H1    H     H_    0.116634 0.392096 0.369354 0.113509
H2    H     H_    0.147834 0.608197 0.627666 0.111564
H3    H     H_    0.114497 0.305599 0.766812 0.130051
H4    H     H_    0.076795 0.695981 0.231222 0.127868
H5    H     H_    0.107793 0.526575 0.276904 0.131397
H6    H     H_    0.142637 0.474868 0.720365 0.125328
C27   C     C_3   0.920342 0.921090 0.991412 -0.128332
C28   C     C_3   0.079671 0.078846 0.008600 -0.129079
C29   C     C_3   0.096010 0.925475 0.035708 -0.138033
C30   C     C_3   0.904003 0.074461 0.964307 -0.138611
H7    H     H_    0.175020 0.864033 0.065567 0.121821
H8    H     H_    0.824981 0.135904 0.934456 0.123099
H9    H     H_    0.854732 0.856125 0.983750 0.177942
H10   H     H_    0.145278 0.143805 0.016268 0.178738
C31   C     C_3   0.990880 0.998783 0.062234 -0.027595
C32   C     C_3   0.009131 0.001157 0.937778 -0.027963
C33   C     C_3   0.814986 0.994392 0.018747 -0.106217
C34   C     C_3   0.185027 0.005544 0.981266 -0.106419
H11   H     H_    0.662255 0.989673 0.034522 0.119977
H12   H     H_    0.337757 0.010264 0.965490 0.119979
C35   C     C_3   0.605289 0.072885 0.465583 -0.143278
C36   C     C_3   0.395387 0.927242 0.534507 -0.141100
C37   C     C_3   0.427151 0.080286 0.507476 -0.141043
C38   C     C_3   0.573550 0.919765 0.492631 -0.128974
H13   H     H_    0.367479 0.146181 0.514555 0.146885
H14   H     H_    0.634102 0.853641 0.486108 0.145829
H15   H     H_    0.692002 0.132842 0.436820 0.112138
H16   H     H_    0.308788 0.867714 0.563750 0.098058
C39   C     C_3   0.504560 0.998980 0.562271 -0.015310
C40   C     C_3   0.496022 0.001108 0.437777 -0.018153
C41   C     C_3   0.683152 0.991545 0.521221 -0.099930
C42   C     C_3   0.317457 0.008561 0.478876 -0.105788
H17   H     H_    0.834344 0.984457 0.538938 0.120450
H18   H     H_    0.166233 0.015681 0.461195 0.119958
C43   C     C_R   0.497699 0.276674 0.178548 -0.069288
C44   C     C_R   0.501840 0.723359 0.821538 -0.069727
C45   C     C_R   0.527110 0.432960 0.191706 -0.131216
C46   C     C_R   0.469257 0.567087 0.808622 -0.127885
C47   C     C_R   0.510312 0.336845 0.218947 -0.171084
C48   C     C_R   0.487383 0.663104 0.781252 -0.168462
C49   C     C_R   0.494569 0.312587 0.111001 -0.131043
C50   C     C_R   0.504748 0.687626 0.889101 -0.132667
C51   C     C_R   0.496647 0.410357 0.081956 0.102111
C52   C     C_R   0.500879 0.589896 0.918307 0.101229
C53   C     C_R   0.524427 0.469794 0.123821 0.036950
C54   C     C_R   0.471990 0.530403 0.876518 0.038500
C55   C     C_R   0.480974 0.450830 0.013124 -0.131633
C56   C     C_R   0.515947 0.549514 0.987189 -0.131368
C57   C     C_R   0.567210 0.603335 0.031175 0.612142
C58   C     C_R   0.428795 0.397029 0.969241 0.612086
C59   C     C_R   0.560187 0.564792 0.097883 -0.250553
C60   C     C_R   0.435205 0.435508 0.902528 -0.249107
H19   H     H_    0.593837 0.609213 0.129712 0.150236
H20   H     H_    0.400541 0.391123 0.870758 0.147454
H21   H     H_    0.500532 0.738564 0.916914 0.178619
H22   H     H_    0.499930 0.261866 0.083010 0.177616
H23   H     H_    0.484525 0.690618 0.728833 0.097191
H24   H     H_    0.512765 0.309208 0.271358 0.098523
H25   H     H_    0.545118 0.478544 0.223721 0.117825
H26   H     H_    0.450331 0.521454 0.776697 0.111763
F1    F     F_    0.638055 0.691868 0.011654 -0.735560
F2    F     F_    0.357216 0.308640 0.988956 -0.735630
O21   O     O_3   0.861582 0.261825 0.580600 -0.631233
H27   H     H_    0.789004 0.303988 0.544545 0.296438
O22   O     O_3   0.863136 0.737324 0.422084 -0.638298
H28   H     H_    0.795280 0.694745 0.459283 0.291090
O23   O     O_3   0.123318 0.300925 0.493448 -0.636200
H29   H     H_    0.142324 0.271717 0.457058 0.276251
O24   O     O_3   0.143825 0.698246 0.503291 -0.629627
H30   H     H_    0.175354 0.727220 0.539092 0.279386

loop_
_geom_bond_atom_site_label_1
_geom_bond_atom_site_label_2
_ccdc_geom_bond_type
C32   C34   S    
C46   C54   A    
O11   V3    S    
C54   C60   A    
O13   V3    S    
C27   C32   S    
O4    C2    A    
V1    O19   S    
C55   C56   A    
C43   C49   A    
C23   C25   A    
C21   C22   A    
C7    C9    S    
O9    V1    S    
C9    C15   A    
C38   H14   S    
C10   C16   A    
C11   C13   A    
C48   H23   S    
C36   C39   S    
O3    C1    A    
C27   C29   S    
C52   C56   A    
C28   C30   S    
O22   H28   S    
C30   H8    S    
C18   C22   A    
O7    C3    A    
C36   H16   S    
O5    C7    A    
O7    V1    S    
O6    C8    A    
C30   C33   S    
O8    V2    S    
C31   C33   S    
C45   C53   A    
C2    C39   S    
C26   H2    S    
O3    V1    S    
O14   V4    S    
C11   C19   A    
C6    C32   S    
C46   H26   S    
C24   C26   A    
C8    C10   S    
C2    O12   A    
C38   C40   S    
C28   H10   S    
C17   C19   A    
C49   H22   S    
C18   C20   A    
C27   C33   S    
C58   C60   A    
C35   C40   S    
C41   H17   S    
C27   H9    S    
C24   O24   S    
O15   C5    A    
O17   V3    S    
C29   H7    S    
C11   H5    S    
C4    C44   S    
C36   C38   S    
C44   C48   A    
C39   C41   S    
C43   C47   A    
C19   C25   A    
C1    O11   A    
C25   H1    S    
O15   V3    S    
C9    C13   A    
C33   H11   S    
C52   C54   A    
C12   H6    S    
C29   C34   S    
C49   C51   A    
C28   C31   S    
C16   O21   S    
C57   F1    S    
O10   V2    S    
O1    V3    S    
C37   C39   S    
C60   H20   S    
C45   H25   S    
C13   H4    S    
C28   C34   S    
C57   C59   A    
C46   C48   A    
C58   F2    S    
C42   H18   S    
C45   C47   A    
O8    C4    A    
O16   C6    A    
C12   C20   A    
O1    C3    A    
C37   H13   S    
C38   C41   S    
C51   C55   A    
C37   C42   S    
C35   H15   S    
C55   C58   A    
C35   C37   S    
O21   H27   S    
V2    O20   S    
C21   C24   A    
C20   C26   A    
C22   C23   A    
O16   V4    S    
C10   C14   A    
O18   C8    A    
C16   C18   A    
O24   H30   S    
O18   V4    S    
O5    V1    S    
O17   C7    A    
O6    V2    S    
O10   C6    A    
C15   O22   S    
O2    V4    S    
C5    C31   S    
C12   C14   A    
V3    O19   S    
C44   C50   A    
O23   H29   S    
C29   C31   S    
V4    O20   S    
C50   C52   A    
C51   C53   A    
C14   H3    S    
C47   H24   S    
O9    C5    A    
O13   V1    S    
C40   C42   S    
O14   V2    S    
O2    C4    A    
C30   C32   S    
O4    V2    S    
C50   H21   S    
C23   O23   S    
C15   C17   A    
C59   H19   S    
C56   C57   A    
C3    C43   S    
C34   H12   S    
C17   C21   A    
O12   V4    S    
C36   C42   S    
C53   C59   A    
C1    C40   S    
C35   C41   S    
