data_mof_unit_3021.cif
_audit_creation_date              2012-12-11T15:41:14-0500
_audit_creation_method            fapswitch 2.2
_symmetry_space_group_name_H-M    P1
_symmetry_Int_Tables_number       1
_space_group_crystal_system       triclinic
_cell_length_a                    15.107069
_cell_length_b                    15.085592
_cell_length_c                    15.114962
_cell_angle_alpha                 109.026113
_cell_angle_beta                  110.298113
_cell_angle_gamma                 109.735262
_cell_volume                      2630.12970099

loop_
_atom_site_label
_atom_site_type_symbol
_atom_type_description
_atom_site_fract_x
_atom_site_fract_y
_atom_site_fract_z
_atom_type_partial_charge
C1    C     C_R   0.202013 0.007064 0.918548 0.203042
C2    C     C_R   0.802428 0.002357 0.093430 0.157754
C3    C     C_R   0.776290 0.326411 0.323881 0.013685
C4    C     C_R   0.130104 0.700150 0.699620 0.012039
C5    C     C_R   0.499601 0.974727 0.315870 0.060263
C6    C     C_R   0.501029 0.956398 0.677410 0.092769
C7    C     C_R   0.499721 0.297265 0.928004 -0.042616
C8    C     C_R   0.507418 0.678472 0.960265 -0.047343
C9    C     C_R   0.191873 0.110254 0.578534 -0.196349
C10   C     C_R   0.902344 0.772480 0.225145 -0.154731
C11   C     C_R   0.295251 0.202834 0.656518 0.239271
C12   C     C_R   0.788120 0.706660 0.166991 0.212442
C13   C     C_R   0.307399 0.284625 0.746333 -0.034269
C14   C     C_R   0.727454 0.673873 0.055613 -0.022717
C15   C     C_R   0.214178 0.275844 0.752163 -0.181131
C16   C     C_R   0.783126 0.711138 0.006139 -0.158417
C17   C     C_R   0.111291 0.184085 0.673076 -0.100218
C18   C     C_R   0.896700 0.780943 0.066617 -0.122684
C19   C     C_R   0.101026 0.099433 0.588857 0.311089
C20   C     C_R   0.956504 0.811139 0.175910 0.297864
C21   C     C_R   0.423793 0.482252 0.839678 -0.131126
C22   C     C_R   0.603012 0.484215 0.976072 -0.119542
C23   C     C_R   0.749601 0.224390 0.313525 -0.041468
C24   C     C_R   0.193331 0.793328 0.703645 -0.044295
C25   C     C_R   0.517731 0.581404 0.924706 0.082645
C26   C     C_R   0.504040 0.386248 0.905938 0.102071
C27   C     C_R   0.613270 0.580924 0.984552 0.056853
C28   C     C_R   0.414308 0.383914 0.830436 0.071140
C29   C     C_R   0.876194 0.528506 0.426649 -0.100906
C30   C     C_R   0.961397 0.525453 0.620906 -0.084510
C31   C     C_R   0.965417 0.622444 0.521143 -0.057956
C32   C     C_R   0.872015 0.431482 0.526307 -0.082972
C33   C     C_R   0.015101 0.618367 0.616158 0.130366
C34   C     C_R   0.836585 0.429901 0.426501 0.108054
C35   C     C_R   0.453217 0.858642 0.486688 0.559919
C36   C     C_R   0.558400 0.064134 0.507030 0.552095
C37   C     C_R   0.448872 0.865388 0.396364 -0.246184
C38   C     C_R   0.562848 0.057245 0.596310 -0.252565
C39   C     C_R   0.500562 0.967832 0.407256 -0.086835
C40   C     C_R   0.508809 0.955414 0.585883 -0.100173
C41   C     C_R   0.960926 0.910734 0.908101 0.478558
C42   C     C_R   0.045989 0.096802 0.108108 0.484086
C43   C     C_R   0.889736 0.936852 0.932533 0.065936
C44   C     C_R   0.117036 0.070525 0.083633 0.118611
C45   C     C_R   0.408029 0.930251 0.217903 -0.073364
C46   C     C_R   0.591356 0.024237 0.780162 -0.099657
C47   C     C_R   0.933739 0.029926 0.032805 -0.245977
C48   C     C_R   0.073095 0.977723 0.983539 -0.237555
C49   C     C_R   0.590194 0.292313 0.986396 0.401123
C50   C     C_R   0.412492 0.685048 0.945274 0.462305
C51   C     C_R   0.590926 0.013882 0.307860 0.231260
C52   C     C_R   0.408706 0.942132 0.684712 0.239966
C53   C     C_R   0.409445 0.208868 0.904979 -0.133297
C54   C     C_R   0.594718 0.782520 0.028908 -0.127473
C55   C     C_R   0.749075 0.313990 0.221259 -0.049570
C56   C     C_R   0.194816 0.701214 0.790853 -0.041580
C57   C     C_R   0.201981 0.912646 0.005456 0.180690
C58   C     C_R   0.802332 0.091209 0.001728 0.199003
C59   C     C_R   0.146766 0.954169 0.957387 0.097165
C60   C     C_R   0.860640 0.056301 0.057761 0.111523
H1    H     H_    0.182264 0.045983 0.510757 0.204027
H2    H     H_    0.949421 0.793380 0.308661 0.184018
H3    H     H_    0.221670 0.339162 0.819415 0.214198
H4    H     H_    0.738808 0.683297 0.919890 0.195329
H5    H     H_    0.040746 0.176182 0.680711 0.186902
H6    H     H_    0.938522 0.809592 0.028008 0.163216
H7    H     H_    0.354584 0.481366 0.784113 0.182711
H8    H     H_    0.673471 0.489824 0.034302 0.179814
H9    H     H_    0.846605 0.532001 0.352436 0.138702
H10   H     H_    0.993761 0.521049 0.694305 0.152684
H11   H     H_    0.001249 0.694138 0.515433 0.145146
H12   H     H_    0.838620 0.358518 0.530750 0.164801
H13   H     H_    0.406344 0.791701 0.318417 0.200912
H14   H     H_    0.604207 0.131972 0.673094 0.216073
H15   H     H_    0.760263 0.205824 0.377579 0.142015
H16   H     H_    0.160620 0.830209 0.661750 0.147884
H17   H     H_    0.324720 0.881875 0.195430 0.174340
H18   H     H_    0.675049 0.056295 0.800074 0.165662
H19   H     H_    0.326024 0.180739 0.850310 0.163899
H20   H     H_    0.679170 0.810907 0.056606 0.158694
H21   H     H_    0.757826 0.375582 0.198163 0.138025
H22   H     H_    0.164991 0.652103 0.823180 0.182956
N1    N     N_R   0.293810 0.002730 0.945950 -0.091004
N2    N     N_R   0.706190 0.997270 0.054050 -0.091896
N3    N     N_R   0.706160 0.152130 0.208910 -0.049996
N4    N     N_R   0.293840 0.847870 0.791090 -0.057660
N5    N     N_R   0.443140 0.945920 0.152090 -0.065848
N6    N     N_R   0.556860 0.054080 0.847910 -0.053111
N7    N     N_R   0.556830 0.208940 0.002760 -0.083273
N8    N     N_R   0.443170 0.791060 0.997240 -0.083392
N9    N     N_R   0.556790 0.002750 0.208910 -0.081587
N10   N     N_R   0.443210 0.997250 0.791090 -0.083536
N11   N     N_R   0.443180 0.152110 0.945950 -0.064009
N12   N     N_R   0.556820 0.847890 0.054050 -0.065771
N13   N     N_R   0.706170 0.208950 0.152090 -0.044158
N14   N     N_R   0.293830 0.791050 0.847910 -0.057847
N15   N     N_R   0.293800 0.945910 0.002760 -0.089539
N16   N     N_R   0.706200 0.054090 0.997240 -0.091358
Ni1   Ni    Ni4+2 0.369690 0.999990 0.869700 0.244676
Ni2   Ni    Ni4+2 0.630310 0.000010 0.130300 0.279552
Ni3   Ni    Ni4+2 0.369670 0.869670 0.000000 0.274103
Ni4   Ni    Ni4+2 0.630330 0.130330 0.000000 0.307936
I1    I     I_    0.120618 0.029295 0.792013 -0.362148
I2    I     I_    0.880440 0.007432 0.241749 -0.304157
I3    I     I_    0.428015 0.216998 0.632226 -0.220024
I4    I     I_    0.711702 0.655120 0.249580 -0.286779
Cl1   Cl    Cl    0.388750 0.729901 0.473745 -0.509287
Cl2   Cl    Cl    0.621358 0.194528 0.522020 -0.585693
Cl3   Cl    Cl    0.910759 0.793659 0.784657 -0.528375
Cl4   Cl    Cl    0.096720 0.214213 0.231377 -0.481360
I5    I     I_    0.716640 0.834214 0.817156 -0.268404
I6    I     I_    0.290298 0.172622 0.197839 -0.156254
Cl5   Cl    Cl    0.711498 0.337723 0.981948 -0.630310
Cl6   Cl    Cl    0.285873 0.578604 0.904827 -0.689284
I7    I     I_    0.740434 0.030591 0.408600 -0.277096
I8    I     I_    0.257549 0.893203 0.552212 -0.373594
I9    I     I_    0.120690 0.766083 0.002885 -0.316802
I10   I     I_    0.879591 0.223291 0.981854 -0.162601
I11   I     I_    0.953036 0.950079 0.488605 -0.232692
I12   I     I_    0.127647 0.919216 0.268903 -0.285533

loop_
_geom_bond_atom_site_label_1
_geom_bond_atom_site_label_2
_ccdc_geom_bond_type
C49   Cl5   S    
N5    N9    A    
N7    Ni4   S    
C36   Cl2   S    
C11   C13   A    
C2    N2    A    
C58   N16   A    
C32   H12   S    
C7    C26   S    
C43   I5    S    
C9    H1    S    
C38   C40   A    
C1    C59   A    
C4    C24   A    
C2    C60   A    
C57   C59   A    
C58   C60   A    
C58   I10   S    
C53   H19   S    
C18   C20   A    
C15   C17   A    
C21   C25   A    
C51   N9    A    
C47   C60   S    
N5    Ni3   S    
C3    C23   A    
C50   N8    A    
N6    N10   A    
C10   C20   A    
C11   I3    S    
C31   C33   A    
C13   C28   S    
C2    I2    S    
C14   C27   S    
C55   H21   S    
C1    I1    S    
C29   H9    S    
N13   Ni4   S    
C12   I4    S    
C31   H11   S    
C19   I11   S    
N1    Ni1   S    
N14   Ni3   S    
C4    C56   A    
C8    C25   S    
C41   C43   A    
C10   H2    S    
C42   C44   A    
C26   C28   A    
C30   H10   S    
C9    C19   A    
N8    N12   A    
C54   H20   S    
C52   I8    S    
C53   N11   A    
N2    Ni2   S    
C7    C49   A    
C55   N13   A    
C8    C54   A    
C46   H18   S    
C24   H16   S    
C41   Cl3   S    
C3    C34   S    
N16   Ni4   S    
C5    C45   A    
C29   C34   A    
C51   I7    S    
C50   Cl6   S    
C32   C34   A    
N8    Ni3   S    
N12   Ni2   S    
C29   C31   A    
C57   N15   A    
N4    N14   A    
N4    Ni1   S    
C9    C11   A    
C22   H8    S    
C10   C12   A    
C44   I6    S    
C37   H13   S    
C21   C28   A    
C12   C14   A    
C22   C27   A    
C5    C39   S    
N1    N15   A    
N9    Ni2   S    
C14   C16   A    
C52   N10   A    
C1    N1    A    
C7    C53   A    
C8    C50   A    
C20   I12   S    
C35   C37   A    
C48   C59   S    
C57   I9    S    
C38   H14   S    
C56   N14   A    
N11   Ni1   S    
C4    C33   S    
C49   N7    A    
C6    C46   A    
C30   C33   A    
C45   N5    A    
C17   H5    S    
C36   C39   A    
C23   H15   S    
N6    Ni4   S    
C56   H22   S    
C25   C27   A    
C3    C55   A    
C46   N6    A    
N2    N16   A    
C13   C15   A    
C35   C40   A    
C42   Cl4   S    
C23   N3    A    
C37   C39   A    
N3    Ni2   S    
C30   C32   A    
N3    N13   A    
C43   C47   A    
C36   C38   A    
C17   C19   A    
C41   C48   A    
C6    C40   S    
C42   C47   A    
N7    N11   A    
C18   H6    S    
N15   Ni3   S    
C54   N12   A    
C35   Cl1   S    
C16   C18   A    
C22   C26   A    
C15   H3    S    
C5    C51   A    
C45   H17   S    
C16   H4    S    
C6    C52   A    
C24   N4    A    
C21   H7    S    
C44   C48   A    
N10   Ni1   S    
