data_mof_unit_3015.cif
_audit_creation_date              2012-12-11T17:06:34-0500
_audit_creation_method            fapswitch 2.2
_symmetry_space_group_name_H-M    P1
_symmetry_Int_Tables_number       1
_space_group_crystal_system       triclinic
_cell_length_a                    6.959676
_cell_length_b                    14.706105
_cell_length_c                    15.82346
_cell_angle_alpha                 90.316507
_cell_angle_beta                  90.12204
_cell_angle_gamma                 90.413687
_cell_volume                      1619.45605937

loop_
_atom_site_label
_atom_site_type_symbol
_atom_type_description
_atom_site_fract_x
_atom_site_fract_y
_atom_site_fract_z
_atom_type_partial_charge
O1    O     O_R   0.494400 0.415450 0.412630 -0.541912
O2    O     O_R   0.823940 0.405730 0.586760 -0.523598
O3    O     O_R   0.994240 0.584550 0.587370 -0.531313
C1    C     C_R   0.654412 0.384156 0.615631 0.726561
O4    O     O_R   0.824110 0.404430 0.413240 -0.552968
O5    O     O_R   0.994420 0.583240 0.412620 -0.526965
C2    C     C_R   0.654886 0.382319 0.384170 0.685605
O6    O     O_R   0.494230 0.416760 0.587380 -0.523110
O7    O     O_3   0.660800 0.558670 0.500000 -0.349907
V1    V     V_3+5 0.935650 0.489120 0.500000 1.540769
O8    O     O_R   0.324140 0.594270 0.413240 -0.521372
C3    C     C_R   0.155230 0.616778 0.384941 0.763312
O9    O     O_R   0.323960 0.595570 0.586760 -0.546041
C4    C     C_R   0.156282 0.615217 0.617121 0.768973
V2    V     V_3+5 0.435660 0.510880 0.500000 1.547514
O10   O     O_3   0.160640 0.441330 0.500000 -0.359258
C5    C     C_3   0.957817 0.716226 0.726218 -0.114851
C6    C     C_3   0.051813 0.711933 0.814439 0.155417
H1    H     H_    0.812033 0.690626 0.709616 0.178902
C7    C     C_3   0.121017 0.810920 0.808134 -0.179812
C8    C     C_3   0.032207 0.815178 0.718382 0.409035
C9    C     C_3   0.222059 0.781514 0.679082 -0.163366
C10   C     C_3   0.309596 0.775739 0.768852 0.363502
C11   C     C_3   0.240664 0.675910 0.776848 -0.187839
C12   C     C_3   0.148554 0.683045 0.687856 -0.197844
H2    H     H_    0.294572 0.810700 0.622876 0.197300
H3    H     H_    0.329409 0.620384 0.802732 0.139648
C13   C     C_R   0.224067 0.732824 0.173628 0.066667
C14   C     C_R   0.116415 0.812339 0.180237 -0.134905
C15   C     C_R   0.003295 0.822649 0.253571 -0.242081
H4    H     H_    0.911215 0.881368 0.259933 0.157258
C16   C     C_R   0.017486 0.760613 0.321603 0.363445
C17   C     C_R   0.142288 0.684774 0.316384 -0.159225
C18   C     C_R   0.235151 0.670801 0.238972 0.005761
C19   C     C_3   0.433999 0.643322 0.214176 0.013758
C20   C     C_3   0.421362 0.712809 0.142337 -0.419601
H5    H     H_    0.442144 0.571351 0.192556 0.129097
H6    H     H_    0.418725 0.680559 0.078660 0.167252
H7    H     H_    0.520666 0.772070 0.148817 0.183605
C21   C     C_R   0.526123 0.327883 0.754866 -0.055083
C22   C     C_R   0.644323 0.316293 0.684002 -0.118354
C23   C     C_R   0.760778 0.239011 0.681314 -0.018858
H8    H     H_    0.848868 0.226408 0.626243 0.186361
C24   C     C_R   0.758688 0.174795 0.746799 0.184817
C25   C     C_R   0.627898 0.183647 0.815141 -0.180368
C26   C     C_R   0.518015 0.262862 0.818917 0.001294
C27   C     C_3   0.306575 0.272444 0.831287 0.006578
C28   C     C_3   0.313193 0.342077 0.759837 0.537599
H9    H     H_    0.224076 0.209217 0.816935 0.139880
C29   C     C_R   0.495015 0.315694 0.254545 0.095976
C30   C     C_R   0.646834 0.316306 0.312873 -0.106310
C31   C     C_R   0.797760 0.254733 0.298402 -0.159713
H10   H     H_    0.919092 0.253057 0.341071 0.140928
C32   C     C_R   0.787428 0.190266 0.232205 -0.162812
H11   H     H_    0.901276 0.141055 0.225936 0.129365
C33   C     C_R   0.625621 0.185184 0.178555 -0.104423
C34   C     C_R   0.484361 0.251676 0.189317 0.106975
C35   C     C_3   0.272471 0.241113 0.198921 -0.404153
C36   C     C_3   0.284056 0.311208 0.269752 -0.399051
H12   H     H_    0.231970 0.172050 0.221107 0.173745
H13   H     H_    0.192706 0.265401 0.142547 0.173629
H14   H     H_    0.249647 0.283052 0.333015 0.183385
H15   H     H_    0.211695 0.376170 0.254183 0.160730
O11   O     O_R   0.771650 0.079500 0.908680 -0.547134
O12   O     O_R   0.441690 0.091800 0.082800 -0.547420
O13   O     O_R   0.271460 0.912980 0.083410 -0.539671
C37   C     C_R   0.611231 0.114176 0.111693 0.679084
O14   O     O_R   0.441930 0.090510 0.909280 -0.542501
O15   O     O_R   0.271690 0.911670 0.908660 -0.511795
C38   C     C_R   0.611768 0.113347 0.881470 0.729390
O16   O     O_R   0.771410 0.080810 0.083440 -0.547689
O17   O     O_3   0.605100 0.937580 0.996050 -0.346651
V3    V     V_3+5 0.330220 0.007110 0.996030 1.456379
O18   O     O_R   0.941980 0.900620 0.909250 -0.518259
C39   C     C_R   0.110265 0.880107 0.878981 0.793307
O19   O     O_R   0.941740 0.901920 0.082770 -0.546862
C40   C     C_R   0.110208 0.880170 0.111647 0.718131
V4    V     V_3+5 0.830220 0.985300 0.996000 1.475300
O20   O     O_3   0.105210 0.054870 0.996020 -0.392415
N1    N     N_3   0.960003 0.672897 0.888596 -0.653535
H16   H     H_    0.922219 0.605853 0.873437 0.239933
H17   H     H_    0.831919 0.707900 0.898628 0.268294
N2    N     N_3   0.577960 0.666717 0.278325 -0.595898
H18   H     H_    0.713036 0.656209 0.251425 0.228451
H19   H     H_    0.568809 0.735769 0.294062 0.278042
N3    N     N_3   0.879118 0.097168 0.738325 -0.571054
H20   H     H_    0.984684 0.100175 0.785238 0.231849
H21   H     H_    0.793188 0.040141 0.749319 0.289077
N4    N     N_3   0.262534 0.311278 0.914143 -0.661732
H22   H     H_    0.114549 0.322893 0.915928 0.247347
H23   H     H_    0.290103 0.261611 0.959547 0.230657
N5    N     N_3   0.260918 0.434729 0.784520 -0.638885
H24   H     H_    0.283515 0.476351 0.732159 0.215195
H25   H     H_    0.354108 0.458398 0.831888 0.227524
Cl1   Cl    Cl    0.190500 0.304097 0.667118 -0.671274
Cl2   Cl    Cl    0.897976 0.898692 0.664603 -0.540936
Cl3   Cl    Cl    0.544931 0.814046 0.795386 -0.642405
Cl4   Cl    Cl    0.888726 0.784435 0.414788 -0.591394

loop_
_geom_bond_atom_site_label_1
_geom_bond_atom_site_label_2
_ccdc_geom_bond_type
C28   Cl1   S    
C22   C23   A    
C19   C20   S    
C11   H3    S    
C1    O6    A    
C27   H9    S    
C25   C26   A    
C31   H10   S    
C21   C26   A    
C6    C11   S    
C29   C36   S    
C13   C14   A    
C19   H5    S    
O19   V4    S    
O5    C3    A    
C15   H4    S    
N3    H21   S    
C1    C22   S    
C35   H12   S    
V2    O10   S    
O12   V3    S    
C33   C34   A    
C18   C19   S    
O17   V4    S    
C26   C27   S    
O8    V2    S    
N2    H18   S    
O12   C37   A    
C9    C12   S    
C28   N5    S    
C10   C11   S    
O15   V3    S    
O1    V2    S    
O11   C38   A    
N4    H23   S    
O7    V1    S    
C37   O16   A    
C35   H13   S    
C13   C18   A    
C8    C9    S    
C27   N4    S    
C23   C24   A    
C24   N3    S    
C31   C32   A    
C5    C6    S    
C32   C33   A    
O18   C39   A    
C30   C31   A    
C11   C12   S    
N1    H17   S    
O4    C2    A    
C19   N2    S    
N3    H20   S    
N1    H16   S    
C29   C30   A    
O14   V3    S    
O13   V3    S    
C5    C8    S    
C7    C39   S    
O2    C1    A    
C14   C15   A    
C27   C28   S    
C7    C10   S    
N5    H25   S    
C17   C18   A    
V3    O20   S    
O19   C40   A    
O3    C4    A    
C6    N1    S    
C21   C22   A    
N2    H19   S    
O6    V2    S    
O9    V2    S    
O18   V4    S    
C23   H8    S    
O2    V1    S    
C24   C25   A    
C21   C28   S    
O13   C40   A    
C32   H11   S    
C36   H14   S    
C10   Cl3   S    
C25   C38   S    
O1    C2    A    
C29   C34   A    
O11   V4    S    
C20   H7    S    
O17   V3    S    
O5    V1    S    
O8    C3    A    
C8    Cl2   S    
C33   C37   S    
C36   H15   S    
C5    C12   S    
C16   C17   A    
C20   H6    S    
C35   C36   S    
C2    C30   S    
O4    V1    S    
O3    V1    S    
V1    O10   S    
C15   C16   A    
V4    O20   S    
C34   C35   S    
C3    C17   S    
N5    H24   S    
C5    H1    S    
C16   Cl4   S    
O15   C39   A    
C6    C7    S    
C4    C12   S    
O7    V2    S    
C14   C40   S    
C7    C8    S    
C13   C20   S    
O14   C38   A    
C9    H2    S    
C9    C10   S    
N4    H22   S    
O9    C4    A    
O16   V4    S    
