data_mof_unit_2888.cif
_audit_creation_date              2013-03-05T15:45:10-0500
_audit_creation_method            fapswitch 2.2
_symmetry_space_group_name_H-M    P1
_symmetry_Int_Tables_number       1
_space_group_crystal_system       triclinic
_cell_length_a                    24.459724
_cell_length_b                    17.038199
_cell_length_c                    15.695643
_cell_angle_alpha                 90.089102
_cell_angle_beta                  50.146306
_cell_angle_gamma                 89.453041
_cell_volume                      5021.05490214

loop_
_atom_site_label
_atom_site_type_symbol
_atom_site_description
_atom_site_fract_x
_atom_site_fract_y
_atom_site_fract_z
_atom_type_partial_charge
C1    C     C_R   0.331342 0.106846 0.804179 0.399256
C2    C     C_R   0.649278 0.855880 0.243955 0.504606
C3    C     C_R   0.665976 0.114513 0.200751 0.409705
C4    C     C_R   0.332564 0.890331 0.798208 0.483383
C5    C     C_R   0.829528 0.599543 0.805984 0.410472
C6    C     C_R   0.152419 0.358877 0.237588 0.481944
C7    C     C_R   0.164870 0.615209 0.204884 0.491906
C8    C     C_R   0.848230 0.359730 0.762595 0.425508
N1    N     N_R   0.388930 0.078160 0.705470 -0.078542
N2    N     N_R   0.611070 0.921840 0.294530 -0.103675
N3    N     N_R   0.611070 0.078160 0.294530 -0.071888
N4    N     N_R   0.388930 0.921840 0.705470 -0.070170
N5    N     N_R   0.888930 0.578160 0.705470 -0.074995
N6    N     N_R   0.111070 0.421840 0.294530 -0.076526
N7    N     N_R   0.111070 0.578160 0.294530 -0.081083
N8    N     N_R   0.888930 0.421840 0.705470 -0.073260
C9    C     C_R   0.594203 0.137387 0.594552 -0.139235
C10   C     C_R   0.385216 0.898829 0.407465 -0.126476
C11   C     C_R   0.413242 0.145463 0.407555 -0.113325
C12   C     C_R   0.614079 0.898570 0.593335 -0.101275
C13   C     C_R   0.087074 0.644681 0.593740 -0.125056
C14   C     C_R   0.884968 0.400531 0.407864 -0.131570
C15   C     C_R   0.909873 0.644029 0.408659 -0.065133
C16   C     C_R   0.114847 0.398048 0.592057 -0.094700
H1    H     H_    0.563980 0.152031 0.681091 0.105516
H2    H     H_    0.407240 0.902205 0.322004 0.103656
H3    H     H_    0.443188 0.160139 0.321422 0.113281
H4    H     H_    0.590525 0.901522 0.679588 0.093770
H5    H     H_    0.056693 0.659701 0.680257 0.106566
H6    H     H_    0.907120 0.404254 0.322379 0.095567
H7    H     H_    0.934853 0.657378 0.324039 0.097120
H8    H     H_    0.092768 0.402589 0.677492 0.082503
N9    N     N_R   0.580500 0.077840 0.556650 -0.046954
N10   N     N_R   0.419500 0.922160 0.443350 -0.042650
N11   N     N_R   0.419500 0.077840 0.443350 -0.047686
N12   N     N_R   0.580500 0.922160 0.556650 -0.045461
N13   N     N_R   0.080500 0.577840 0.556650 -0.049730
N14   N     N_R   0.919500 0.422160 0.443350 -0.044062
N15   N     N_R   0.919500 0.577840 0.443350 -0.051223
N16   N     N_R   0.080500 0.422160 0.556650 -0.045167
C17   C     C_R   0.675572 0.130726 0.410063 -0.060162
C18   C     C_R   0.309412 0.905328 0.589525 0.029833
C19   C     C_R   0.339133 0.146826 0.592279 -0.096526
C20   C     C_R   0.690868 0.905731 0.411114 0.019294
C21   C     C_R   0.162009 0.645003 0.408982 -0.077141
C22   C     C_R   0.809502 0.404945 0.590826 -0.037557
C23   C     C_R   0.839068 0.646706 0.592575 -0.080401
C24   C     C_R   0.190516 0.401655 0.409280 -0.048346
H9    H     H_    0.726719 0.133006 0.328410 0.147648
H10   H     H_    0.260167 0.922583 0.668945 0.162059
H11   H     H_    0.300638 0.164836 0.677611 0.155930
H12   H     H_    0.739971 0.920778 0.330824 0.125954
H13   H     H_    0.201929 0.661620 0.324142 0.163498
H14   H     H_    0.760656 0.418465 0.672661 0.182793
H15   H     H_    0.803009 0.666157 0.677323 0.155932
H16   H     H_    0.239601 0.414148 0.327963 0.170615
N17   N     N_R   0.626210 0.077590 0.443410 -0.049453
N18   N     N_R   0.373790 0.922410 0.556590 -0.034850
N19   N     N_R   0.373790 0.077590 0.556590 -0.039668
N20   N     N_R   0.626210 0.922410 0.443410 -0.047384
N21   N     N_R   0.126210 0.577590 0.443410 -0.046698
N22   N     N_R   0.873790 0.422410 0.556590 -0.047589
N23   N     N_R   0.873790 0.577590 0.556590 -0.036884
N24   N     N_R   0.126210 0.422410 0.443410 -0.042384
C25   C     C_R   0.578854 0.102331 0.194505 -0.151288
C26   C     C_R   0.418535 0.899469 0.807861 -0.100517
C27   C     C_R   0.422264 0.108299 0.802562 -0.149089
C28   C     C_R   0.555453 0.853280 0.251877 -0.210129
C29   C     C_R   0.073276 0.620306 0.208648 -0.147684
C30   C     C_R   0.943924 0.354288 0.750069 -0.124256
C31   C     C_R   0.919462 0.601129 0.807222 -0.143817
C32   C     C_R   0.057255 0.353518 0.249779 -0.143165
H17   H     H_    0.549840 0.097183 0.164251 0.152601
H18   H     H_    0.445688 0.907004 0.840917 0.172159
H19   H     H_    0.451354 0.102594 0.832690 0.168222
H20   H     H_    0.514853 0.833182 0.249237 0.139767
H21   H     H_    0.042395 0.628525 0.182178 0.112453
H22   H     H_    0.985288 0.333623 0.751260 0.162502
H23   H     H_    0.948710 0.596175 0.837182 0.153702
H24   H     H_    0.014460 0.330970 0.254041 0.143777
N25   N     N_R   0.554800 0.077270 0.294580 -0.062190
N26   N     N_R   0.445200 0.922730 0.705420 -0.074465
N27   N     N_R   0.445200 0.077270 0.705420 -0.069897
N28   N     N_R   0.554800 0.922730 0.294580 -0.064248
N29   N     N_R   0.054800 0.577270 0.294580 -0.059383
N30   N     N_R   0.945200 0.422730 0.705420 -0.076528
N31   N     N_R   0.945200 0.577270 0.705420 -0.070334
N32   N     N_R   0.054800 0.422730 0.294580 -0.071120
C33   C     C_R   0.350299 0.128569 0.867847 -0.096689
C34   C     C_R   0.614481 0.810149 0.220488 -0.084405
C35   C     C_R   0.649230 0.124157 0.132497 -0.069779
C36   C     C_R   0.346817 0.880528 0.869283 -0.150715
C37   C     C_R   0.846440 0.614236 0.873464 -0.146507
C38   C     C_R   0.117852 0.310336 0.215208 -0.061333
C39   C     C_R   0.140524 0.649514 0.155777 -0.113997
C40   C     C_R   0.884129 0.311786 0.784231 -0.100783
C41   C     C_R   0.652269 0.174719 0.502464 0.034135
C42   C     C_R   0.315046 0.887739 0.498584 -0.017417
C43   C     C_R   0.363545 0.191361 0.500099 0.010726
C44   C     C_R   0.684854 0.889147 0.502757 -0.000039
C45   C     C_R   0.137762 0.689346 0.501833 0.037158
C46   C     C_R   0.814938 0.390521 0.499494 -0.010603
C47   C     C_R   0.861075 0.690155 0.501204 0.015514
C48   C     C_R   0.185002 0.385365 0.500588 -0.001371
Ni1   Ni    Ni4+2 0.382710 0.000000 0.629850 0.299137
Ni2   Ni    Ni4+2 0.617290 0.000000 0.370150 0.244198
Ni3   Ni    Ni4+2 0.882710 0.500000 0.629850 0.302318
Ni4   Ni    Ni4+2 0.117290 0.500000 0.370150 0.304129
Ni5   Ni    Ni4+2 0.513020 0.000000 0.629850 0.212738
Ni6   Ni    Ni4+2 0.486980 0.000000 0.370150 0.211820
Ni7   Ni    Ni4+2 0.013020 0.500000 0.629850 0.203077
Ni8   Ni    Ni4+2 0.986980 0.500000 0.370150 0.217637
C49   C     C_R   0.273978 0.298792 0.600897 -0.171388
C50   C     C_R   0.810740 0.850885 0.403739 -0.149845
C51   C     C_R   0.736594 0.283161 0.401252 -0.149940
C52   C     C_R   0.190956 0.844194 0.601323 -0.147802
C53   C     C_R   0.769605 0.795223 0.604047 -0.164594
C54   C     C_R   0.310672 0.345695 0.400005 -0.166021
C55   C     C_R   0.225989 0.796343 0.401486 -0.123524
C56   C     C_R   0.693358 0.343392 0.601662 -0.132111
H25   H     H_    0.257446 0.279950 0.679910 0.128024
H26   H     H_    0.827005 0.869333 0.324653 0.129373
H27   H     H_    0.754400 0.260811 0.322533 0.170263
H28   H     H_    0.176696 0.859726 0.680196 0.139786
H29   H     H_    0.750506 0.772142 0.682652 0.140402
H30   H     H_    0.325628 0.360959 0.320771 0.141630
H31   H     H_    0.241431 0.778072 0.322666 0.177198
H32   H     H_    0.676466 0.363818 0.680632 0.150444
C57   C     C_R   0.725647 0.847033 0.604488 -0.171488
C58   C     C_R   0.356703 0.297852 0.400053 -0.162301
C59   C     C_R   0.271012 0.846025 0.400493 -0.156319
C60   C     C_R   0.655165 0.284104 0.602490 -0.148321
C61   C     C_R   0.228197 0.347262 0.601006 -0.154768
C62   C     C_R   0.855561 0.800297 0.403556 -0.108952
C63   C     C_R   0.774808 0.342508 0.400504 -0.154057
C64   C     C_R   0.146123 0.794484 0.602233 -0.151192
H33   H     H_    0.675117 0.862635 0.683714 0.111670
H34   H     H_    0.405597 0.278673 0.320870 0.130051
H35   H     H_    0.319668 0.863866 0.321112 0.149571
H36   H     H_    0.609325 0.262466 0.682015 0.130674
H37   H     H_    0.178310 0.364276 0.680288 0.106722
H38   H     H_    0.905343 0.782475 0.324525 0.124222
H39   H     H_    0.821959 0.362682 0.321097 0.118928
H40   H     H_    0.098924 0.774383 0.681620 0.122768
C65   C     C_R   0.742340 0.867527 0.503850 0.126063
C66   C     C_R   0.334375 0.266773 0.500436 0.143534
C67   C     C_R   0.257074 0.863775 0.500094 0.105399
C68   C     C_R   0.681096 0.248567 0.502118 0.128620
C69   C     C_R   0.242992 0.363714 0.500541 0.139169
C70   C     C_R   0.831234 0.765509 0.503155 0.147546
C71   C     C_R   0.758095 0.365498 0.500549 0.132747
C72   C     C_R   0.167419 0.763684 0.502010 0.119011
C73   C     C_2   0.695937 0.158553 0.019034 0.442179
C74   C     C_2   0.293491 0.864506 0.989439 0.435791
C75   C     C_2   0.300649 0.136248 0.991803 0.410587
C76   C     C_2   0.632140 0.726553 0.190596 0.429412
C77   C     C_2   0.152587 0.732553 0.137507 0.365836
C78   C     C_2   0.873777 0.225881 0.806382 0.312922
C79   C     C_2   0.797321 0.633099 0.993652 0.376318
C80   C     C_2   0.118431 0.224055 0.228608 0.327120
C81   C     C_2   0.768772 0.149760 0.946709 -0.170954
C82   C     C_2   0.227500 0.842987 0.031960 -0.014412
C83   C     C_2   0.242316 0.186657 0.050603 -0.078307
C84   C     C_2   0.685642 0.705990 0.083579 -0.111296
C85   C     C_2   0.212781 0.758230 0.042136 -0.076638
C86   C     C_2   0.815048 0.188984 0.835432 0.060474
C87   C     C_2   0.726053 0.630272 0.054288 0.045130
C88   C     C_2   0.180289 0.181296 0.176474 -0.108053
Cl1   Cl    Cl    0.245251 0.082351 0.857465 -0.748021
Cl2   Cl    Cl    0.732901 0.833021 0.203095 -0.656132
Cl3   Cl    Cl    0.709905 0.194623 0.202476 -0.787097
Cl4   Cl    Cl    0.261614 0.853124 0.810364 -0.764505
Cl5   Cl    Cl    0.745140 0.578366 0.847803 -0.711005
Cl6   Cl    Cl    0.242611 0.351018 0.174950 -0.728522
Cl7   Cl    Cl    0.254960 0.593802 0.136124 -0.652013
Cl8   Cl    Cl    0.758771 0.352305 0.822528 -0.627926
C89   C     C_R   0.172879 0.899712 0.050449 0.196152
C90   C     C_R   0.118492 0.873510 0.049280 0.034207
C91   C     C_R   0.064974 0.924646 0.074081 -0.119622
C92   C     C_R   0.063982 0.002558 0.101740 -0.043684
C93   C     C_R   0.116836 0.029263 0.103641 -0.020699
C94   C     C_R   0.171351 0.978553 0.077169 -0.101028
H41   H     H_    0.117363 0.813409 0.028309 0.102982
H42   H     H_    0.024027 0.903625 0.072444 0.110414
H43   H     H_    0.022307 0.042264 0.121714 0.102521
H44   H     H_    0.115454 0.089567 0.125473 0.120638
H45   H     H_    0.211457 0.000379 0.079684 0.158576
C95   C     C_R   0.804971 0.093920 0.970122 0.130071
C96   C     C_R   0.795501 0.012856 0.969882 -0.214757
C97   C     C_R   0.831547 0.960062 0.987229 -0.029207
C98   C     C_R   0.876164 0.987527 0.006996 -0.067451
C99   C     C_R   0.885546 0.068063 0.008198 -0.132889
C100  C     C_R   0.850573 0.121078 0.989099 0.055534
H46   H     H_    0.760686 0.990739 0.955476 0.124699
H47   H     H_    0.825073 0.897755 0.985282 0.166633
H48   H     H_    0.903558 0.946382 0.021134 0.131095
H49   H     H_    0.920154 0.089434 0.023439 0.115921
H50   H     H_    0.858531 0.183361 0.990168 0.133501
C101  C     C_R   0.703874 0.759474 0.993276 0.131168
C102  C     C_R   0.771838 0.792287 0.917150 -0.122827
C103  C     C_R   0.785546 0.846783 0.839276 -0.146462
C104  C     C_R   0.731465 0.869889 0.837402 -0.129578
C105  C     C_R   0.664140 0.836663 0.910981 -0.105054
C106  C     C_R   0.650454 0.781434 0.988101 -0.097711
H51   H     H_    0.813978 0.778105 0.919226 0.163400
H52   H     H_    0.837805 0.872379 0.781793 0.142232
H53   H     H_    0.742017 0.912786 0.777944 0.119170
H54   H     H_    0.622477 0.853896 0.908498 0.119378
H55   H     H_    0.597760 0.756687 0.045290 0.105010
C107  C     C_R   0.238260 0.247358 0.985745 0.105521
C108  C     C_R   0.181415 0.249722 0.984056 -0.064852
C109  C     C_R   0.178138 0.307761 0.924520 -0.126098
C110  C     C_R   0.231541 0.363802 0.865775 -0.126000
C111  C     C_R   0.288651 0.361522 0.865690 -0.078565
C112  C     C_R   0.292206 0.303530 0.924967 -0.070842
H56   H     H_    0.139492 0.206975 0.028996 0.127320
H57   H     H_    0.134130 0.309295 0.923945 0.115661
H58   H     H_    0.228849 0.408758 0.819864 0.112391
H59   H     H_    0.330123 0.404834 0.819865 0.126030
H60   H     H_    0.336682 0.302800 0.924497 0.152328
C113  C     C_R   0.812485 0.161424 0.746302 0.190758
C114  C     C_R   0.767500 0.099654 0.766064 -0.069789
C115  C     C_R   0.761563 0.077960 0.686323 -0.110348
C116  C     C_R   0.800858 0.116517 0.584943 -0.105494
C117  C     C_R   0.847180 0.175962 0.562205 -0.047532
C118  C     C_R   0.853828 0.197560 0.641138 -0.024282
H61   H     H_    0.736151 0.067978 0.843297 0.106124
H62   H     H_    0.725994 0.031426 0.703478 0.108876
H63   H     H_    0.795700 0.100020 0.523763 0.114053
H64   H     H_    0.877963 0.205602 0.483217 0.154064
H65   H     H_    0.891108 0.243137 0.619129 0.138767
C119  C     C_R   0.257827 0.704778 0.942798 0.131101
C120  C     C_R   0.227592 0.668582 0.901088 -0.064011
C121  C     C_R   0.268167 0.617397 0.809889 -0.086495
C122  C     C_R   0.339271 0.601618 0.759373 -0.083299
C123  C     C_R   0.369807 0.636840 0.800222 -0.076917
C124  C     C_R   0.329360 0.687924 0.891621 -0.039265
H66   H     H_    0.172536 0.680203 0.939194 0.099225
H67   H     H_    0.244426 0.589886 0.778472 0.107517
H68   H     H_    0.370609 0.561836 0.688905 0.123292
H69   H     H_    0.424777 0.624085 0.761541 0.137020
H70   H     H_    0.353834 0.712602 0.923099 0.180402
C125  C     C_R   0.185380 0.131376 0.249691 0.235532
C126  C     C_R   0.148472 0.060302 0.293965 -0.047025
C127  C     C_R   0.153475 0.015529 0.363385 -0.020309
C128  C     C_R   0.194124 0.041815 0.391359 -0.058919
C129  C     C_R   0.229532 0.113146 0.350436 -0.091871
C130  C     C_R   0.224979 0.157869 0.280497 -0.027390
H71   H     H_    0.114516 0.040133 0.277257 0.141576
H72   H     H_    0.125221 0.960753 0.396394 0.146574
H73   H     H_    0.197711 0.007244 0.445450 0.121445
H74   H     H_    0.260704 0.133778 0.372669 0.122063
H75   H     H_    0.253509 0.212333 0.248976 0.169831
C131  C     C_R   0.690026 0.552358 0.081396 0.180503
C132  C     C_R   0.724727 0.482336 0.072881 -0.134305
C133  C     C_R   0.691422 0.409881 0.097445 -0.013379
C134  C     C_R   0.623050 0.406021 0.131319 0.018409
C135  C     C_R   0.587978 0.474554 0.140025 -0.106675
C136  C     C_R   0.621054 0.547212 0.115218 0.019790
H76   H     H_    0.777625 0.483396 0.047409 0.119299
H77   H     H_    0.718730 0.356630 0.090095 0.165520
H78   H     H_    0.597254 0.349902 0.150707 0.158385
H79   H     H_    0.535076 0.471387 0.165787 0.127809
H80   H     H_    0.592854 0.599121 0.121311 0.107797
Cl9   Cl    Cl    0.325038 0.834962 0.058964 -0.631006
Cl10  Cl    Cl    0.651730 0.213287 0.983298 -0.625839
Cl11  Cl    Cl    0.604545 0.663766 0.300999 -0.603858
Cl12  Cl    Cl    0.322425 0.070137 0.053318 -0.688136
Cl13  Cl    Cl    0.953208 0.169103 0.731779 -0.653482
Cl14  Cl    Cl    0.097022 0.793387 0.257887 -0.685195
Cl15  Cl    Cl    0.038121 0.190480 0.354760 -0.711447
Cl16  Cl    Cl    0.832516 0.685549 0.045158 -0.596233

loop_
_geom_bond_atom_site_label_1
_geom_bond_atom_site_label_2
_geom_bond_distance
_ccdc_geom_bond_type
C123  H69   1.082333 S    
C40   C78   1.491030 S    
C127  H72   1.082577 S    
C52   H28   1.080765 S    
C27   N27   1.347038 A    
C97   C98   1.396241 A    
C30   H22   1.079532 S    
C20   C44   1.378888 A    
C103  C104  1.394864 A    
C113  C118  1.414919 A    
C31   C37   1.390192 A    
C29   H21   1.078490 S    
C135  H79   1.082382 S    
C10   H2    1.080488 S    
C3    N3    1.356089 A    
C24   H16   1.075877 S    
N5    Ni3   1.853567 S    
N29   Ni8   1.848440 S    
C5    Cl5   1.760723 S    
C116  C117  1.393462 A    
C18   N18   1.340699 A    
C31   H23   1.081724 S    
C90   C91   1.395799 A    
C122  C123  1.396477 A    
N20   Ni2   1.854241 S    
C129  H74   1.082777 S    
N3    N25   1.376072 A    
C22   C46   1.373680 A    
C102  H51   1.077120 S    
C78   Cl13  1.768199 S    
C124  H70   1.078196 S    
C22   N22   1.332817 A    
C131  C136  1.410921 A    
N11   N19   1.364669 A    
C126  C127  1.398499 A    
C35   C73   1.492844 S    
C81   C95   1.492063 S    
C111  H59   1.082453 S    
C18   C42   1.375493 A    
C55   H31   1.080605 S    
C23   N23   1.338325 A    
N4    Ni1   1.854134 S    
C15   N15   1.336002 A    
C58   C66   1.402274 A    
C33   C75   1.498374 S    
C88   C125  1.497997 S    
C62   H38   1.081436 S    
C109  H57   1.082300 S    
N1    Ni1   1.853567 S    
C118  H65   1.079096 S    
C14   N14   1.329565 A    
C27   C33   1.394027 A    
C25   H17   1.081580 S    
C123  C124  1.398215 A    
C3    C35   1.379883 A    
C134  C135  1.395791 A    
C122  H68   1.082354 S    
C21   N21   1.338913 A    
C37   C79   1.480310 S    
N21   Ni4   1.854660 S    
C98   H48   1.082453 S    
C79   Cl16  1.760006 S    
C82   C89   1.510251 S    
C8    C40   1.386714 A    
N8    Ni3   1.854134 S    
C32   N32   1.353014 A    
C132  H76   1.082473 S    
C96   H46   1.082107 S    
C2    N2    1.338993 A    
C15   C47   1.381551 A    
C60   H36   1.080140 S    
C115  C116  1.393739 A    
C79   C87   1.349905 D    
C102  C103  1.397408 A    
C6    C38   1.383952 A    
C7    Cl7   1.757558 S    
C106  H55   1.083286 S    
N13   Ni7   1.849142 S    
C85   C119  1.499696 S    
C28   C34   1.390790 A    
C103  H52   1.082538 S    
N27   Ni5   1.823078 S    
C59   C67   1.401828 A    
C53   C70   1.399932 A    
C4    N4    1.323725 A    
N7    Ni4   1.854135 S    
C53   C57   1.381181 A    
C120  C121  1.397624 A    
C5    N5    1.335279 A    
C90   H41   1.081138 S    
C47   C70   1.461315 S    
C84   C101  1.496624 S    
C19   N19   1.339492 A    
C46   C71   1.448106 S    
N7    N29   1.376072 A    
C34   C76   1.470321 S    
C32   C38   1.407046 A    
C5    C37   1.385008 A    
C74   Cl9   1.764398 S    
C7    N7    1.324937 A    
C108  H56   1.080897 S    
C21   H13   1.070889 S    
C101  C102  1.406340 A    
C8    N8    1.339360 A    
C87   C131  1.504476 S    
C56   C60   1.376887 A    
C127  C128  1.396178 A    
C2    C34   1.371435 A    
N8    N30   1.376077 A    
C54   H30   1.080653 S    
C23   C47   1.384195 A    
C22   H14   1.075785 S    
C96   C97   1.397820 A    
C9    N9    1.325062 A    
C61   C69   1.402851 A    
C86   C113  1.514054 S    
C17   H9    1.074830 S    
C11   H3    1.078016 S    
C64   C72   1.401161 A    
C83   C107  1.498832 S    
C100  H50   1.082760 S    
N24   Ni4   1.854241 S    
N16   Ni7   1.823805 S    
C116  H63   1.082650 S    
C128  H73   1.082353 S    
C1    C33   1.395199 A    
N6    Ni4   1.853571 S    
C17   N17   1.328065 A    
C51   H27   1.080261 S    
C104  C105  1.395849 A    
N4    N26   1.376077 A    
C134  H78   1.082277 S    
C28   N28   1.353946 A    
N26   Ni5   1.848438 S    
C1    N1    1.345671 A    
C136  H80   1.081982 S    
C126  H71   1.077519 S    
C77   C85   1.337722 D    
C59   H35   1.081095 S    
C11   C43   1.383612 A    
C130  H75   1.078968 S    
C26   C36   1.398227 A    
N22   Ni3   1.854663 S    
C6    Cl6   1.750853 S    
C48   C69   1.461734 S    
C75   C83   1.382635 D    
C93   C94   1.401428 A    
C13   H5    1.078740 S    
C51   C68   1.400112 A    
N28   Ni6   1.823082 S    
C98   C99   1.395493 A    
C73   C81   1.373787 D    
C95   C96   1.403034 A    
C16   C48   1.373646 A    
C15   H7    1.073575 S    
C49   C66   1.400986 A    
C54   C69   1.401979 A    
C30   C40   1.402619 A    
C120  H66   1.082895 S    
C16   H8    1.080051 S    
C113  C114  1.414324 A    
C54   C58   1.384088 A    
C55   C59   1.387577 A    
C6    N6    1.338028 A    
C82   C85   1.475635 S    
C25   N25   1.348381 A    
C108  C109  1.398175 A    
C12   C44   1.372380 A    
C110  C111  1.396201 A    
C44   C65   1.460878 S    
C93   H44   1.075948 S    
C125  C130  1.408403 A    
C133  C134  1.395127 A    
N5    N31   1.375787 A    
N3    Ni2   1.854135 S    
C56   H32   1.080605 S    
C117  C118  1.398090 A    
C50   C62   1.386621 A    
C57   H33   1.080490 S    
N19   Ni1   1.854242 S    
C99   H49   1.082356 S    
N25   Ni6   1.848440 S    
C10   N10   1.337715 A    
N31   Ni7   1.823078 S    
N11   Ni6   1.823803 S    
C21   C45   1.388050 A    
C97   H47   1.078108 S    
N1    N27   1.375787 A    
C30   N30   1.351726 A    
C31   N31   1.348540 A    
N32   Ni8   1.823082 S    
N15   Ni8   1.823803 S    
C43   C66   1.462072 S    
C18   H10   1.076514 S    
C95   C100  1.407903 A    
C89   C90   1.418414 A    
C104  H53   1.081087 S    
C3    Cl3   1.755982 S    
C119  C124  1.406205 A    
N10   Ni6   1.849142 S    
C41   C68   1.446513 S    
C17   C41   1.385311 A    
N2    Ni2   1.853571 S    
C27   H19   1.081398 S    
C121  C122  1.395973 A    
N23   Ni3   1.854242 S    
C132  C133  1.398005 A    
C58   H34   1.080715 S    
C12   H4    1.080189 S    
C1    Cl1   1.751738 S    
C29   N29   1.337630 A    
C92   C93   1.392792 A    
C78   C86   1.358430 D    
C23   H15   1.070758 S    
C89   C94   1.399631 A    
C2    Cl2   1.746256 S    
C55   C72   1.404417 A    
C25   C35   1.383758 A    
C128  C129  1.396168 A    
C80   Cl15  1.773826 S    
C38   C80   1.486584 S    
N30   Ni7   1.848438 S    
C4    Cl4   1.745548 S    
C62   C70   1.402356 A    
C39   C77   1.439397 S    
C60   C68   1.399937 A    
C57   C65   1.400542 A    
C74   C82   1.347829 D    
C84   C87   1.498032 S    
C81   C86   1.504206 S    
C50   C65   1.403122 A    
C19   C43   1.389413 A    
C29   C39   1.381788 A    
C14   C46   1.371318 A    
C20   H12   1.078598 S    
C52   C67   1.403521 A    
N13   N21   1.364585 A    
C129  C130  1.398478 A    
C8    Cl8   1.748268 S    
C52   C64   1.384844 A    
N9    N17   1.364585 A    
C28   H20   1.079035 S    
C49   H25   1.079598 S    
C7    C39   1.368711 A    
C105  H54   1.082342 S    
C45   C72   1.466490 S    
C61   H37   1.080508 S    
C117  H64   1.082500 S    
N16   N24   1.364669 A    
C110  H58   1.082544 S    
C9    H1    1.078042 S    
C99   C100  1.397258 A    
N18   Ni1   1.854663 S    
C131  C132  1.412948 A    
C73   Cl10  1.764429 S    
C83   C88   1.541052 S    
C13   C45   1.387942 A    
C64   H40   1.080689 S    
C11   N11   1.332461 A    
C112  H60   1.083101 S    
C49   C61   1.384140 A    
C26   N26   1.352988 A    
C115  H62   1.082409 S    
C19   H11   1.073064 S    
C101  C106  1.407370 A    
C76   Cl11  1.767274 S    
C51   C63   1.378506 A    
C114  H61   1.080427 S    
C20   N20   1.342529 A    
C63   C71   1.399500 A    
C77   Cl14  1.779676 S    
C111  C112  1.398006 A    
C50   H26   1.081022 S    
N2    N28   1.375782 A    
C63   H39   1.080859 S    
C16   N16   1.332644 A    
C75   Cl12  1.770795 S    
C26   H18   1.081596 S    
N15   N23   1.364669 A    
N17   Ni2   1.854660 S    
N9    Ni5   1.849142 S    
C94   H45   1.076431 S    
C80   C88   1.371094 D    
C114  C115  1.398827 A    
C14   H6    1.080285 S    
C56   C71   1.400110 A    
C24   N24   1.339741 A    
C92   H43   1.082425 S    
N6    N32   1.375782 A    
C91   C92   1.391157 A    
C12   N12   1.329751 A    
C91   H42   1.082538 S    
N14   Ni8   1.849142 S    
C13   N13   1.335351 A    
C109  C110  1.396799 A    
C76   C84   1.352353 D    
C32   H24   1.079714 S    
C107  C108  1.407766 A    
C42   C67   1.464906 S    
C135  C136  1.398419 A    
N12   Ni5   1.823805 S    
N10   N18   1.364585 A    
N12   N20   1.364669 A    
C121  H67   1.082396 S    
C36   C74   1.479256 S    
C10   C42   1.374011 A    
C105  C106  1.397476 A    
C4    C36   1.375452 A    
C107  C112  1.407399 A    
C133  H77   1.082593 S    
C53   H29   1.077671 S    
C9    C41   1.378401 A    
C125  C126  1.408466 A    
C119  C120  1.408481 A    
N14   N22   1.364585 A    
C24   C48   1.379617 A    
