data_mof_unit_2406.cif
_audit_creation_date              2012-10-26T20:24:19-0400
_audit_creation_method            fapswitch 2.2
_symmetry_space_group_name_H-M    P1
_symmetry_Int_Tables_number       1
_space_group_crystal_system       triclinic
_cell_length_a                    15.855375
_cell_length_b                    10.743455
_cell_length_c                    9.423338
_cell_angle_alpha                 89.902225
_cell_angle_beta                  89.761822
_cell_angle_gamma                 89.892985
_cell_volume                      1605.16661847

loop_
_atom_site_label
_atom_site_type_symbol
_atom_type_description
_atom_site_fract_x
_atom_site_fract_y
_atom_site_fract_z
_atom_type_partial_charge
C1    C     C_R   0.499174 0.259841 0.500066 0.576694
C2    C     C_3   0.576640 0.926528 0.584882 -0.244588
C3    C     C_3   0.415380 0.070122 0.566982 -0.100035
C4    C     C_R   0.339817 0.499411 0.500258 0.562861
C5    C     C_3   0.504537 0.071244 0.345978 -0.259407
C6    C     C_3   0.499544 0.121480 0.500987 0.006645
C7    C     C_3   0.500170 0.877668 0.499509 0.026195
C8    C     C_3   0.417564 0.925855 0.568613 -0.243901
C9    C     C_3   0.506115 0.928853 0.345560 -0.244713
C10   C     C_3   0.533585 0.620280 0.084234 -0.077350
C11   C     C_3   0.536690 0.619776 0.916928 -0.111373
C12   C     C_3   0.082824 0.497025 0.501610 -0.007705
C13   C     C_3   0.555827 0.398925 0.081841 0.275670
C14   C     C_3   0.415668 0.483447 0.084240 -0.151558
C15   C     C_3   0.552105 0.398518 0.913968 -0.057258
C16   C     C_R   0.500320 0.740026 0.499771 0.545747
C17   C     C_3   0.415026 0.488688 0.917197 -0.130210
C18   C     C_R   0.660107 0.499963 0.499800 0.576204
C19   C     C_3   0.971981 0.389141 0.462080 0.292667
C20   C     C_3   0.027941 0.473805 0.369235 -0.108884
C21   C     C_1   0.250087 0.498083 0.500837 -0.025086
C22   C     C_1   0.749681 0.500207 0.499742 0.030003
C23   C     C_3   0.972526 0.523492 0.632718 0.023040
C24   C     C_3   0.027744 0.409892 0.593748 -0.111983
C25   C     C_2   0.396243 0.118994 0.714199 0.212804
C26   C     C_3   0.999866 0.188936 0.388010 -0.005185
C27   C     C_3   0.959916 0.065272 0.348205 -0.365565
C28   C     C_3   0.683680 0.300341 0.134116 -0.028752
C29   C     C_3   0.778287 0.323409 0.132742 -0.328305
C30   C     C_2   0.943761 0.552105 0.780697 0.214098
C31   C     C_2   0.660166 0.120711 0.532949 0.211236
C32   C     C_3   0.916816 0.500427 0.502813 0.085877
C33   C     C_3   0.029071 0.610813 0.543435 -0.138348
C34   C     C_3   0.972453 0.587114 0.411888 -0.158519
C35   C     C_1   0.174502 0.497171 0.501153 -0.057979
C36   C     C_1   0.825175 0.500383 0.500843 0.034522
C37   C     C_3   0.576787 0.070727 0.586944 -0.097376
Cu1   Cu    Cu3+1 0.500040 0.499860 0.642410 0.924920
Cu2   Cu    Cu3+1 0.499960 0.500140 0.357590 0.923167
H1    H     H_    0.051895 0.452678 0.261057 0.101084
H2    H     H_    0.597159 0.641380 0.127205 0.161573
H3    H     H_    0.491955 0.698023 0.118774 0.091200
H4    H     H_    0.500615 0.701654 0.877969 0.109177
H5    H     H_    0.602875 0.632182 0.879929 0.140612
H6    H     H_    0.616854 0.402157 0.868460 0.180155
H7    H     H_    0.389089 0.393051 0.120764 0.111359
H8    H     H_    0.372928 0.557456 0.125143 0.129147
H9    H     H_    0.374423 0.567517 0.882344 0.122890
H10   H     H_    0.385568 0.402376 0.875498 0.169818
H11   H     H_    0.530529 0.307952 0.120544 0.086468
H12   H     H_    0.573533 0.891520 0.696072 0.110863
H13   H     H_    0.948634 0.659892 0.338425 0.113676
H14   H     H_    0.525235 0.308179 0.879080 0.078109
H15   H     H_    0.053974 0.702445 0.577686 0.112415
H16   H     H_    0.051224 0.337466 0.667977 0.106903
H17   H     H_    0.570258 0.101064 0.699329 0.130097
H18   H     H_    0.635971 0.888720 0.537897 0.111432
H19   H     H_    0.437156 0.096293 0.802563 0.081720
H20   H     H_    0.041474 0.172836 0.481167 0.133931
H21   H     H_    0.038443 0.221688 0.296371 0.124063
H22   H     H_    0.919184 0.077273 0.253564 0.150182
H23   H     H_    0.412340 0.888730 0.678798 0.115965
H24   H     H_    0.009938 0.996071 0.323388 0.092402
H25   H     H_    0.921084 0.029790 0.437883 0.170797
H26   H     H_    0.668577 0.237062 0.044124 0.096159
H27   H     H_    0.666652 0.254404 0.235819 0.144806
H28   H     H_    0.795978 0.385353 0.221865 0.182302
H29   H     H_    0.812474 0.233693 0.144106 0.112697
H30   H     H_    0.797219 0.367896 0.031015 0.189808
H31   H     H_    0.990123 0.567309 0.863132 0.091994
H32   H     H_    0.683910 0.093686 0.429348 0.095409
H33   H     H_    0.449083 0.104086 0.284036 0.118687
H34   H     H_    0.561407 0.106633 0.290124 0.097518
H35   H     H_    0.565414 0.895972 0.293993 0.115109
H36   H     H_    0.452331 0.894191 0.281178 0.122659
H37   H     H_    0.362511 0.099751 0.496821 0.140631
H38   H     H_    0.362266 0.889446 0.509317 0.106462
N1    N     N_3   0.501840 0.500250 0.143650 -0.212212
N2    N     N_3   0.501160 0.503300 0.856280 -0.258499
O1    O     O_R   0.500050 0.317570 0.620260 -0.488020
O2    O     O_3   0.935580 0.275253 0.420396 -0.549815
O3    O     O_3   0.640951 0.415554 0.123921 -0.541174
O4    O     O_2   0.868776 0.558296 0.809461 -0.511250
O5    O     O_2   0.702067 0.190733 0.606154 -0.499685
O6    O     O_R   0.499980 0.317810 0.379740 -0.522524
O7    O     O_R   0.379110 0.499870 0.620240 -0.492260
O8    O     O_R   0.379040 0.500110 0.379720 -0.520032
O9    O     O_R   0.500020 0.682190 0.620260 -0.522180
O10   O     O_R   0.499950 0.682430 0.379740 -0.525797
O11   O     O_R   0.620960 0.499890 0.620280 -0.490811
O12   O     O_R   0.620890 0.500130 0.379760 -0.452865
O13   O     O_2   0.333953 0.183425 0.735316 -0.531425

loop_
_geom_bond_atom_site_label_1
_geom_bond_atom_site_label_2
_ccdc_geom_bond_type
C10   H3    S    
C2    C7    S    
C17   H9    S    
Cu2   O8    S    
C3    C6    S    
C10   N1    S    
C2    H18   S    
C7    C8    S    
C14   H7    S    
C4    O8    A    
C24   H16   S    
C26   C27   S    
Cu1   O7    S    
C18   O12   A    
C32   C36   S    
C28   C29   S    
C5    H33   S    
C5    C6    S    
C20   H1    S    
C4    O7    A    
Cu1   N2    S    
C17   N2    S    
C30   O4    D    
C27   H22   S    
C29   H28   S    
C37   H17   S    
C15   N2    S    
C19   C20   S    
C23   C33   S    
C23   C24   S    
C11   H4    S    
C26   H20   S    
C20   C34   S    
C31   H32   S    
C16   O10   A    
C10   H2    S    
C14   C17   S    
C19   C32   S    
Cu2   O12   S    
C30   H31   S    
C29   H30   S    
C1    O6    A    
C28   O3    S    
C1    C6    S    
C18   O11   A    
C23   C30   S    
C3    C25   S    
C3    C8    S    
C27   H25   S    
C17   H10   S    
C13   O3    S    
C31   O5    D    
C31   C37   S    
Cu1   O9    S    
C32   C34   S    
C28   H27   S    
Cu2   N1    S    
C5    C9    S    
C29   H29   S    
C12   C20   S    
C33   C34   S    
C6    C37   S    
C11   H5    S    
C12   C35   S    
C3    H37   S    
C11   N2    S    
C7    C16   S    
C26   O2    S    
C13   C15   S    
C8    H38   S    
C9    H35   S    
C15   H6    S    
C15   H14   S    
C33   H15   S    
C7    C9    S    
Cu1   O11   S    
C13   N1    S    
C25   O13   D    
C18   C22   S    
C14   H8    S    
C21   C35   T    
C22   C36   T    
C12   C24   S    
C34   H13   S    
C2    H12   S    
C23   C32   S    
C28   H26   S    
C4    C21   S    
C2    C37   S    
Cu1   Cu2   S    
Cu1   O1    S    
C19   C24   S    
C14   N1    S    
C5    H34   S    
C10   C11   S    
C13   H11   S    
C25   H19   S    
C16   O9    A    
C1    O1    A    
Cu2   O6    S    
C27   H24   S    
C9    H36   S    
C12   C33   S    
C19   O2    S    
C26   H21   S    
Cu2   O10   S    
C8    H23   S    
