data_mof_unit_3932.cif
_audit_creation_date              2012-12-11T16:04:55-0500
_audit_creation_method            fapswitch 2.2
_symmetry_space_group_name_H-M    P1
_symmetry_Int_Tables_number       1
_space_group_crystal_system       triclinic
_cell_length_a                    10.667266
_cell_length_b                    10.645921
_cell_length_c                    16.887156
_cell_angle_alpha                 98.741338
_cell_angle_beta                  98.859177
_cell_angle_gamma                 61.498835
_cell_volume                      1658.41367674

loop_
_atom_site_label
_atom_site_type_symbol
_atom_type_description
_atom_site_fract_x
_atom_site_fract_y
_atom_site_fract_z
_atom_type_partial_charge
C1    C     C_R   0.352890 0.778925 0.400180 0.520753
C2    C     C_3   0.705296 0.330619 0.232686 -0.140398
C3    C     C_3   0.771623 0.374050 0.312563 0.018398
C4    C     C_3   0.922541 0.252293 0.297926 -0.110203
C5    C     C_3   0.947818 0.357792 0.256975 -0.171309
C6    C     C_3   0.796734 0.479482 0.272669 -0.123989
C7    C     C_3   0.732699 0.434796 0.191771 -0.150764
C8    C     C_3   0.883270 0.313911 0.177031 0.075947
C9    C     C_3   0.467580 0.788491 0.223582 -0.135771
C10   C     C_3   0.411113 0.698291 0.255848 -0.116668
C11   C     C_3   0.341977 0.821159 0.321196 0.042279
C12   C     C_R   0.369994 0.346384 0.358981 0.526517
C13   C     C_3   0.399400 0.910241 0.290723 -0.139396
C14   C     C_3   0.258128 0.976973 0.235686 -0.088672
C15   C     C_3   0.201886 0.886795 0.267596 -0.082648
C16   C     C_3   0.270047 0.764601 0.201562 -0.101371
C17   C     C_3   0.326619 0.853572 0.170262 0.060745
C18   C     C_3   0.433741 0.232062 0.767625 -0.184183
C19   C     C_3   0.372118 0.381268 0.736563 0.270868
C20   C     C_3   0.324903 0.322936 0.655412 -0.007449
C21   C     C_3   0.385374 0.173586 0.685551 -0.160165
C22   C     C_3   0.237007 0.223548 0.713908 0.210025
C23   C     C_R   0.714794 0.411034 0.389873 0.551230
C24   C     C_3   0.175941 0.372557 0.682382 -0.111956
C25   C     C_3   0.226010 0.427258 0.764694 0.277262
C26   C     C_3   0.284455 0.279330 0.796212 0.013991
C27   C     C_1   0.844459 0.330485 0.706318 -0.007983
C28   C     C_1   0.891601 0.296241 0.773409 0.001768
C29   C     C_1   0.330059 0.828819 0.707817 0.033956
C30   C     C_1   0.293678 0.874505 0.774133 0.036937
C31   C     C_R   0.946129 0.289494 0.102878 0.562577
C32   C     C_R   0.319354 0.299776 0.120154 0.541460
C33   C     C_R   0.296011 0.889147 0.088031 0.534225
C34   C     C_R   0.357012 0.770397 0.627548 0.562518
C35   C     C_R   0.941970 0.276170 0.856021 0.548823
C36   C     C_R   0.276377 0.251448 0.877121 0.547830
C37   C     C_R   0.251388 0.934089 0.852310 0.543350
C38   C     C_R   0.365617 0.344273 0.583307 0.573803
C39   C     C_R   0.777143 0.378356 0.629210 0.553053
C40   C     C_1   0.343152 0.336044 0.275195 -0.067412
C41   C     C_1   0.331599 0.326236 0.203891 -0.071473
C42   C     C_3   0.856682 0.211010 0.217212 0.295875
Cr1   Cr    Cr6+3 0.608340 0.611040 0.520430 1.022660
Cr2   Cr    Cr6+3 0.287650 0.601120 0.489350 1.030625
Cr3   Cr    Cr6+3 0.604040 0.287870 0.490280 1.013648
Cr4   Cr    Cr6+3 0.054020 0.052700 0.970850 1.019499
Cr5   Cr    Cr6+3 0.059230 0.375120 0.993390 0.995097
Cr6   Cr    Cr6+3 0.374950 0.061200 0.992340 1.012003
H1    H     H_    0.605141 0.320956 0.225024 0.101613
H2    H     H_    0.196732 0.091855 0.224414 0.105245
H3    H     H_    0.096332 0.925249 0.290037 0.143914
H4    H     H_    0.218960 0.703609 0.163589 0.120426
H5    H     H_    0.539369 0.173120 0.801874 0.142612
H6    H     H_    0.449713 0.069481 0.651439 0.136634
H7    H     H_    0.071947 0.431482 0.646698 0.133978
H8    H     H_    0.997175 0.179242 0.343434 0.104453
H9    H     H_    0.047302 0.369050 0.264939 0.112044
H10   H     H_    0.770856 0.591011 0.297399 0.134850
H11   H     H_    0.658013 0.506102 0.145563 0.127277
H12   H     H_    0.470394 0.583799 0.267495 0.104619
H13   H     H_    0.574464 0.751072 0.202820 0.110002
H14   H     H_    0.450250 0.970805 0.329339 0.126185
O1    O     O_R   0.751220 0.499230 0.435170 -0.517054
O2    O     O_R   0.297880 0.469080 0.560050 -0.475065
O3    O     O_R   0.489720 0.254590 0.564810 -0.511986
O4    O     O_R   0.725220 0.304230 0.585080 -0.489202
O5    O     O_3   0.500010 0.500010 0.500020 -0.263708
O6    O     O_R   0.171830 0.913880 0.057510 -0.514369
O7    O     O_R   0.940690 0.186050 0.054730 -0.448346
O8    O     O_R   0.920470 0.405720 0.075010 -0.524041
O9    O     O_R   0.196690 0.370460 0.084120 -0.514816
O10   O     O_R   0.412990 0.180750 0.091610 -0.505833
O11   O     O_R   0.366620 0.943130 0.065760 -0.499686
O12   O     O_R   0.477220 0.727600 0.436870 -0.518554
O13   O     O_R   0.160510 0.906330 0.879210 -0.542556
O14   O     O_R   0.930190 0.179050 0.889450 -0.504650
O15   O     O_R   0.909140 0.398170 0.896710 -0.511110
O16   O     O_R   0.186190 0.363460 0.918830 -0.510463
O17   O     O_R   0.401670 0.173200 0.913310 -0.522369
O18   O     O_R   0.356120 0.936130 0.900470 -0.511937
O19   O     O_3   0.162740 0.163010 0.985530 -0.316111
O20   O     O_R   0.258650 0.745120 0.411470 -0.527385
O21   O     O_R   0.297070 0.467240 0.395960 -0.501293
O22   O     O_R   0.488830 0.252610 0.387790 -0.533766
O23   O     O_R   0.724400 0.302390 0.420980 -0.513753
O24   O     O_R   0.752100 0.501210 0.612190 -0.502295
O25   O     O_R   0.478040 0.729440 0.600970 -0.500549
O26   O     O_R   0.259530 0.747110 0.588490 -0.507410
O27   O     O_3   0.433332 0.474464 0.740911 -0.563789
C43   C     C_3   0.546016 0.439948 0.802662 -0.111674
H15   H     H_    0.633038 0.329882 0.789773 0.133478
H16   H     H_    0.509201 0.449650 0.862252 0.099410
H17   H     H_    0.590255 0.516241 0.805840 0.157068
O28   O     O_3   0.163483 0.141268 0.701726 -0.611534
C44   C     C_3   0.132394 0.115308 0.618250 -0.122100
H18   H     H_    0.231665 0.053679 0.586957 0.113363
H19   H     H_    0.061722 0.216362 0.589563 0.115669
H20   H     H_    0.074198 0.050639 0.609499 0.157506
O29   O     O_3   0.133180 0.560304 0.803013 -0.540909
C45   C     C_3   0.205001 0.597658 0.872225 0.041602
H21   H     H_    0.254885 0.658258 0.855138 0.189165
H22   H     H_    0.293696 0.504706 0.901628 0.123346
C46   C     C_3   0.097261 0.686156 0.933725 -0.293511
H23   H     H_    0.036199 0.630616 0.943408 0.170527
H24   H     H_    0.154765 0.700022 0.992045 0.112911
H25   H     H_    0.019137 0.792194 0.912544 0.171898
O30   O     O_3   0.894108 0.069694 0.182904 -0.553712
C47   C     C_3   0.819618 0.014555 0.216611 -0.125294
H26   H     H_    0.705169 0.063468 0.192259 0.148266
H27   H     H_    0.828865 0.030340 0.283581 0.112668
H28   H     H_    0.866995 0.897394 0.199233 0.134190

loop_
_geom_bond_atom_site_label_1
_geom_bond_atom_site_label_2
_ccdc_geom_bond_type
C18   C21   S    
C47   H26   S    
C6    H10   S    
C3    C23   S    
C44   H18   S    
C1    C11   S    
C3    C6    S    
Cr4   O14   S    
C44   H20   S    
Cr1   O1    S    
C7    C8    S    
C32   O10   A    
C14   H2    S    
Cr2   O2    S    
C24   H7    S    
C9    H13   S    
C1    O12   A    
Cr6   O17   S    
C8    C42   S    
Cr2   O20   S    
C5    C6    S    
C15   C16   S    
C26   C36   S    
Cr6   O19   S    
C12   O22   A    
C18   C19   S    
C9    C13   S    
Cr4   O7    S    
C18   H5    S    
C11   C15   S    
C25   O29   S    
C31   O8    A    
C13   H14   S    
C19   C20   S    
C28   C35   S    
C27   C39   S    
C16   C17   S    
C18   C26   S    
Cr3   O5    S    
C32   C41   S    
C15   H3    S    
C9    C10   S    
Cr2   O21   S    
Cr1   O12   S    
C23   O1    A    
C37   O13   A    
C21   C22   S    
C4    H8    S    
C22   O28   S    
C14   C17   S    
C17   C33   S    
Cr6   O10   S    
C7    H11   S    
Cr4   O13   S    
C32   O9    A    
C38   O2    A    
C37   O18   A    
C35   O14   A    
C20   C24   S    
C24   C25   S    
C1    O20   A    
C29   C34   S    
C35   O15   A    
C45   C46   S    
C12   O21   A    
C12   C40   S    
Cr3   O23   S    
Cr5   O8    S    
Cr4   O6    S    
C29   C30   T    
C19   O27   S    
C2    H1    S    
Cr4   O19   S    
C20   C38   S    
C43   H16   S    
O29   C45   S    
C38   O3    A    
O30   C47   S    
C45   H22   S    
C46   H24   S    
C34   O26   A    
Cr5   O9    S    
C9    C17   S    
C40   C41   T    
C2    C7    S    
C39   O4    A    
C22   C24   S    
Cr3   O22   S    
Cr5   O15   S    
C3    C4    S    
Cr3   O4    S    
C43   H17   S    
C42   O30   S    
C33   O11   A    
C10   H12   S    
C8    C31   S    
Cr6   O11   S    
C16   H4    S    
C4    C5    S    
C36   O17   A    
C5    C8    S    
C44   H19   S    
C6    C7    S    
C39   O24   A    
C47   H28   S    
C5    H9    S    
Cr1   O25   S    
Cr6   O18   S    
C2    C3    S    
C25   C26   S    
C23   O23   A    
C36   O16   A    
Cr3   O3    S    
C11   C13   S    
C43   H15   S    
C21   H6    S    
C4    C42   S    
C2    C42   S    
C45   H21   S    
C47   H27   S    
C46   H25   S    
Cr2   O26   S    
C34   O25   A    
Cr5   O19   S    
O28   C44   S    
C19   C25   S    
Cr1   O24   S    
C10   C11   S    
C31   O7    A    
C20   C21   S    
C30   C37   S    
Cr1   O5    S    
C22   C26   S    
C46   H23   S    
C14   C15   S    
Cr2   O5    S    
C10   C16   S    
Cr5   O16   S    
O27   C43   S    
C13   C14   S    
C33   O6    A    
C27   C28   T    
