data_mof_unit_2877.cif
_audit_creation_date              2012-12-10T16:55:00-0500
_audit_creation_method            fapswitch 2.2
_symmetry_space_group_name_H-M    P1
_symmetry_Int_Tables_number       1
_space_group_crystal_system       triclinic
_cell_length_a                    7.801575
_cell_length_b                    8.573759
_cell_length_c                    15.727983
_cell_angle_alpha                 91.263031
_cell_angle_beta                  85.650619
_cell_angle_gamma                 93.301763
_cell_volume                      1047.09023143

loop_
_atom_site_label
_atom_site_type_symbol
_atom_type_description
_atom_site_fract_x
_atom_site_fract_y
_atom_site_fract_z
_atom_type_partial_charge
C1    C     C_R   0.544387 0.794191 0.494445 0.992375
C2    C     C_2   0.429610 0.043979 0.483987 0.221825
C3    C     C_R   0.501622 0.499947 0.661431 0.884047
C4    C     C_R   0.454402 0.205759 0.498039 0.874642
C5    C     C_R   0.498445 0.500395 0.338570 0.900165
C6    C     C_3   0.390489 0.633358 0.954024 -0.389538
C7    C     C_3   0.687322 0.528537 0.943327 -0.469540
C8    C     C_3   0.691827 0.515776 0.041556 -0.210411
C9    C     C_1   0.496022 0.504047 0.250036 -0.021778
C10   C     C_3   0.500453 0.499411 0.916900 0.140075
C11   C     C_2   0.478978 0.807117 0.079949 0.954795
C12   C     C_3   0.402344 0.648588 0.052077 -0.192050
C13   C     C_2   0.976729 0.609846 0.598602 1.147265
C14   C     C_2   0.814485 0.638673 0.079812 1.023478
C15   C     C_2   0.235011 0.310473 0.095115 1.032571
C16   C     C_3   0.501127 0.508139 0.082883 -0.012769
C17   C     C_3   0.413555 0.348679 0.052166 -0.267491
C18   C     C_3   0.423802 0.340404 0.952560 0.190228
C19   C     C_1   0.497621 0.507052 0.174786 -0.001041
C20   C     C_1   0.504038 0.498645 0.825284 0.021757
C21   C     C_1   0.504691 0.499019 0.750020 -0.072206
C22   C     C_2   0.564961 0.957603 0.493467 -0.433449
Cl1   Cl    Cl    0.228290 0.976951 0.445969 -0.504639
Cl2   Cl    Cl    0.224043 0.278206 0.907698 -0.567169
H1    H     H_    0.253560 0.608121 0.940493 0.237900
H2    H     H_    0.514289 0.249094 0.931038 0.140132
H3    H     H_    0.621425 0.004788 0.049383 0.348588
H4    H     H_    0.880432 0.800346 0.657560 0.325410
H5    H     H_    0.979206 0.827963 0.063024 0.357683
H6    H     H_    0.085790 0.165994 0.172906 0.356089
H7    H     H_    0.268581 0.642337 0.081961 0.189321
H8    H     H_    0.493036 0.254242 0.072428 0.126222
H9    H     H_    0.690167 0.007756 0.509234 0.196922
H10   H     H_    0.013851 0.398376 0.428138 0.211322
H11   H     H_    0.430655 0.744034 0.920770 0.221550
H12   H     H_    0.772539 0.441577 0.911307 0.214800
H13   H     H_    0.736645 0.645300 0.920034 0.263823
H14   H     H_    0.747949 0.402282 0.053306 0.166627
N1    N     N_2   0.950340 0.457950 0.477370 -0.186129
N2    N     N_2   0.049660 0.542050 0.522630 -0.145591
O1    O     O_R   0.389240 0.738570 0.505550 -0.571623
O2    O     O_R   0.573957 0.905304 0.021639 -0.782755
O3    O     O_2   0.972303 0.538388 0.665214 -0.625402
O4    O     O_R   0.926577 0.763586 0.598974 -0.773747
O5    O     O_2   0.845065 0.630272 0.154640 -0.593913
O6    O     O_R   0.899389 0.756516 0.029747 -0.777117
O7    O     O_2   0.114553 0.390660 0.083672 -0.612122
O8    O     O_R   0.209187 0.180865 0.147935 -0.770256
O9    O     O_R   0.678400 0.711630 0.491050 -0.587715
O10   O     O_R   0.355360 0.513470 0.630110 -0.600992
O11   O     O_R   0.644510 0.486530 0.615610 -0.623788
O12   O     O_R   0.321600 0.288370 0.508950 -0.589145
O13   O     O_R   0.610760 0.261430 0.494450 -0.640902
O14   O     O_R   0.355490 0.513470 0.384390 -0.618470
O15   O     O_R   0.644640 0.486530 0.369890 -0.600658
O16   O     O_2   0.457292 0.849021 0.154641 -0.578697
Zn1   Zn    Zn3+2 0.306930 0.517990 0.509680 1.055206
Zn2   Zn    Zn3+2 0.693070 0.482010 0.490320 1.026288

loop_
_geom_bond_atom_site_label_1
_geom_bond_atom_site_label_2
_ccdc_geom_bond_type
C6    C10   S    
C7    C10   S    
C2    C4    S    
C11   C12   S    
C5    C9    S    
C4    O13   A    
C7    H12   S    
C18   H2    S    
C15   O7    D    
H5    O6    S    
O13   Zn2   S    
C13   O3    D    
C17   C18   S    
C7    H13   S    
O1    Zn1   S    
C1    C22   S    
C14   O6    S    
O11   Zn2   S    
C2    C22   D    
C6    H11   S    
N1    Zn2   S    
H3    O2    S    
C8    H14   S    
C15   O8    S    
C4    O12   A    
C16   C19   S    
C18   Cl2   S    
H6    O8    S    
C3    O10   A    
C10   C18   S    
C14   O5    D    
H4    O4    S    
C12   H7    S    
C6    C12   S    
C3    C21   S    
C6    H1    S    
O12   Zn1   S    
C11   O16   D    
H10   N1    S    
N1    N2    D    
C5    O14   A    
C7    C8    S    
C20   C21   T    
C11   O2    S    
C8    C16   S    
C9    C19   T    
O15   Zn2   S    
C1    O1    A    
C2    Cl1   S    
C15   C17   S    
C17   H8    S    
C3    O11   A    
C13   N2    S    
C8    C14   S    
N2    Zn1   S    
O10   Zn1   S    
C1    O9    A    
C5    O15   A    
C13   O4    S    
O9    Zn2   S    
C12   C16   S    
C10   C20   S    
C16   C17   S    
O14   Zn1   S    
C22   H9    S    
