data_mof_unit_884.cif
_audit_creation_date              2013-03-05T15:41:43-0500
_audit_creation_method            fapswitch 2.2
_symmetry_space_group_name_H-M    P1
_symmetry_Int_Tables_number       1
_space_group_crystal_system       triclinic
_cell_length_a                    11.109108
_cell_length_b                    12.740537
_cell_length_c                    23.508079
_cell_angle_alpha                 90.754692
_cell_angle_beta                  96.706731
_cell_angle_gamma                 69.047354
_cell_volume                      3084.50050394

loop_
_atom_site_label
_atom_site_type_symbol
_atom_site_description
_atom_site_fract_x
_atom_site_fract_y
_atom_site_fract_z
_atom_type_partial_charge
O1    O     O_R   0.196340 0.303200 0.448500 -0.477564
O2    O     O_R   0.199310 0.519670 0.454880 -0.495046
C1    C     C_R   0.150512 0.616585 0.429398 0.553094
O3    O     O_R   0.045660 0.691380 0.441680 -0.451261
O4    O     O_R   0.811930 0.659460 0.430950 -0.445033
C2    C     C_R   0.752199 0.601949 0.403116 0.560968
O5    O     O_R   0.757900 0.507620 0.421760 -0.515859
O6    O     O_R   0.988630 0.322990 0.439840 -0.490645
C3    C     C_R   0.101052 0.281854 0.423466 0.561330
O7    O     O_R   0.196380 0.301720 0.573850 -0.430660
O8    O     O_R   0.199350 0.518300 0.571080 -0.458896
C4    C     C_R   0.152559 0.617557 0.590195 0.557741
O9    O     O_R   0.045700 0.689900 0.567030 -0.455266
O10   O     O_R   0.811960 0.658090 0.547150 -0.480259
C5    C     C_R   0.750842 0.601251 0.566337 0.554863
O11   O     O_R   0.757930 0.506140 0.547110 -0.449372
O12   O     O_R   0.988670 0.321620 0.556040 -0.467299
C6    C     C_R   0.099409 0.275592 0.584084 0.582077
Cr1   Cr    Cr6+3 0.189770 0.415650 0.511620 1.169556
Cr2   Cr    Cr6+3 0.930400 0.667320 0.496770 1.191666
Cr3   Cr    Cr6+3 0.879870 0.417010 0.491650 1.154641
O13   O     O_3   0.000020 0.499990 0.500010 -0.324926
C7    C     C_R   0.677761 0.761146 0.137933 0.115601
C8    C     C_R   0.709871 0.626530 0.341755 -0.030818
C9    C     C_R   0.718116 0.543202 0.248168 0.205179
C10   C     C_R   0.719010 0.534920 0.306787 -0.050812
C11   C     C_R   0.686822 0.732608 0.317241 0.261688
C12   C     C_R   0.687092 0.743785 0.257246 0.011844
C13   C     C_R   0.709317 0.646317 0.222979 -0.211323
C14   C     C_R   0.722281 0.654619 0.164598 0.338311
C15   C     C_R   0.668903 0.856263 0.171220 0.097346
C16   C     C_R   0.673872 0.847639 0.231143 0.284845
H1    H     H_    0.732098 0.453541 0.325271 0.198543
C17   C     C_1   0.232759 0.166054 0.121810 0.159938
C18   C     C_2   0.162357 0.241509 0.223169 0.222886
C19   C     C_2   0.146701 0.168736 0.261414 0.209451
C20   C     C_1   0.128518 0.200769 0.320103 0.092669
C21   C     C_1   0.201726 0.203208 0.167545 0.152168
C22   C     C_1   0.114890 0.232458 0.368317 0.075886
C23   C     C_1   0.168848 0.756854 0.124934 0.160814
C24   C     C_2   0.140355 0.723084 0.232795 0.244822
C25   C     C_2   0.241615 0.658201 0.270618 0.221905
C26   C     C_1   0.222291 0.643884 0.329493 0.087356
C27   C     C_1   0.156062 0.738112 0.173540 0.159868
C28   C     C_1   0.196543 0.632064 0.376845 0.082217
C29   C     C_1   0.636302 0.755572 0.867729 0.109118
C30   C     C_2   0.698221 0.725416 0.761900 0.240120
C31   C     C_2   0.660229 0.652060 0.729245 0.261647
C32   C     C_1   0.681794 0.642116 0.669752 0.116594
C33   C     C_1   0.671271 0.740896 0.820824 0.018442
C34   C     C_1   0.705908 0.628418 0.621058 0.094759
C35   C     C_R   0.258358 0.066206 0.838237 -0.005147
C36   C     C_R   0.108759 0.200905 0.633277 0.002383
C37   C     C_R   0.004150 0.162721 0.712088 0.308830
C38   C     C_R   0.995446 0.200992 0.655463 0.158254
C39   C     C_R   0.230939 0.140524 0.662347 0.241615
C40   C     C_R   0.241353 0.100766 0.719201 -0.067718
C41   C     C_R   0.126486 0.122759 0.745730 0.003758
C42   C     C_R   0.135842 0.103462 0.805173 0.202743
C43   C     C_R   0.372438 0.036796 0.811119 0.179150
C44   C     C_R   0.363709 0.045862 0.751091 0.198505
C45   C     C_R   0.124828 0.753190 0.850028 0.009000
C46   C     C_R   0.203646 0.639565 0.648025 -0.051783
C47   C     C_R   0.293857 0.552621 0.742885 0.267180
C48   C     C_R   0.294328 0.550436 0.682785 0.153645
C49   C     C_R   0.134120 0.740264 0.672753 0.197204
C50   C     C_R   0.122118 0.740387 0.731507 -0.017429
C51   C     C_R   0.203113 0.645674 0.767260 -0.025091
C52   C     C_R   0.199635 0.652262 0.827396 0.270003
C53   C     C_R   0.029271 0.834953 0.814258 -0.199822
C54   C     C_R   0.028897 0.831645 0.755259 0.251875
H2    H     H_    0.960947 0.907381 0.832280 0.140129
O14   O     O_R   0.113660 0.883270 0.047820 -0.460595
O15   O     O_R   0.186930 0.068530 0.043990 -0.468260
C55   C     C_R   0.265384 0.110765 0.069182 0.593598
O16   O     O_R   0.377770 0.089040 0.054220 -0.448965
O17   O     O_R   0.562800 0.872960 0.056970 -0.503729
C56   C     C_R   0.601680 0.776062 0.080932 0.783333
O18   O     O_R   0.555390 0.700940 0.062700 -0.343040
O19   O     O_R   0.295020 0.731920 0.049950 -0.499521
C57   C     C_R   0.189164 0.788516 0.069623 0.579042
O20   O     O_R   0.094290 0.884230 0.921550 -0.547524
O21   O     O_R   0.168980 0.069410 0.926940 -0.463341
C58   C     C_R   0.272006 0.054653 0.901389 0.590554
O22   O     O_R   0.358400 0.089990 0.927950 -0.412173
O23   O     O_R   0.544850 0.873850 0.939920 -0.484819
C59   C     C_R   0.577317 0.775499 0.919543 0.637787
O24   O     O_R   0.536020 0.701900 0.936430 -0.400031
O25   O     O_R   0.277070 0.732810 0.932890 -0.440538
C60   C     C_R   0.163132 0.786894 0.906987 0.574013
Cr4   Cr    Cr6+3 0.149500 0.973980 0.985330 1.146746
Cr5   Cr    Cr6+3 0.457000 0.976510 0.994660 1.192525
Cr6   Cr    Cr6+3 0.411170 0.724270 0.995270 1.277389
O26   O     O_3   0.339220 0.891590 0.991750 -0.390538
N1    N     N_R   0.781607 0.555226 0.133144 1.394901
O27   O     O_R   0.832834 0.559548 0.086594 -1.430174
O28   O     O_R   0.832834 0.559548 0.086594 -1.430174
N2    N     N_R   0.014687 0.784031 0.250427 0.086370
O29   O     O_R   0.943397 0.880289 0.225429 -0.243362
O30   O     O_R   0.964972 0.738947 0.286230 -0.324227
N3    N     N_R   0.607178 0.576446 0.752641 0.064841
O31   O     O_R   0.632287 0.476466 0.732230 -0.239093
O32   O     O_R   0.529178 0.607976 0.791898 -0.300718
O33   O     O_3   0.756968 0.789998 0.737827 -0.636041
H3    H     H_    0.771902 0.841680 0.767354 0.342943
O34   O     O_3   0.024526 0.133797 0.831437 -0.555151
H4    H     H_    0.020759 0.062905 0.846321 0.340697
O35   O     O_3   0.490890 0.999001 0.844935 -0.678203
H5    H     H_    0.562744 0.991056 0.822296 0.363040
O36   O     O_3   0.894478 0.166077 0.735787 -0.584121
H6    H     H_    0.823696 0.169596 0.705299 0.392457
N4    N     N_R   0.476813 0.991844 0.722622 0.084059
O37   O     O_R   0.570103 0.031761 0.725941 -0.314746
O38   O     O_R   0.476333 0.914663 0.685886 -0.243951
N5    N     N_R   0.870453 0.245410 0.622088 0.083439
O39   O     O_R   0.843634 0.192369 0.577579 -0.239114
O40   O     O_R   0.780813 0.334534 0.638217 -0.253224
O41   O     O_3   0.338569 0.128955 0.635574 -0.554360
H7    H     H_    0.391138 0.163424 0.660613 0.397521
O42   O     O_3   0.271177 0.564270 0.865009 -0.565447
H8    H     H_    0.246493 0.499347 0.852441 0.373672
N6    N     N_R   0.651306 0.962258 0.144309 0.094095
O43   O     O_R   0.557856 0.053388 0.155782 -0.294395
O44   O     O_R   0.731241 0.968135 0.109248 -0.202742
O45   O     O_3   0.381421 0.466992 0.778667 -0.589449
H9    H     H_    0.447919 0.414023 0.757399 0.410574
O46   O     O_3   0.938158 0.917011 0.720727 -0.581623
H10   H     H_    0.876725 0.970334 0.744336 0.359902
N7    N     N_R   0.387327 0.459155 0.656836 0.109988
O47   O     O_R   0.391388 0.356878 0.663732 -0.321898
O48   O     O_R   0.456696 0.479889 0.620606 -0.250731
N8    N     N_R   0.088088 0.843263 0.638795 0.135934
O49   O     O_R   0.968661 0.884839 0.614478 -0.188972
O50   O     O_R   0.170842 0.887810 0.626453 -0.292561
N9    N     N_R   0.720185 0.446999 0.215099 0.099535
O51   O     O_R   0.801140 0.347375 0.232180 -0.247692
O52   O     O_R   0.626508 0.455806 0.174496 -0.198957
O53   O     O_3   0.662150 0.940315 0.264321 -0.560103
H11   H     H_    0.697581 0.990548 0.245926 0.407805
N10   N     N_R   0.665662 0.826864 0.353941 0.139174
O54   O     O_R   0.760633 0.861583 0.370604 -0.202128
O55   O     O_R   0.560877 0.862923 0.379242 -0.277121
N11   N     N_R   0.155938 0.055970 0.246480 0.075267
O56   O     O_R   0.189344 0.977580 0.286401 -0.280164
O57   O     O_R   0.113183 0.034824 0.195323 -0.304533
N12   N     N_R   0.146640 0.356169 0.237021 0.104023
O58   O     O_R   0.203811 0.409425 0.209616 -0.197007
O59   O     O_R   0.061220 0.412911 0.270089 -0.333267
N13   N     N_R   0.368942 0.600499 0.253834 0.085663
O60   O     O_R   0.445733 0.508669 0.281383 -0.271465
O61   O     O_R   0.414840 0.646224 0.216665 -0.363093

loop_
_geom_bond_atom_site_label_1
_geom_bond_atom_site_label_2
_geom_bond_distance
_ccdc_geom_bond_type
C59   O24   1.267815 A    
C46   C48   1.409274 A    
O17   Cr5   1.951238 S    
N3    O31   1.300636 A    
C24   C25   1.363824 D    
N1    O27   1.301486 A    
C8    C11   1.400989 A    
N4    O38   1.301182 A    
N9    O51   1.301442 A    
O4    Cr2   1.936702 S    
O17   C56   1.268096 A    
C39   C40   1.412840 A    
C45   C53   1.393858 A    
Cr6   O26   1.990139 S    
C47   C51   1.418591 A    
C12   C13   1.432751 A    
C19   N11   1.444842 S    
N10   O55   1.300739 A    
C29   C59   1.427160 S    
N13   O61   1.301078 A    
O4    C2    1.280239 A    
O34   H4    0.989311 S    
N5    O39   1.301072 A    
C3    C22   1.433975 S    
O35   H5    0.985232 S    
C37   O36   1.384649 S    
N9    O52   1.301517 A    
C35   C58   1.478457 S    
C25   N13   1.440795 S    
O41   H7    0.988288 S    
O33   H3    0.991000 S    
C35   C43   1.412699 A    
C6    C36   1.477780 S    
O36   H6    0.988947 S    
O19   Cr6   1.902869 S    
C18   C19   1.368219 D    
O6    C3    1.273367 A    
C32   C34   1.202289 T    
C30   C31   1.352186 D    
C53   C54   1.386593 A    
C5    C34   1.427737 S    
C13   C14   1.405820 A    
C49   N8    1.439831 S    
C43   O35   1.381287 S    
C17   C55   1.434345 S    
C49   C50   1.402951 A    
C46   C49   1.398924 A    
N3    O32   1.300762 A    
C17   C21   1.206371 T    
Cr3   O13   1.969866 S    
C54   O46   1.380593 S    
O14   C57   1.270948 A    
N4    O37   1.302232 A    
O22   Cr5   2.067689 S    
O6    Cr3   1.910050 S    
C30   C33   1.447313 S    
N12   O59   1.301646 A    
C36   C38   1.417367 A    
C9    C13   1.414651 A    
O1    Cr1   2.038170 S    
C42   O34   1.374779 S    
O15   C55   1.267408 A    
N12   O58   1.301566 A    
C50   C51   1.430274 A    
C7    C14   1.396231 A    
O10   Cr2   1.904210 S    
C12   C16   1.417830 A    
Cr1   O13   1.981407 S    
O1    C3    1.263737 A    
C58   O22   1.294354 A    
O14   Cr4   2.040247 S    
C4    C46   1.473915 S    
O24   Cr6   2.018221 S    
C56   O18   1.286040 A    
N8    O49   1.302223 A    
N5    O40   1.301112 A    
C41   C42   1.407419 A    
O5    Cr3   2.068647 S    
C1    C28   1.432754 S    
C5    O11   1.266701 A    
O12   Cr3   1.949282 S    
O20   Cr4   2.042877 S    
C45   C52   1.395760 A    
C43   C44   1.406555 A    
C18   N12   1.445297 S    
C7    C15   1.413607 A    
O15   Cr4   1.925136 S    
C55   O16   1.269630 A    
C16   O53   1.381648 S    
C14   N1    1.441167 S    
C35   C42   1.408000 A    
C10   H1    1.083616 S    
O21   C58   1.307589 A    
O7    Cr1   2.051108 S    
C2    C8    1.465620 S    
C18   C21   1.450313 S    
Cr5   O26   1.968963 S    
O12   C6    1.263621 A    
N10   O54   1.301890 A    
C26   C28   1.205494 T    
O16   Cr5   2.030527 S    
C31   C32   1.442669 S    
Cr2   O13   1.990012 S    
N2    O29   1.300845 A    
N2    O30   1.300593 A    
O45   H9    0.985872 S    
C24   C27   1.447466 S    
C25   C26   1.448785 S    
N6    O44   1.301401 A    
C1    O3    1.275013 A    
O42   H8    0.991731 S    
N7    O47   1.299280 A    
C37   C41   1.412926 A    
C36   C39   1.396961 A    
N11   O57   1.301548 A    
C37   C38   1.404418 A    
C19   C20   1.449864 S    
C30   O33   1.380488 S    
O9    Cr2   2.051418 S    
O2    Cr1   1.930481 S    
O23   C59   1.277099 A    
C39   O41   1.376507 S    
C23   C57   1.432427 S    
C51   C52   1.419275 A    
C15   C16   1.407482 A    
C15   N6    1.437688 S    
C8    C10   1.399206 A    
O19   C57   1.276123 A    
C48   N7    1.435683 S    
O8    C4    1.280923 A    
N1    O28   1.301486 A    
O11   Cr3   2.024279 S    
C40   C44   1.412342 A    
C2    O5    1.262299 A    
O21   Cr4   1.926323 S    
C29   C33   1.201826 T    
C52   O42   1.376587 S    
C11   N10   1.435220 S    
O20   C60   1.269501 A    
C47   C48   1.413336 A    
N11   O56   1.301607 A    
C9    C10   1.382058 A    
O18   Cr6   2.060722 S    
C20   C22   1.206192 T    
O23   Cr5   1.911853 S    
N13   O60   1.301181 A    
Cr4   O26   1.978462 S    
C40   C41   1.421738 A    
C38   N5    1.434971 S    
O7    C6    1.283859 A    
C31   N3    1.440013 S    
C45   C60   1.463158 S    
O2    C1    1.281496 A    
C50   C54   1.411693 A    
O8    Cr1   1.921503 S    
C7    C56   1.474225 S    
O25   Cr6   1.938964 S    
C9    N9    1.437378 S    
O53   H11   0.989314 S    
O3    Cr2   2.022166 S    
C23   C27   1.205053 T    
C4    O9    1.278670 A    
N8    O50   1.300485 A    
C47   O45   1.384940 S    
C11   C12   1.419852 A    
N6    O43   1.301387 A    
O10   C5    1.273041 A    
C53   H2    1.082139 S    
O25   C60   1.286455 A    
C44   N4    1.437398 S    
C24   N2    1.440525 S    
O46   H10   0.991087 S    
N7    O48   1.301479 A    
