data_mof_unit_1541.cif
_audit_creation_date              2012-12-11T14:52:23-0500
_audit_creation_method            fapswitch 2.2
_symmetry_space_group_name_H-M    P1
_symmetry_Int_Tables_number       1
_space_group_crystal_system       triclinic
_cell_length_a                    18.848267
_cell_length_b                    10.891478
_cell_length_c                    18.726759
_cell_angle_alpha                 89.616808
_cell_angle_beta                  91.318223
_cell_angle_gamma                 89.924743
_cell_volume                      3843.2242885

loop_
_atom_site_label
_atom_site_type_symbol
_atom_type_description
_atom_site_fract_x
_atom_site_fract_y
_atom_site_fract_z
_atom_type_partial_charge
C1    C     C_R   0.272058 0.042549 0.853816 0.555908
C2    C     C_R   0.727763 0.042181 0.145986 0.555485
C3    C     C_R   0.772058 0.542549 0.853816 0.555908
C4    C     C_R   0.227763 0.542181 0.145986 0.555485
C5    C     C_3   0.485509 0.708295 0.981162 -0.118598
C6    C     C_3   0.449059 0.768682 0.045108 -0.164609
C7    C     C_3   0.985509 0.208295 0.981162 -0.118598
C8    C     C_3   0.949059 0.268682 0.045108 -0.164608
C9    C     C_R   0.307123 0.536543 0.963228 0.298124
C10   C     C_R   0.692594 0.537718 0.036707 0.289379
C11   C     C_R   0.807123 0.036543 0.963228 0.298124
C12   C     C_R   0.192594 0.037719 0.036707 0.289379
C13   C     C_R   0.304514 0.528657 0.037574 0.075664
C14   C     C_R   0.695100 0.531124 0.962218 0.084486
C15   C     C_R   0.804514 0.028657 0.037574 0.075664
C16   C     C_R   0.195100 0.031124 0.962218 0.084486
C17   C     C_R   0.243514 0.572666 0.072214 -0.127425
C18   C     C_R   0.755728 0.575463 0.927181 -0.107627
C19   C     C_R   0.743514 0.072666 0.072214 -0.127425
C20   C     C_R   0.255728 0.075463 0.927181 -0.107627
C21   C     C_R   0.187286 0.623229 0.031698 -0.106027
C22   C     C_R   0.811256 0.628277 0.967391 -0.125685
C23   C     C_R   0.687286 0.123229 0.031698 -0.106027
C24   C     C_R   0.311256 0.128277 0.967391 -0.125685
C25   C     C_R   0.189030 0.626366 0.958837 0.382895
C26   C     C_R   0.810234 0.628070 0.040566 0.319746
C27   C     C_R   0.689030 0.126366 0.958837 0.382895
C28   C     C_R   0.310234 0.128070 0.040566 0.319746
C29   C     C_R   0.250318 0.589113 0.923756 0.016461
C30   C     C_R   0.749357 0.590012 0.076051 -0.012824
C31   C     C_R   0.750318 0.089113 0.923756 0.016461
C32   C     C_R   0.249357 0.090011 0.076051 -0.012824
C33   C     C_R   0.541647 0.719112 0.554570 0.103590
C34   C     C_R   0.552303 0.711538 0.480892 0.074920
C35   C     C_R   0.041647 0.219112 0.554570 0.103590
C36   C     C_R   0.052303 0.211538 0.480892 0.074920
C37   C     C_R   0.547204 0.820240 0.438077 -0.017465
C38   C     C_R   0.513690 0.828835 0.583023 0.012493
C39   C     C_R   0.047204 0.320240 0.438077 -0.017465
C40   C     C_R   0.013690 0.328835 0.583023 0.012493
C41   C     C_R   0.530614 0.932420 0.470266 -0.139698
C42   C     C_R   0.511618 0.935927 0.541427 -0.138661
C43   C     C_R   0.030614 0.432420 0.470266 -0.139698
C44   C     C_R   0.011618 0.435927 0.541427 -0.138661
C45   C     C_R   0.440219 0.816733 0.862532 0.564256
C46   C     C_R   0.552686 0.819033 0.136933 0.559882
C47   C     C_R   0.940219 0.316733 0.862532 0.564256
C48   C     C_R   0.052686 0.319033 0.136933 0.559882
C49   C     C_R   0.217959 0.724648 0.518821 0.352982
C50   C     C_R   0.761725 0.540477 0.452874 0.418994
C51   C     C_R   0.717959 0.224648 0.518821 0.352982
C52   C     C_R   0.261725 0.040477 0.452874 0.418994
C53   C     C_R   0.211670 0.695394 0.447808 -0.049029
C54   C     C_R   0.772296 0.508449 0.523324 -0.046053
C55   C     C_R   0.711670 0.195394 0.447808 -0.049028
C56   C     C_R   0.272296 0.008449 0.523324 -0.046053
C57   C     C_R   0.254933 0.603943 0.419186 -0.015588
C58   C     C_R   0.753471 0.589652 0.576944 0.026716
C59   C     C_R   0.754933 0.103943 0.419186 -0.015588
C60   C     C_R   0.253471 0.089652 0.576944 0.026716
C61   C     C_R   0.312724 0.555950 0.459995 0.067446
C62   C     C_R   0.730995 0.709529 0.560730 0.068198
C63   C     C_R   0.812724 0.055950 0.459995 0.067446
C64   C     C_R   0.230995 0.209529 0.560730 0.068198
C65   C     C_R   0.321889 0.593331 0.529965 -0.153896
C66   C     C_R   0.721273 0.742649 0.489407 -0.187459
C67   C     C_R   0.821890 0.093331 0.529965 -0.153896
C68   C     C_R   0.221273 0.242649 0.489407 -0.187459
C69   C     C_R   0.271839 0.670451 0.560886 -0.014526
C70   C     C_R   0.734572 0.656556 0.436217 0.033599
C71   C     C_R   0.771840 0.170451 0.560886 -0.014526
C72   C     C_R   0.234572 0.156556 0.436217 0.033599
C73   C     C_R   0.260409 0.634449 0.851370 0.601297
C74   C     C_R   0.739517 0.634920 0.148524 0.599829
C75   C     C_R   0.760409 0.134449 0.851370 0.601297
C76   C     C_R   0.239517 0.134920 0.148524 0.599829
C77   C     C_R   0.270129 0.050322 0.648020 0.570509
C78   C     C_R   0.729723 0.047690 0.353488 0.540038
C79   C     C_R   0.770129 0.550322 0.648020 0.570509
C80   C     C_R   0.229723 0.547690 0.353488 0.540038
C81   C     C_R   0.473544 0.823359 0.649118 0.562222
C82   C     C_R   0.561782 0.817932 0.361096 0.528858
C83   C     C_R   0.973544 0.323359 0.649118 0.562222
C84   C     C_R   0.061782 0.317932 0.361096 0.528858
C85   C     C_R   0.274869 0.692158 0.636908 0.572612
C86   C     C_R   0.725659 0.691063 0.363090 0.553502
C87   C     C_R   0.774869 0.192158 0.636908 0.572612
C88   C     C_R   0.225659 0.191062 0.363090 0.553502
C89   C     C_3   0.501466 0.942457 0.020856 0.450987
C90   C     C_3   0.537333 0.882683 0.957386 0.417263
C91   C     C_3   0.001466 0.442457 0.020856 0.450987
C92   C     C_3   0.037333 0.382683 0.957386 0.417263
C93   C     C_3   0.429940 0.882980 0.998883 -0.160673
C94   C     C_3   0.556852 0.769117 0.002608 -0.150667
C95   C     C_3   0.929940 0.382980 0.998883 -0.160673
C96   C     C_3   0.056852 0.269117 0.002608 -0.150667
C97   C     C_3   0.466995 0.822648 0.935941 -0.022475
C98   C     C_3   0.520149 0.828876 0.065973 -0.011646
C99   C     C_3   0.966995 0.322648 0.935941 -0.022475
C100  C     C_3   0.020149 0.328876 0.065973 -0.011646
Cr1   Cr    Cr6+3 0.229630 0.835900 0.747350 1.154423
Cr2   Cr    Cr6+3 0.770370 0.835900 0.252650 1.126914
Cr3   Cr    Cr6+3 0.729630 0.335900 0.747350 1.154423
Cr4   Cr    Cr6+3 0.270370 0.335900 0.252650 1.126914
Cr5   Cr    Cr6+3 0.387410 0.989850 0.750850 1.110846
Cr6   Cr    Cr6+3 0.612590 0.989850 0.249150 1.109842
Cr7   Cr    Cr6+3 0.887410 0.489850 0.750850 1.110846
Cr8   Cr    Cr6+3 0.112590 0.489850 0.249150 1.109842
Cr9   Cr    Cr6+3 0.385800 0.677120 0.749340 1.118779
Cr10  Cr    Cr6+3 0.614200 0.677120 0.250660 1.139835
Cr11  Cr    Cr6+3 0.885800 0.177120 0.749340 1.118779
Cr12  Cr    Cr6+3 0.114200 0.177120 0.250660 1.139835
H1    H     H_    0.376119 0.922479 0.995862 0.120216
H2    H     H_    0.610391 0.727912 0.004617 0.144883
H3    H     H_    0.876119 0.422479 0.995862 0.120216
H4    H     H_    0.110391 0.227912 0.004617 0.144883
H5    H     H_    0.168450 0.737014 0.417064 0.200833
H6    H     H_    0.797479 0.421687 0.536426 0.115538
H7    H     H_    0.668450 0.237014 0.417064 0.200833
H8    H     H_    0.297479 0.921687 0.536426 0.115538
H9    H     H_    0.365363 0.554411 0.561499 0.191656
H10   H     H_    0.703509 0.834553 0.475431 0.113812
H11   H     H_    0.865363 0.054412 0.561499 0.191656
H12   H     H_    0.203509 0.334553 0.475431 0.113812
H13   H     H_    0.478120 0.611753 0.964516 0.250859
H14   H     H_    0.412474 0.726029 0.083483 0.170444
H15   H     H_    0.978120 0.111753 0.964516 0.250859
H16   H     H_    0.912474 0.226029 0.083483 0.170444
H17   H     H_    0.139259 0.656010 0.055898 0.258737
H18   H     H_    0.859380 0.660745 0.943006 0.239599
H19   H     H_    0.639259 0.156010 0.055898 0.258737
H20   H     H_    0.359380 0.160745 0.943006 0.239599
H21   H     H_    0.527998 0.016796 0.439385 0.176523
H22   H     H_    0.491922 0.021260 0.562849 0.172078
H23   H     H_    0.027998 0.516796 0.439385 0.176523
H24   H     H_    0.991922 0.521260 0.562849 0.172078
O1    O     O_R   0.214270 0.709000 0.827470 -0.432255
O2    O     O_R   0.785730 0.709000 0.172530 -0.427559
O3    O     O_R   0.714270 0.209000 0.827470 -0.432255
O4    O     O_R   0.285730 0.209000 0.172530 -0.427559
O5    O     O_R   0.445950 0.919440 0.676520 -0.497607
O6    O     O_R   0.554050 0.919440 0.323480 -0.481633
O7    O     O_R   0.945950 0.419440 0.676520 -0.497607
O8    O     O_R   0.054050 0.419440 0.323480 -0.481633
O9    O     O_R   0.456730 0.717630 0.669840 -0.498283
O10   O     O_R   0.543270 0.717630 0.330160 -0.463209
O11   O     O_R   0.956730 0.217630 0.669840 -0.498283
O12   O     O_R   0.043270 0.217630 0.330160 -0.463209
O13   O     O_R   0.320620 0.625640 0.672920 -0.501098
O14   O     O_R   0.679380 0.625640 0.327080 -0.459521
O15   O     O_R   0.820620 0.125640 0.672920 -0.501098
O16   O     O_R   0.179380 0.125640 0.327080 -0.459521
O17   O     O_3   0.334280 0.834290 0.749180 -0.360835
O18   O     O_3   0.665720 0.834290 0.250820 -0.368270
O19   O     O_3   0.834280 0.334290 0.749180 -0.360835
O20   O     O_3   0.165720 0.334290 0.250820 -0.368270
O21   O     O_R   0.236160 0.958490 0.823130 -0.482642
O22   O     O_R   0.763840 0.958490 0.176870 -0.477219
O23   O     O_R   0.736160 0.458490 0.823130 -0.482642
O24   O     O_R   0.263840 0.458490 0.176870 -0.477219
O25   O     O_R   0.332080 0.075470 0.831280 -0.506903
O26   O     O_R   0.667920 0.075470 0.168720 -0.490838
O27   O     O_R   0.832080 0.575470 0.831280 -0.506903
O28   O     O_R   0.167920 0.575470 0.168720 -0.490838
O29   O     O_R   0.446300 0.918110 0.826620 -0.433304
O30   O     O_R   0.553700 0.918110 0.173380 -0.441152
O31   O     O_R   0.946300 0.418110 0.826620 -0.433304
O32   O     O_R   0.053700 0.418110 0.173380 -0.441152
O33   O     O_R   0.457110 0.716200 0.831760 -0.461728
O34   O     O_R   0.542890 0.716200 0.168240 -0.461572
O35   O     O_R   0.957110 0.216200 0.831760 -0.461728
O36   O     O_R   0.042890 0.216200 0.168240 -0.461572
O37   O     O_R   0.320980 0.624310 0.823030 -0.461591
O38   O     O_R   0.679020 0.624310 0.176970 -0.453319
O39   O     O_R   0.820980 0.124310 0.823030 -0.461591
O40   O     O_R   0.179020 0.124310 0.176970 -0.453319
O41   O     O_R   0.213890 0.710430 0.665540 -0.408637
O42   O     O_R   0.786110 0.710430 0.334460 -0.443474
O43   O     O_R   0.713890 0.210430 0.665540 -0.408637
O44   O     O_R   0.286110 0.210430 0.334460 -0.443474
O45   O     O_R   0.235810 0.959820 0.673020 -0.469888
O46   O     O_R   0.764190 0.959820 0.326980 -0.495420
O47   O     O_R   0.735810 0.459820 0.673020 -0.469888
O48   O     O_R   0.264190 0.459820 0.326980 -0.495420
O49   O     O_R   0.331700 0.076900 0.669350 -0.503940
O50   O     O_R   0.668300 0.076900 0.330650 -0.529422
O51   O     O_R   0.831700 0.576900 0.669350 -0.503940
O52   O     O_R   0.168300 0.576900 0.330650 -0.529421
F1    F     F_    0.170165 0.803619 0.546521 -0.592988
F2    F     F_    0.779388 0.460196 0.400971 -0.600104
F3    F     F_    0.670165 0.303619 0.546521 -0.592989
F4    F     F_    0.279388 0.960196 0.400971 -0.600104
I1    I     I_    0.383808 0.415613 0.428254 -0.227169
I2    I     I_    0.713713 0.842570 0.640683 -0.259431
I3    I     I_    0.883808 0.915613 0.428254 -0.227169
I4    I     I_    0.213712 0.342570 0.640683 -0.259431
F5    F     F_    0.510401 0.062808 0.042078 -0.522775
F6    F     F_    0.581946 0.938906 0.909779 -0.549483
F7    F     F_    0.010401 0.562808 0.042078 -0.522775
F8    F     F_    0.081946 0.438906 0.909779 -0.549483
F9    F     F_    0.365601 0.495131 0.929814 -0.594777
F10   F     F_    0.633233 0.499017 0.069927 -0.576380
F11   F     F_    0.865601 0.995131 0.929814 -0.594777
F12   F     F_    0.133233 0.999017 0.069927 -0.576380
I5    I     I_    0.396185 0.454370 0.091769 -0.023750
I6    I     I_    0.602659 0.464504 0.907251 -0.023613
I7    I     I_    0.896185 0.954370 0.091769 -0.023750
I8    I     I_    0.102659 0.964504 0.907251 -0.023613
F13   F     F_    0.130618 0.669932 0.923128 -0.500780
F14   F     F_    0.869725 0.665152 0.076473 -0.524519
F15   F     F_    0.630618 0.169932 0.923128 -0.500780
F16   F     F_    0.369725 0.165152 0.076473 -0.524519
I9    I     I_    0.569840 0.563420 0.622588 -0.139518
I10   I     I_    0.570076 0.529976 0.438819 -0.156925
I11   I     I_    0.069840 0.063420 0.622588 -0.139519
I12   I     I_    0.070076 0.029976 0.438819 -0.156925

loop_
_geom_bond_atom_site_label_1
_geom_bond_atom_site_label_2
_ccdc_geom_bond_type
C44   H24   S    
Cr5   O17   S    
C49   C53   A    
C58   C62   A    
C93   C97   S    
C34   C37   A    
C77   O49   A    
C41   C42   A    
C14   C18   A    
Cr9   O37   S    
Cr9   O13   S    
C35   C36   A    
C40   C83   S    
C92   C96   S    
C82   O6    A    
Cr2   O22   S    
C41   H21   S    
C5    C94   S    
C94   H2    S    
C51   F3    S    
C7    C8    S    
C94   C98   S    
C55   H7    S    
C15   C19   A    
C7    C96   S    
Cr8   O28   S    
C45   O29   A    
C50   C54   A    
C79   O51   A    
C75   O3    A    
C37   C41   A    
Cr11  O39   S    
C6    C98   S    
C56   C60   A    
C39   C84   S    
C74   O38   A    
Cr11  O11   S    
C86   O14   A    
Cr5   O5    S    
C5    C6    S    
C30   C74   S    
C53   H5    S    
C35   I11   S    
C49   F1    S    
C84   O8    A    
C95   C99   S    
Cr7   O51   S    
C86   O42   A    
C22   H18   S    
C47   C99   S    
C3    C18   S    
Cr2   O2    S    
Cr5   O49   S    
C9    C13   A    
C82   O10   A    
C48   O36   A    
C11   C15   A    
C8    H16   S    
C12   C16   A    
C63   I3    S    
C95   H3    S    
Cr6   O18   S    
C48   O32   A    
C77   O45   A    
C4    O28   A    
Cr6   O6    S    
C78   O50   A    
C65   H9    S    
C91   C100  S    
Cr9   O17   S    
Cr2   O18   S    
C90   C97   S    
Cr3   O43   S    
C9    C29   A    
C91   F7    S    
C81   O5    A    
C46   C98   S    
C11   C31   A    
C49   C69   A    
C12   C32   A    
C3    O23   A    
C88   O16   A    
C57   C80   S    
C68   H12   S    
Cr12  O36   S    
C8    C95   S    
C51   C71   A    
Cr4   O24   S    
C59   C78   S    
C27   F15   S    
C72   C88   S    
Cr9   O33   S    
C90   C94   S    
Cr7   O31   S    
Cr1   O21   S    
C25   C29   A    
C48   C100  S    
C63   C67   A    
C60   C77   S    
C62   C66   A    
C27   C31   A    
Cr2   O46   S    
C20   C24   A    
C28   C32   A    
C92   F8    S    
Cr6   O50   S    
C33   I9    S    
C10   C14   A    
C91   C92   S    
C53   C57   A    
C11   F11   S    
C51   C55   A    
Cr10  O14   S    
Cr1   O17   S    
C75   O39   A    
C89   C93   S    
C17   C21   A    
Cr12  O12   S    
Cr11  O15   S    
C68   C72   A    
C78   O46   A    
C7    C99   S    
C84   O12   A    
C19   C23   A    
C43   C44   A    
Cr10  O18   S    
C88   O44   A    
Cr3   O3    S    
C47   O31   A    
C10   C30   A    
C31   C75   S    
Cr8   O20   S    
C76   O40   A    
C16   C20   A    
C6    C93   S    
C21   H17   S    
C52   C72   A    
C83   O7    A    
C66   H10   S    
C33   C34   A    
C80   O52   A    
C23   H19   S    
C26   F14   S    
C93   H1    S    
Cr4   O20   S    
C25   F13   S    
C10   F10   S    
C6    H14   S    
C46   O34   A    
C9    F9    S    
C58   C79   S    
C83   O11   A    
C4    C17   S    
Cr10  O34   S    
Cr3   O19   S    
Cr12  O20   S    
Cr12  O40   S    
C87   O43   A    
C5    C97   S    
C26   C30   A    
C23   C27   A    
C14   I6    S    
C38   C81   S    
C71   C87   S    
Cr2   O42   S    
Cr3   O47   S    
C37   C82   S    
C28   F16   S    
C62   I2    S    
C76   O4    A    
Cr7   O7    S    
C70   C86   S    
C64   C68   A    
C61   I1    S    
Cr8   O8    S    
C69   C85   S    
C55   C59   A    
C34   I10   S    
C15   I7    S    
C54   C58   A    
C21   C25   A    
C1    C20   S    
Cr1   O1    S    
C46   O30   A    
Cr4   O48   S    
C2    C19   S    
C18   C22   A    
C59   C63   A    
Cr8   O52   S    
C36   C39   A    
Cr9   O9    S    
C24   C28   A    
C80   O48   A    
Cr7   O27   S    
C16   I8    S    
C64   I4    S    
C67   H11   S    
Cr12  O16   S    
C32   C76   S    
C13   I5    S    
C47   O35   A    
C57   C61   A    
C56   H8    S    
Cr6   O26   S    
C3    O27   A    
C43   H23   S    
C89   F5    S    
C90   F6    S    
C66   C70   A    
C81   O9    A    
C33   C38   A    
C73   O37   A    
C13   C17   A    
C89   C98   S    
C60   C64   A    
C54   H6    S    
C35   C40   A    
C50   C70   A    
C45   C97   S    
C36   I12   S    
C4    O24   A    
C24   H20   S    
C74   O2    A    
Cr3   O23   S    
C8    C100  S    
Cr4   O44   S    
Cr10  O38   S    
C73   O1    A    
Cr6   O30   S    
C65   C69   A    
C96   C100  S    
C1    O21   A    
C52   F4    S    
C79   O47   A    
C42   H22   S    
C67   C71   A    
C12   F12   S    
Cr8   O32   S    
C50   F2    S    
Cr1   O45   S    
C85   O13   A    
Cr1   O41   S    
C1    O25   A    
C38   C42   A    
C61   C65   A    
C40   C44   A    
C29   C73   S    
C2    O22   A    
C39   C43   A    
C91   C95   S    
C85   O41   A    
C22   C26   A    
C5    H13   S    
Cr5   O29   S    
C96   H4    S    
Cr5   O25   S    
C87   O15   A    
C7    H15   S    
C89   C90   S    
Cr10  O10   S    
Cr11  O19   S    
Cr7   O19   S    
C45   O33   A    
C52   C56   A    
C92   C99   S    
Cr4   O4    S    
C2    O26   A    
Cr11  O35   S    
