data_mof_unit_2802.cif
_audit_creation_date              2012-10-26T19:25:52-0400
_audit_creation_method            fapswitch 2.2
_symmetry_space_group_name_H-M    P1
_symmetry_Int_Tables_number       1
_space_group_crystal_system       triclinic
_cell_length_a                    15.038711
_cell_length_b                    13.88194
_cell_length_c                    11.703077
_cell_angle_alpha                 90.126059
_cell_angle_beta                  88.545137
_cell_angle_gamma                 89.994058
_cell_volume                      2442.41669081

loop_
_atom_site_label
_atom_site_type_symbol
_atom_type_description
_atom_site_fract_x
_atom_site_fract_y
_atom_site_fract_z
_atom_type_partial_charge
C1    C     C_R   0.329193 0.499995 0.499439 0.582360
C2    C     C_R   0.554864 0.205568 0.424711 0.185614
C3    C     C_R   0.555608 0.794050 0.425472 0.189622
C4    C     C_R   0.444890 0.205940 0.575117 0.187505
C5    C     C_R   0.556133 0.896760 0.423853 -0.021024
C6    C     C_R   0.444172 0.103224 0.576521 -0.020914
C7    C     C_R   0.444078 0.897104 0.576333 -0.021196
C8    C     C_R   0.555834 0.102874 0.423588 -0.021392
C9    C     C_R   0.500079 0.948375 0.500081 0.031601
C10   C     C_R   0.500065 0.051603 0.500110 0.031924
C11   C     C_R   0.611683 0.949406 0.347797 -0.097255
C12   C     C_R   0.670568 0.500244 0.500776 0.557225
C13   C     C_R   0.388593 0.050578 0.652546 -0.097316
C14   C     C_R   0.388519 0.950059 0.652426 -0.097374
C15   C     C_R   0.611482 0.049922 0.347598 -0.097536
C16   C     C_R   0.502270 0.499963 0.284160 0.591692
C17   C     C_R   0.500063 0.500069 0.715815 0.571590
C18   C     C_1   0.503570 0.499983 0.162309 0.068214
C19   C     C_1   0.501132 0.500148 0.837535 0.065301
C20   C     C_1   0.503462 0.500054 0.059795 0.014423
C21   C     C_1   0.502320 0.500125 0.939998 0.015492
C22   C     C_R   0.815238 0.506389 0.399246 -0.009462
C23   C     C_R   0.907951 0.522171 0.398871 -0.016227
C24   C     C_R   0.186720 0.523088 0.605576 -0.006089
C25   C     C_R   0.767395 0.502919 0.503001 0.006833
C26   C     C_R   0.232092 0.501542 0.502398 -0.000153
C27   C     C_R   0.809323 0.514945 0.608027 0.044918
C28   C     C_R   0.185812 0.487310 0.401371 0.039945
C29   C     C_R   0.903434 0.527224 0.610404 -0.020409
C30   C     C_R   0.094578 0.510937 0.398802 -0.019995
C31   C     C_R   0.952536 0.525002 0.504548 0.011574
C32   C     C_R   0.046726 0.524348 0.503749 0.010714
C33   C     C_1   0.768178 0.486932 0.294547 0.262514
C34   C     C_R   0.092862 0.535108 0.607295 -0.013631
C35   C     C_1   0.236878 0.517681 0.709968 0.257540
C36   C     C_2   0.751271 0.514224 0.712256 0.579296
C37   C     C_2   0.229644 0.434340 0.305018 0.608813
C38   C     C_2   0.906219 0.552091 0.826705 0.607912
C39   C     C_2   0.100059 0.540122 0.184287 0.609498
C40   C     C_1   0.084654 0.606333 0.803900 0.257119
C41   C     C_1   0.916949 0.582099 0.198303 0.262782
C42   C     C_2   0.384724 0.743250 0.655694 0.611759
C43   C     C_2   0.613163 0.256701 0.341853 0.613157
C44   C     C_2   0.616425 0.742412 0.345536 0.610036
C45   C     C_R   0.950528 0.545904 0.712583 0.050757
C46   C     C_2   0.385089 0.257585 0.656256 0.612097
C47   C     C_R   0.050400 0.526346 0.294591 0.053422
C48   C     C_R   0.043311 0.558691 0.708022 -0.030850
C49   C     C_R   0.957778 0.537830 0.296356 -0.024332
C50   C     C_R   0.444675 0.794411 0.574764 0.188113
Cu1   Cu    Cu3+1 0.500000 0.597420 0.500000 1.105362
Cu2   Cu    Cu3+1 0.500000 0.402580 0.500000 1.100240
H1    H     H_    0.656118 0.913604 0.287204 0.163877
H2    H     H_    0.631714 0.301780 0.179261 0.355083
H3    H     H_    0.638648 0.691978 0.185680 0.347332
H4    H     H_    0.364482 0.306711 0.817008 0.347952
H5    H     H_    0.344238 0.086381 0.713233 0.162795
H6    H     H_    0.344106 0.914506 0.713055 0.163698
H7    H     H_    0.655846 0.085476 0.286912 0.163383
H8    H     H_    0.676194 0.591216 0.824559 0.344892
H9    H     H_    0.328683 0.428151 0.186900 0.342991
H10   H     H_    0.862059 0.480330 0.966751 0.370967
H11   H     H_    0.119653 0.495366 0.021578 0.364207
H12   H     H_    0.363641 0.695698 0.816795 0.355458
N1    N     N_R   0.500000 0.743810 0.500000 -0.291002
N2    N     N_R   0.500000 0.256190 0.500000 -0.292553
N3    N     N_1   0.730445 0.471478 0.211500 -0.290014
N4    N     N_1   0.277219 0.512583 0.792669 -0.294399
N5    N     N_1   0.116886 0.645517 0.879824 -0.202142
N6    N     N_1   0.884733 0.618826 0.120949 -0.195964
O1    O     O_R   0.370260 0.582280 0.500020 -0.470757
O2    O     O_R   0.713770 0.600402 0.752308 -0.637288
O3    O     O_2   0.195891 0.360327 0.269387 -0.458730
O4    O     O_R   0.307508 0.469804 0.253445 -0.669962
O5    O     O_2   0.881009 0.630058 0.863929 -0.439023
O6    O     O_R   0.895675 0.468494 0.891965 -0.624749
O7    O     O_2   0.159420 0.600146 0.176519 -0.456160
O8    O     O_R   0.078201 0.483991 0.089753 -0.635197
O9    O     O_2   0.308363 0.725700 0.629045 -0.507380
O10   O     O_R   0.411856 0.726798 0.767306 -0.674498
O11   O     O_2   0.689411 0.276530 0.366869 -0.494691
O12   O     O_R   0.629740 0.417720 0.499980 -0.474525
O13   O     O_R   0.584553 0.270707 0.230407 -0.680116
O14   O     O_2   0.692513 0.724952 0.373449 -0.502394
O15   O     O_R   0.590335 0.724751 0.233657 -0.677254
O16   O     O_2   0.309030 0.276363 0.629373 -0.498981
O17   O     O_R   0.412139 0.273872 0.768027 -0.675335
O18   O     O_R   0.629740 0.582280 0.499980 -0.472933
O19   O     O_R   0.370260 0.417720 0.500020 -0.475072
O20   O     O_R   0.500010 0.582270 0.337200 -0.471133
O21   O     O_R   0.499990 0.417730 0.662800 -0.474589
O22   O     O_R   0.499990 0.582270 0.662800 -0.477725
O23   O     O_R   0.500010 0.417730 0.337200 -0.478842
O24   O     O_2   0.734044 0.438022 0.760077 -0.471037

loop_
_geom_bond_atom_site_label_1
_geom_bond_atom_site_label_2
_ccdc_geom_bond_type
C30   C32   A    
C37   O4    S    
C16   O20   A    
C27   C29   A    
C43   O13   S    
C17   O21   A    
C47   C49   A    
C4    C46   S    
C42   O10   S    
C16   O23   A    
C1    O1    A    
C39   O7    D    
C19   C21   T    
C24   C26   A    
C5    C11   A    
Cu1   O20   S    
C23   C49   A    
C13   H5    S    
H8    O2    S    
C35   N4    T    
C40   C48   S    
Cu1   N1    S    
C38   C45   S    
C11   C15   A    
C7    C14   A    
C22   C25   A    
C9    C10   A    
C11   H1    S    
C42   O9    D    
C13   C14   A    
H12   O10   S    
H10   O6    S    
Cu2   O19   S    
C3    N1    A    
C17   O22   A    
Cu1   O1    S    
C41   C49   S    
H2    O13   S    
C38   O5    D    
C14   H6    S    
C3    C44   S    
C24   C35   S    
C40   N5    T    
C12   O18   A    
Cu1   Cu2   S    
C39   O8    S    
C30   C47   A    
C4    C6    A    
H4    O17   S    
C38   O6    S    
C44   O14   D    
C24   C34   A    
C29   C45   A    
C32   C34   A    
H3    O15   S    
C5    C9    A    
Cu1   O22   S    
C31   C32   A    
C2    C43   S    
C12   O12   A    
Cu2   O23   S    
Cu2   O12   S    
C42   C50   S    
C16   C18   S    
C8    C15   A    
C1    C26   S    
C43   O11   D    
C34   C48   A    
C44   O15   S    
C3    C5    A    
Cu2   N2    S    
C33   N3    T    
C39   C47   S    
C46   O17   S    
C45   C48   A    
C7    C9    A    
C22   C33   S    
C37   O3    D    
C1    O19   A    
C15   H7    S    
C2    C8    A    
C7    C50   A    
C2    N2    A    
Cu1   O18   S    
C6    C10   A    
H9    O4    S    
C25   C27   A    
C26   C28   A    
C12   C25   S    
C27   C36   S    
C28   C30   A    
C29   C31   A    
C6    C13   A    
C4    N2    A    
C28   C37   S    
C17   C19   S    
C18   C20   T    
C50   N1    A    
C36   O24   D    
C20   C21   S    
C8    C10   A    
C22   C23   A    
Cu2   O21   S    
C36   O2    S    
C23   C31   A    
C41   N6    T    
C46   O16   D    
H11   O8    S    
