data_mof_unit_2128.cif
_audit_creation_date              2012-10-26T19:27:35-0400
_audit_creation_method            fapswitch 2.2
_symmetry_space_group_name_H-M    P1
_symmetry_Int_Tables_number       1
_space_group_crystal_system       triclinic
_cell_length_a                    20.789772
_cell_length_b                    21.207569
_cell_length_c                    14.741096
_cell_angle_alpha                 89.999936
_cell_angle_beta                  127.830134
_cell_angle_gamma                 90.000018
_cell_volume                      5133.40369081

loop_
_atom_site_label
_atom_site_type_symbol
_atom_type_description
_atom_site_fract_x
_atom_site_fract_y
_atom_site_fract_z
_atom_type_partial_charge
C1    C     C_R   0.602283 0.913308 0.630843 0.547922
C2    C     C_R   0.706650 0.199724 0.117889 -0.133258
C3    C     C_R   0.701595 0.758952 0.940499 0.031907
C4    C     C_R   0.244255 0.709029 0.990567 0.031858
C5    C     C_R   0.798400 0.258956 0.059495 0.031907
C6    C     C_R   0.755742 0.709024 0.009427 0.031858
C7    C     C_R   0.201592 0.258949 0.940495 0.031907
C8    C     C_R   0.351352 0.782205 0.037203 -0.139988
C9    C     C_R   0.701420 0.178570 0.024497 -0.138809
C10   C     C_R   0.648631 0.782189 0.962774 -0.139988
C11   C     C_R   0.298578 0.178567 0.975500 -0.138810
C12   C     C_R   0.851363 0.282193 0.037219 -0.139988
C13   C     C_R   0.653135 0.760540 0.055299 -0.133297
C14   C     C_R   0.201430 0.678566 0.024505 -0.138808
C15   C     C_R   0.148625 0.282183 0.962765 -0.139989
C16   C     C_R   0.798575 0.678567 0.975498 -0.138809
C17   C     C_R   0.293351 0.199722 0.882111 -0.133258
C18   C     C_R   0.846860 0.260544 0.944694 -0.133297
C19   C     C_R   0.206663 0.699717 0.117900 -0.133259
C20   C     C_R   0.153127 0.260533 0.055289 -0.133297
C21   C     C_R   0.793347 0.699721 0.882108 -0.133258
C22   C     C_R   0.322375 0.001230 0.666300 -0.160428
C23   C     C_R   0.677625 0.001230 0.333700 -0.160427
C24   C     C_R   0.822375 0.501229 0.666300 -0.160427
C25   C     C_R   0.396152 0.085414 0.367216 0.550031
C26   C     C_R   0.177624 0.501231 0.333700 -0.160428
C27   C     C_R   0.351934 0.000447 0.603317 0.036888
C28   C     C_R   0.648066 0.000447 0.396683 0.036889
C29   C     C_R   0.851934 0.500446 0.603317 0.036888
C30   C     C_R   0.148066 0.500448 0.396683 0.036888
C31   C     C_R   0.488076 0.000338 0.775152 0.031397
C32   C     C_R   0.511924 0.000338 0.224848 0.031397
C33   C     C_R   0.988076 0.500338 0.775152 0.031398
C34   C     C_R   0.011924 0.500337 0.224848 0.031398
C35   C     C_R   0.461883 0.001203 0.844817 -0.000304
C36   C     C_R   0.397717 0.913308 0.369157 0.547922
C37   C     C_R   0.538117 0.001203 0.155183 -0.000304
C38   C     C_R   0.961883 0.501204 0.844817 -0.000303
C39   C     C_R   0.038117 0.501204 0.155183 -0.000303
C40   C     C_R   0.376818 0.001576 0.786737 0.037929
C41   C     C_R   0.623182 0.001577 0.213262 0.037930
C42   C     C_R   0.876818 0.501576 0.786737 0.037929
C43   C     C_R   0.123182 0.501578 0.213262 0.037930
C44   C     C_R   0.516167 0.001637 0.968599 0.020353
C45   C     C_R   0.483833 0.001637 0.031401 0.020352
C46   C     C_R   0.016167 0.501638 0.968599 0.020354
C47   C     C_R   0.603848 0.085414 0.632783 0.550031
C48   C     C_R   0.983833 0.501637 0.031401 0.020353
C49   C     C_R   0.398438 0.002253 0.968286 -0.148248
C50   C     C_R   0.601562 0.002253 0.031714 -0.148246
C51   C     C_R   0.898438 0.502252 0.968286 -0.148247
C52   C     C_R   0.101561 0.502255 0.031714 -0.148246
C53   C     C_R   0.346393 0.002335 0.848831 -0.131774
C54   C     C_R   0.653606 0.002335 0.151169 -0.131773
C55   C     C_R   0.846393 0.502334 0.848831 -0.131774
C56   C     C_R   0.153607 0.502337 0.151169 -0.131775
C57   C     C_R   0.667037 0.131070 0.712356 -0.003660
C58   C     C_R   0.102282 0.413308 0.630842 0.547922
C59   C     C_R   0.344380 0.859910 0.301545 -0.003086
C60   C     C_R   0.332960 0.131068 0.287641 -0.003660
C61   C     C_R   0.655619 0.859910 0.698454 -0.003087
C62   C     C_R   0.167035 0.631072 0.712353 -0.003659
C63   C     C_R   0.844380 0.359911 0.301544 -0.003087
C64   C     C_R   0.832961 0.631069 0.287642 -0.003660
C65   C     C_R   0.155619 0.359909 0.698454 -0.003088
C66   C     C_R   0.781501 0.197631 0.772751 -0.132911
C67   C     C_R   0.254792 0.775176 0.269973 -0.133185
C68   C     C_R   0.218489 0.197622 0.227237 -0.132911
C69   C     C_R   0.896152 0.585414 0.367216 0.550031
C70   C     C_R   0.745219 0.775182 0.730037 -0.133185
C71   C     C_R   0.281488 0.697643 0.772733 -0.132911
C72   C     C_R   0.754780 0.275183 0.269961 -0.133185
C73   C     C_R   0.718495 0.697628 0.227245 -0.132911
C74   C     C_R   0.245223 0.275185 0.730041 -0.133185
C75   C     C_R   0.721514 0.154913 0.694898 -0.136677
C76   C     C_R   0.300721 0.828261 0.331533 -0.135780
C77   C     C_R   0.278480 0.154907 0.305094 -0.136676
C78   C     C_R   0.699288 0.828266 0.668476 -0.135779
C79   C     C_R   0.221504 0.654921 0.694886 -0.136676
C80   C     C_R   0.897717 0.413308 0.369157 0.547922
C81   C     C_R   0.800712 0.328267 0.331523 -0.135780
C82   C     C_R   0.778485 0.654911 0.305099 -0.136676
C83   C     C_R   0.199291 0.328268 0.668480 -0.135779
C84   C     C_R   0.674041 0.149423 0.809090 -0.137070
C85   C     C_R   0.341394 0.838203 0.209602 -0.134006
C86   C     C_R   0.325956 0.149422 0.190907 -0.137071
C87   C     C_R   0.658598 0.838197 0.790388 -0.134009
C88   C     C_R   0.174044 0.649422 0.809091 -0.137069
C89   C     C_R   0.841398 0.338200 0.209608 -0.134008
C90   C     C_R   0.825956 0.649422 0.190907 -0.137071
C91   C     C_R   0.103848 0.585414 0.632783 0.550032
C92   C     C_R   0.158595 0.338195 0.790385 -0.134009
C93   C     C_R   0.735681 0.190706 0.890860 0.031442
C94   C     C_R   0.298715 0.783205 0.149683 0.032206
C95   C     C_R   0.264313 0.190700 0.109132 0.031442
C96   C     C_R   0.701280 0.783200 0.850310 0.032206
C97   C     C_R   0.235679 0.690709 0.890855 0.031442
C98   C     C_R   0.798716 0.283203 0.149685 0.032206
C99   C     C_R   0.764315 0.690703 0.109136 0.031442
C100  C     C_R   0.201279 0.283199 0.850308 0.032206
C101  C     C_R   0.788346 0.216283 0.869627 0.051990
C102  C     C_R   0.346845 0.760558 0.944674 -0.133298
C103  C     C_R   0.253223 0.752554 0.179196 0.050412
C104  C     C_R   0.211645 0.216274 0.130360 0.051990
C105  C     C_R   0.746783 0.752556 0.820808 0.050412
C106  C     C_R   0.288336 0.716293 0.869613 0.051990
C107  C     C_R   0.753215 0.252558 0.179189 0.050412
C108  C     C_R   0.711650 0.716280 0.130367 0.051990
C109  C     C_R   0.246785 0.252557 0.820810 0.050412
C110  C     C_R   0.744253 0.209027 0.990568 0.031858
C111  C     C_R   0.298397 0.758961 0.059488 0.031907
C112  C     C_R   0.255742 0.209022 0.009424 0.031858
Cu1   Cu    Cu3+1 0.526640 0.000000 0.436960 0.927934
Cu2   Cu    Cu3+1 0.473360 0.000000 0.563040 0.927933
Cu3   Cu    Cu3+1 0.026640 0.500000 0.436960 0.927933
Cu4   Cu    Cu3+1 0.973360 0.500000 0.563040 0.927933
H1    H     H_    0.388454 0.779602 0.930537 0.108379
H2    H     H_    0.630453 0.002896 0.991132 0.090766
H3    H     H_    0.869547 0.502893 0.008868 0.090766
H4    H     H_    0.130453 0.502899 0.991132 0.090765
H5    H     H_    0.371808 0.865832 0.184886 0.118992
H6    H     H_    0.629062 0.132246 0.817190 0.121688
H7    H     H_    0.628176 0.865820 0.815097 0.118996
H8    H     H_    0.370938 0.132248 0.182811 0.121689
H9    H     H_    0.871820 0.365824 0.184899 0.118995
H10   H     H_    0.129071 0.632239 0.817200 0.121686
H11   H     H_    0.128170 0.365816 0.815090 0.118997
H12   H     H_    0.672959 0.175057 0.141135 0.114801
H13   H     H_    0.870935 0.632245 0.182808 0.121688
H14   H     H_    0.302441 0.844225 0.402782 0.129986
H15   H     H_    0.717401 0.140996 0.620799 0.128251
H16   H     H_    0.697573 0.844234 0.597234 0.129986
H17   H     H_    0.282591 0.140990 0.379192 0.128251
H18   H     H_    0.802428 0.344234 0.402767 0.129985
H19   H     H_    0.217388 0.641007 0.620783 0.128252
H20   H     H_    0.197578 0.344238 0.597240 0.129986
H21   H     H_    0.782597 0.640995 0.379199 0.128252
H22   H     H_    0.322227 0.716446 0.756829 0.106961
H23   H     H_    0.611520 0.779578 0.069428 0.108379
H24   H     H_    0.720811 0.251580 0.293696 0.107533
H25   H     H_    0.677749 0.716426 0.243141 0.106963
H26   H     H_    0.279196 0.251584 0.706310 0.107534
H27   H     H_    0.822247 0.216429 0.756854 0.106962
H28   H     H_    0.220830 0.751568 0.293716 0.107532
H29   H     H_    0.177740 0.216417 0.243129 0.106963
H30   H     H_    0.779189 0.751579 0.706303 0.107534
H31   H     H_    0.398913 0.815932 0.091846 0.105932
H32   H     H_    0.665135 0.136834 0.982722 0.102796
H33   H     H_    0.601067 0.815912 0.908124 0.105930
H34   H     H_    0.327045 0.175058 0.858868 0.114802
H35   H     H_    0.334865 0.136832 0.017277 0.102797
H36   H     H_    0.898927 0.315917 0.091868 0.105931
H37   H     H_    0.165148 0.636828 0.982733 0.102794
H38   H     H_    0.101059 0.315904 0.908113 0.105930
H39   H     H_    0.834861 0.636831 0.017274 0.102797
H40   H     H_    0.281240 0.002874 0.804385 0.111521
H41   H     H_    0.718760 0.002876 0.195615 0.111520
H42   H     H_    0.781240 0.502873 0.804385 0.111520
H43   H     H_    0.218760 0.502878 0.195615 0.111519
H44   H     H_    0.448464 0.999908 0.188060 0.114822
H45   H     H_    0.888475 0.279583 0.930565 0.108376
H46   H     H_    0.551535 0.999909 0.811940 0.114823
H47   H     H_    0.948465 0.499908 0.188060 0.114822
H48   H     H_    0.051535 0.499909 0.811940 0.114823
H49   H     H_    0.690199 0.000329 0.489544 0.122261
H50   H     H_    0.309801 0.000328 0.510456 0.122262
H51   H     H_    0.190199 0.500329 0.489544 0.122262
H52   H     H_    0.809801 0.500328 0.510456 0.122262
H53   H     H_    0.257133 0.001593 0.620968 0.092228
H54   H     H_    0.742867 0.001594 0.379032 0.092227
H55   H     H_    0.757133 0.501592 0.620968 0.092227
H56   H     H_    0.172978 0.675046 0.141153 0.114801
H57   H     H_    0.242867 0.501596 0.379032 0.092227
H58   H     H_    0.111509 0.279568 0.069414 0.108376
H59   H     H_    0.827039 0.675055 0.858862 0.114802
H60   H     H_    0.369547 0.002895 0.008868 0.090766
N1    N     N_R   0.433280 0.000000 0.657760 -0.231434
N2    N     N_R   0.566720 1.000000 0.342240 -0.231434
N3    N     N_R   0.933280 0.500000 0.657760 -0.231434
N4    N     N_R   0.066720 0.500000 0.342240 -0.231434
O1    O     O_R   0.600040 0.935040 0.546740 -0.504051
O2    O     O_R   0.444990 0.064930 0.346780 -0.508574
O3    O     O_R   0.444990 0.935070 0.346780 -0.509747
O4    O     O_R   0.555010 0.064930 0.653220 -0.508574
O5    O     O_R   0.055010 0.435070 0.653220 -0.509748
O6    O     O_R   0.944990 0.564930 0.346780 -0.508574
O7    O     O_R   0.944990 0.435070 0.346780 -0.509748
O8    O     O_R   0.055010 0.564930 0.653220 -0.508574
O9    O     O_R   0.399960 0.064960 0.453260 -0.502898
O10   O     O_R   0.399960 0.935040 0.453260 -0.504053
O11   O     O_R   0.600040 0.064960 0.546740 -0.502899
O12   O     O_R   0.100040 0.435040 0.546740 -0.504051
O13   O     O_R   0.899960 0.564960 0.453260 -0.502898
O14   O     O_R   0.899960 0.435040 0.453260 -0.504053
O15   O     O_R   0.100040 0.564960 0.546740 -0.502899
O16   O     O_R   0.555010 0.935070 0.653220 -0.509748

loop_
_geom_bond_atom_site_label_1
_geom_bond_atom_site_label_2
_ccdc_geom_bond_type
C65   C92   A    
C91   O8    A    
C16   C21   A    
Cu2   O10   S    
C70   C78   A    
C24   C42   A    
C12   H36   S    
C34   N4    A    
C17   H34   S    
C64   C90   A    
C74   C83   A    
C96   C105  A    
C36   C59   S    
C74   C109  A    
C71   C79   A    
C67   C103  A    
C81   H18   S    
C73   H25   S    
C25   O2    A    
C99   C108  A    
Cu4   O8    S    
C19   C103  A    
C50   C54   A    
Cu2   O16   S    
C31   N1    A    
C37   C41   A    
C36   O10   A    
C13   H23   S    
C29   H52   S    
C30   H51   S    
C38   C42   A    
C56   H43   S    
C95   C112  A    
C10   H33   S    
C33   H48   S    
C18   H45   S    
Cu2   O4    S    
C65   C83   A    
C33   N3    A    
C5    C110  A    
C84   H6    S    
Cu3   Cu4   S    
C46   C52   A    
C2    C107  A    
C68   C77   A    
Cu3   O7    S    
C7    C112  A    
C24   H55   S    
C78   H16   S    
C24   C29   A    
C15   H38   S    
C88   H10   S    
C61   C87   A    
C90   H13   S    
C76   H14   S    
C48   C51   A    
Cu1   O1    S    
C21   H59   S    
C51   H3    S    
C85   H5    S    
C3    C96   A    
C70   H30   S    
C25   C60   S    
C61   C78   A    
C72   C81   A    
C93   C110  A    
Cu4   O14   S    
C3    C6    A    
C7    C15   A    
Cu1   N2    S    
C74   H26   S    
C31   H46   S    
C100  C109  A    
Cu2   O9    S    
C4    C97   A    
C87   C96   A    
C58   O5    A    
C4    C14   A    
C66   C101  A    
C32   N2    A    
C86   H8    S    
C77   H17   S    
C13   C108  A    
C67   H28   S    
C75   H15   S    
C26   C43   A    
C71   H22   S    
C63   C80   S    
C55   H42   S    
C15   C20   A    
Cu1   O11   S    
C46   C48   A    
C60   C77   A    
Cu4   O13   S    
C7    C100  A    
C34   C39   A    
C68   C104  A    
C62   C79   A    
C1    O16   A    
C19   H56   S    
C5    C12   A    
C34   H47   S    
C8    C111  A    
C93   C101  A    
Cu3   O6    S    
C60   C86   A    
C73   C108  A    
C89   H9    S    
C66   H27   S    
C26   H57   S    
C23   C28   A    
C62   C88   A    
C10   C13   A    
C98   C107  A    
C1    C61   S    
C18   C101  A    
C59   C85   A    
C42   C55   A    
C47   C57   S    
C91   O15   A    
C85   C94   A    
C58   C65   S    
Cu1   O2    S    
C72   C107  A    
C45   C49   A    
C94   C111  A    
Cu2   N1    S    
C22   C40   A    
C62   C91   S    
C63   C89   A    
C16   H39   S    
C69   O13   A    
C57   C84   A    
C36   O3    A    
C32   C37   A    
C35   C44   A    
C64   C82   A    
C83   H20   S    
C102  H1    S    
C28   H49   S    
Cu3   O12   S    
C52   H4    S    
C11   H35   S    
C4    C111  A    
C63   C81   A    
C94   C103  A    
C26   C30   A    
C22   C27   A    
C14   H37   S    
C58   O12   A    
C31   C35   A    
Cu4   N3    S    
C8    H31   S    
C97   C106  A    
C37   C45   A    
C92   H11   S    
C90   C99   A    
C80   O14   A    
C95   C104  A    
C92   C100  A    
C27   N1    A    
Cu1   Cu2   S    
C44   C50   A    
C9    C110  A    
Cu3   O15   S    
C11   C17   A    
C1    O1    A    
C11   C112  A    
C50   H2    S    
C14   C19   A    
C64   C69   S    
C44   C45   A    
Cu3   N4    S    
C47   O4    A    
C70   C105  A    
C17   C109  A    
C39   C43   A    
C20   C104  A    
C82   H21   S    
C79   H19   S    
Cu4   O5    S    
C9    H32   S    
C33   C38   A    
C23   C41   A    
C89   C98   A    
C6    C99   A    
C57   C75   A    
C35   C40   A    
C88   C97   A    
C3    C10   A    
C25   O9    A    
C54   H41   S    
C87   H7    S    
Cu1   O3    S    
C23   H54   S    
C28   N2    A    
C49   C53   A    
C66   C75   A    
C59   C76   A    
C80   O7    A    
C73   C82   A    
C102  C106  A    
C51   C55   A    
C84   C93   A    
C47   O11   A    
C20   H58   S    
C41   C54   A    
C38   C46   A    
C22   H53   S    
C86   C95   A    
C27   H50   S    
C6    C16   A    
C43   C56   A    
C72   H24   S    
C5    C98   A    
C53   H40   S    
C40   C53   A    
C29   N3    A    
C71   C106  A    
C12   C18   A    
C30   N4    A    
C67   C76   A    
C2    C9    A    
C8    C102  A    
C69   O6    A    
C49   H60   S    
C21   C105  A    
C68   H29   S    
C52   C56   A    
C39   C48   A    
C32   H44   S    
C2    H12   S    
