data_mof_unit_744.cif
_audit_creation_date              2012-12-10T19:09:34-0500
_audit_creation_method            fapswitch 2.2
_symmetry_space_group_name_H-M    P1
_symmetry_Int_Tables_number       1
_space_group_crystal_system       monoclinic
_cell_length_a                    14.485136
_cell_length_b                    15.587253
_cell_length_c                    9.86893
_cell_angle_alpha                 89.749317
_cell_angle_beta                  90.0
_cell_angle_gamma                 90.0
_cell_volume                      2228.22002774

loop_
_atom_site_label
_atom_site_type_symbol
_atom_type_description
_atom_site_fract_x
_atom_site_fract_y
_atom_site_fract_z
_atom_type_partial_charge
C1    C     C_R   0.124560 0.382764 0.499833 0.955124
C2    C     C_R   0.883249 0.624619 0.499250 0.896560
C3    C     C_R   0.383249 0.875380 0.500750 0.896561
C4    C     C_R   0.383249 0.124620 0.499250 0.896560
C5    C     C_3   0.806991 0.266365 0.648771 -0.458210
C6    C     C_3   0.852222 0.228593 0.413688 -0.500986
C7    C     C_3   0.806991 0.733635 0.351229 -0.458211
C8    C     C_3   0.852222 0.771407 0.586312 -0.500986
C9    C     C_3   0.306991 0.766365 0.648771 -0.458210
C10   C     C_3   0.352222 0.728593 0.413688 -0.500986
C11   C     C_3   0.306991 0.233635 0.351229 -0.458211
C12   C     C_R   0.124560 0.617236 0.500166 0.955124
C13   C     C_3   0.352222 0.271407 0.586312 -0.500986
C14   C     C_3   0.238408 0.691592 0.647117 0.302057
C15   C     C_3   0.273445 0.662899 0.395749 0.292626
C16   C     C_3   0.238408 0.308408 0.352883 0.302057
C17   C     C_3   0.273445 0.337101 0.604251 0.292626
C18   C     C_3   0.738408 0.191592 0.647117 0.302057
C19   C     C_3   0.773445 0.162899 0.395749 0.292626
C20   C     C_3   0.738408 0.808408 0.352883 0.302057
C21   C     C_3   0.773445 0.837101 0.604251 0.292626
C22   C     C_3   0.723815 0.338366 0.452453 -0.360819
C23   C     C_R   0.624560 0.882764 0.499833 0.955124
C24   C     C_3   0.723815 0.661634 0.547547 -0.360819
C25   C     C_3   0.223815 0.838366 0.452453 -0.360819
C26   C     C_3   0.223815 0.161634 0.547547 -0.360818
C27   C     C_3   0.818086 0.303836 0.503365 0.060177
C28   C     C_3   0.818086 0.696164 0.496635 0.060177
C29   C     C_3   0.318086 0.803836 0.503365 0.060177
C30   C     C_3   0.318086 0.196164 0.496635 0.060177
C31   C     C_3   0.196173 0.682374 0.501587 0.072233
C32   C     C_3   0.196173 0.317626 0.498413 0.072233
C33   C     C_3   0.696173 0.182374 0.501587 0.072233
C34   C     C_R   0.624560 0.117236 0.500166 0.955124
C35   C     C_3   0.696173 0.817626 0.498413 0.072233
C36   C     C_3   0.150075 0.768517 0.462626 -0.640071
C37   C     C_3   0.150075 0.231483 0.537374 -0.640071
C38   C     C_3   0.650075 0.268517 0.462626 -0.640071
C39   C     C_3   0.650075 0.731483 0.537374 -0.640071
C40   C     C_3   0.057023 0.429328 0.081121 -0.267669
C41   C     C_3   0.042751 0.421299 0.920533 -0.311614
C42   C     C_3   0.057023 0.570672 0.918879 -0.267669
C43   C     C_3   0.042751 0.578701 0.079467 -0.311614
C44   C     C_3   0.557023 0.929328 0.081121 -0.267670
C45   C     C_3   0.903353 0.484070 0.075881 0.338021
C46   C     C_3   0.542751 0.921299 0.920533 -0.311614
C47   C     C_3   0.557023 0.070672 0.918879 -0.267669
C48   C     C_3   0.542751 0.078701 0.079467 -0.311615
C49   C     C_3   0.903353 0.515930 0.924119 0.338021
C50   C     C_3   0.403353 0.984070 0.075881 0.338021
C51   C     C_3   0.403353 0.015930 0.924119 0.338022
C52   C     C_R   0.883249 0.375380 0.500750 0.896561
H1    H     H_    0.778884 0.314786 0.717780 0.218896
H2    H     H_    0.913173 0.197572 0.462177 0.179693
H3    H     H_    0.875071 0.753626 0.309202 0.190028
H4    H     H_    0.913173 0.802428 0.537823 0.179693
H5    H     H_    0.375071 0.746374 0.690797 0.190028
H6    H     H_    0.413173 0.697572 0.462177 0.179693
H7    H     H_    0.375071 0.253626 0.309202 0.190028
H8    H     H_    0.413173 0.302428 0.537823 0.179693
H9    H     H_    0.182050 0.708041 0.719438 0.138829
H10   H     H_    0.243929 0.670712 0.291845 0.125908
H11   H     H_    0.182050 0.291959 0.280562 0.138829
H12   H     H_    0.876188 0.250375 0.313660 0.204070
H13   H     H_    0.243929 0.329288 0.708155 0.125908
H14   H     H_    0.682049 0.208041 0.719438 0.138829
H15   H     H_    0.743929 0.170712 0.291845 0.125908
H16   H     H_    0.682049 0.791959 0.280562 0.138829
H17   H     H_    0.743929 0.829288 0.708155 0.125908
H18   H     H_    0.701944 0.395028 0.512845 0.197973
H19   H     H_    0.729779 0.359216 0.345070 0.241367
H20   H     H_    0.701944 0.604972 0.487155 0.197972
H21   H     H_    0.729779 0.640784 0.654930 0.241367
H22   H     H_    0.201944 0.895028 0.512845 0.197973
H23   H     H_    0.778884 0.685214 0.282220 0.218896
H24   H     H_    0.229779 0.859216 0.345070 0.241367
H25   H     H_    0.201944 0.104972 0.487155 0.197973
H26   H     H_    0.229779 0.140784 0.654930 0.241367
H27   H     H_    0.097855 0.786730 0.540210 0.190166
H28   H     H_    0.113271 0.763452 0.363841 0.209344
H29   H     H_    0.097855 0.213270 0.459790 0.190166
H30   H     H_    0.113271 0.236548 0.636159 0.209344
H31   H     H_    0.597855 0.286730 0.540210 0.190166
H32   H     H_    0.613271 0.263452 0.363841 0.209344
H33   H     H_    0.597855 0.713270 0.459790 0.190166
H34   H     H_    0.876188 0.749625 0.686340 0.204070
H35   H     H_    0.613271 0.736548 0.636159 0.209344
H36   H     H_    0.043908 0.367429 0.133247 0.189626
H37   H     H_    0.002093 0.363823 0.892781 0.192958
H38   H     H_    0.043908 0.632571 0.866753 0.189626
H39   H     H_    0.002093 0.636177 0.107219 0.192958
H40   H     H_    0.543908 0.867429 0.133247 0.189626
H41   H     H_    0.502093 0.863823 0.892781 0.192958
H42   H     H_    0.543908 0.132571 0.866753 0.189626
H43   H     H_    0.502093 0.136177 0.107219 0.192958
H44   H     H_    0.131473 0.441254 0.102669 0.198461
H45   H     H_    0.278884 0.814786 0.717780 0.218896
H46   H     H_    0.111410 0.410740 0.873083 0.184781
H47   H     H_    0.131473 0.558746 0.897331 0.198461
H48   H     H_    0.111410 0.589260 0.126916 0.184781
H49   H     H_    0.631473 0.941254 0.102669 0.198461
H50   H     H_    0.611410 0.910740 0.873083 0.184781
H51   H     H_    0.631473 0.058746 0.897331 0.198461
H52   H     H_    0.611410 0.089260 0.126916 0.184781
H53   H     H_    0.339457 0.607253 0.650579 0.383366
H54   H     H_    0.344657 0.566794 0.328336 0.350201
H55   H     H_    0.339457 0.392747 0.349421 0.383366
H56   H     H_    0.376188 0.750375 0.313660 0.204070
H57   H     H_    0.344657 0.433206 0.671663 0.350201
H58   H     H_    0.839457 0.107253 0.650579 0.383366
H59   H     H_    0.844657 0.066794 0.328336 0.350201
H60   H     H_    0.839457 0.892747 0.349421 0.383366
H61   H     H_    0.844657 0.933206 0.671663 0.350201
H62   H     H_    0.278884 0.185214 0.282220 0.218896
H63   H     H_    0.376188 0.249624 0.686340 0.204070
H64   H     H_    0.875071 0.246374 0.690797 0.190028
I1    I     I_    0.858658 0.348379 0.081359 -0.435986
I2    I     I_    0.781469 0.477224 0.814727 -0.338711
I3    I     I_    0.858658 0.651621 0.918641 -0.435986
I4    I     I_    0.781469 0.522776 0.185273 -0.338711
I5    I     I_    0.358658 0.848379 0.081359 -0.435986
I6    I     I_    0.281469 0.977224 0.814727 -0.338712
I7    I     I_    0.358658 0.151621 0.918641 -0.435986
I8    I     I_    0.281469 0.022776 0.185273 -0.338711
N1    N     N_3   0.998760 0.500000 0.138610 -0.085031
N2    N     N_3   0.998760 0.500000 0.861390 -0.085031
N3    N     N_3   0.498760 0.000000 0.138610 -0.085031
N4    N     N_3   0.498760 0.000000 0.861390 -0.085031
O1    O     O_R   0.092530 0.407440 0.616040 -0.639713
O2    O     O_R   0.907330 0.407420 0.383960 -0.591319
O3    O     O_R   0.907330 0.592580 0.383960 -0.602693
O4    O     O_R   0.907330 0.592580 0.616040 -0.591319
O5    O     O_R   0.407330 0.907420 0.616040 -0.602693
O6    O     O_R   0.407330 0.907420 0.383960 -0.591319
O7    O     O_R   0.407330 0.092580 0.383960 -0.602693
O8    O     O_R   0.407330 0.092580 0.616040 -0.591319
O9    O     O_3   0.278374 0.614552 0.694303 -0.724294
O10   O     O_3   0.306712 0.578667 0.409906 -0.710736
O11   O     O_3   0.278374 0.385448 0.305697 -0.724294
O12   O     O_R   0.092530 0.407440 0.383960 -0.618023
O13   O     O_3   0.306712 0.421333 0.590094 -0.710736
O14   O     O_3   0.778374 0.114552 0.694303 -0.724294
O15   O     O_3   0.806712 0.078667 0.409906 -0.710735
O16   O     O_3   0.778374 0.885448 0.305697 -0.724294
O17   O     O_3   0.806712 0.921333 0.590093 -0.710736
O18   O     O_R   0.092530 0.592560 0.383960 -0.639713
O19   O     O_R   0.092530 0.592560 0.616040 -0.618023
O20   O     O_R   0.592530 0.907440 0.616040 -0.639713
O21   O     O_R   0.592530 0.907440 0.383960 -0.618023
O22   O     O_R   0.592530 0.092560 0.383960 -0.639713
O23   O     O_R   0.592530 0.092560 0.616040 -0.618023
O24   O     O_R   0.907330 0.407420 0.616040 -0.602693
Zn1   Zn    Zn3+2 0.999890 0.500000 0.654960 0.973409
Zn2   Zn    Zn3+2 0.999890 0.500000 0.345040 0.973409
Zn3   Zn    Zn3+2 0.499890 0.000000 0.654960 0.973409
Zn4   Zn    Zn3+2 0.499890 0.000000 0.345040 0.973409

loop_
_geom_bond_atom_site_label_1
_geom_bond_atom_site_label_2
_ccdc_geom_bond_type
C41   H37   S    
C44   N3    S    
C48   H43   S    
C38   H31   S    
C51   I7    S    
C20   O16   S    
C10   H56   S    
C39   H35   S    
C14   C31   S    
C43   N1    S    
C34   O22   A    
C47   N4    S    
C13   H8    S    
C27   C52   S    
C6    C19   S    
C46   H50   S    
C26   H26   S    
C51   N4    S    
C12   O19   A    
C5    H1    S    
C10   H6    S    
O21   Zn4   S    
C6    H2    S    
C1    O1    A    
C10   C15   S    
C24   H21   S    
H54   O10   S    
C12   O18   A    
C22   C38   S    
C24   C39   S    
C17   O13   S    
C25   H22   S    
C6    H12   S    
C3    C29   S    
C11   H62   S    
N4    Zn3   S    
C34   O23   A    
C5    C27   S    
C20   C35   S    
C47   H42   S    
O6    Zn4   S    
C47   C48   S    
C11   C30   S    
C45   N1    S    
C2    O4    A    
C19   H15   S    
C16   H11   S    
O23   Zn3   S    
C8    H34   S    
C44   H40   S    
C9    C29   S    
C4    O8    A    
C15   O10   S    
C7    C28   S    
C23   O21   A    
O22   Zn4   S    
C8    H4    S    
C37   H29   S    
C50   I5    S    
C40   H44   S    
C11   H7    S    
C18   C33   S    
C44   C46   S    
C50   C51   S    
C25   C29   S    
C26   H25   S    
C47   H51   S    
C13   C30   S    
C18   O14   S    
C50   I8    S    
C43   H48   S    
C19   C33   S    
O8    Zn3   S    
C7    H23   S    
C5    C18   S    
C14   H9    S    
C41   H46   S    
C1    C32   S    
C43   H39   S    
O7    Zn4   S    
C21   H17   S    
C3    O5    A    
C21   O17   S    
C35   C39   S    
C9    C14   S    
N2    Zn1   S    
C49   N2    S    
H58   O14   S    
C11   C16   S    
C6    C27   S    
O18   Zn2   S    
C14   O9    S    
C45   C49   S    
C52   O24   A    
C2    O3    A    
O2    Zn2   S    
C32   C37   S    
C13   H63   S    
C1    O12   A    
C4    O7    A    
C7    H3    S    
C45   I4    S    
C40   C41   S    
O20   Zn3   S    
O4    Zn1   S    
C26   C30   S    
H61   O17   S    
C22   C27   S    
C12   C31   S    
C36   H28   S    
C8    C28   S    
C37   H30   S    
C16   O11   S    
C18   H14   S    
C42   C43   S    
C39   H33   S    
C22   H19   S    
N1    Zn2   S    
C24   H20   S    
C45   I1    S    
C17   C32   S    
C9    H45   S    
C38   H32   S    
O5    Zn3   S    
C41   N2    S    
C20   H16   S    
O3    Zn2   S    
C24   C28   S    
C36   H27   S    
C8    C21   S    
N3    Zn4   S    
C2    C28   S    
C44   H49   S    
C26   C37   S    
C15   C31   S    
C21   C35   S    
H59   O15   S    
C16   C32   S    
C23   O20   A    
C17   H13   S    
C33   C38   S    
C13   C17   S    
C3    O6    A    
C52   O2    A    
H60   O16   S    
C5    H64   S    
C42   H47   S    
C48   N3    S    
O1    Zn1   S    
C10   C29   S    
C40   H36   S    
C49   I3    S    
C46   H41   S    
C40   N1    S    
C15   H10   S    
C33   C34   S    
C9    H5    S    
H55   O11   S    
O19   Zn1   S    
C23   C35   S    
C19   O15   S    
C42   N2    S    
C25   C36   S    
H53   O9    S    
C49   I2    S    
O24   Zn1   S    
C25   H24   S    
C7    C20   S    
C46   N4    S    
C51   I6    S    
C31   C36   S    
H57   O13   S    
C50   N3    S    
C42   H38   S    
C22   H18   S    
C4    C30   S    
O12   Zn2   S    
C48   H52   S    
