data_mof_unit_914.cif
_audit_creation_date              2012-12-10T17:58:21-0500
_audit_creation_method            fapswitch 2.2
_symmetry_space_group_name_H-M    P1
_symmetry_Int_Tables_number       1
_space_group_crystal_system       triclinic
_cell_length_a                    9.612998
_cell_length_b                    10.769407
_cell_length_c                    15.577612
_cell_angle_alpha                 88.711339
_cell_angle_beta                  73.771792
_cell_angle_gamma                 91.279919
_cell_volume                      1547.35663828

loop_
_atom_site_label
_atom_site_type_symbol
_atom_type_description
_atom_site_fract_x
_atom_site_fract_y
_atom_site_fract_z
_atom_type_partial_charge
C1    C     C_R   0.000078 0.262829 0.497425 0.791601
C2    C     C_R   0.999568 0.737253 0.503123 0.805831
C3    C     C_R   0.574273 0.580761 0.085675 -0.269883
C4    C     C_R   0.416103 0.473926 0.906577 -0.268060
C5    C     C_R   0.719517 0.598752 0.039806 0.552549
C6    C     C_R   0.270636 0.457420 0.952295 0.547938
C7    C     C_R   0.892481 0.063878 0.561204 -0.251508
C8    C     C_R   0.106753 0.936616 0.438924 -0.249105
C9    C     C_R   0.891528 0.934807 0.567629 0.168097
C10   C     C_R   0.108260 0.065766 0.433055 0.161264
C11   C     C_R   0.999926 0.871344 0.504926 -0.069296
C12   C     C_R   0.999420 0.128987 0.495314 -0.079457
C13   C     C_R   0.547733 0.408805 0.546954 0.249936
C14   C     C_R   0.452078 0.591632 0.453417 0.249026
C15   C     C_R   0.400772 0.409522 0.544522 -0.050128
C16   C     C_R   0.599387 0.590309 0.455279 -0.049191
C17   C     C_R   0.917913 0.500581 0.671729 0.790645
C18   C     C_R   0.082103 0.499422 0.328204 0.781743
C19   C     C_R   0.872347 0.512938 0.768983 -0.073536
C20   C     C_R   0.127444 0.495819 0.230245 -0.073065
C21   C     C_R   0.917245 0.586230 0.904466 -0.086645
C22   C     C_R   0.075837 0.455405 0.090107 -0.092549
C23   C     C_R   0.968111 0.559327 0.814332 -0.135600
C24   C     C_R   0.028077 0.467316 0.182387 -0.153907
C25   C     C_R   0.726872 0.489992 0.814972 -0.211884
C26   C     C_R   0.273639 0.516930 0.184688 -0.219019
C27   C     C_R   0.671084 0.521505 0.904929 0.043444
C28   C     C_R   0.324164 0.509737 0.091154 0.050123
C29   C     C_R   0.769661 0.568454 0.950111 0.007269
C30   C     C_R   0.223174 0.474429 0.044205 0.021094
C31   C     C_R   0.520625 0.508059 0.950850 -0.015731
C32   C     C_R   0.472753 0.532295 0.043695 -0.018496
Cu1   Cu    Cu3+1 0.140660 0.500020 0.500000 0.927951
Cu2   Cu    Cu3+1 0.859340 0.499980 0.500000 0.925373
H1    H     H_    0.346763 0.534817 0.224381 0.156280
H2    H     H_    0.659721 0.447608 0.778293 0.153045
H3    H     H_    0.914272 0.450623 0.216456 0.170236
H4    H     H_    0.081187 0.578447 0.779575 0.176861
H5    H     H_    0.993258 0.623400 0.937868 0.200854
H6    H     H_    0.997362 0.429786 0.054944 0.197339
H7    H     H_    0.544232 0.610025 0.153706 0.164086
H8    H     H_    0.442095 0.462106 0.835604 0.161939
H9    H     H_    0.813050 0.114556 0.610219 0.139550
H10   H     H_    0.187001 0.886462 0.390038 0.145374
H11   H     H_    0.323725 0.337712 0.578395 0.165513
H12   H     H_    0.676771 0.661836 0.421371 0.168187
N1    N     N_R   0.352080 0.500030 0.499980 -0.204563
N2    N     N_R   0.647920 0.499970 0.500020 -0.207526
O1    O     O_R   0.118740 0.319660 0.500000 -0.574829
O2    O     O_R   0.881260 0.680340 0.500000 -0.588672
O3    O     O_R   0.881170 0.319630 0.500010 -0.604752
O4    O     O_R   0.118830 0.680370 0.499990 -0.604450
O5    O     O_R   0.055570 0.500030 0.629830 -0.572008
O6    O     O_R   0.944430 0.499970 0.370170 -0.570837
O7    O     O_R   0.818000 0.500000 0.629840 -0.597445
O8    O     O_R   0.182000 0.500000 0.370160 -0.601833
F1    F     F_    0.811239 0.646752 0.083772 -0.690793
F2    F     F_    0.176563 0.421369 0.906202 -0.697707
C33   C     C_3   0.780437 0.869709 0.645233 -0.419096
C34   C     C_3   0.849319 0.830213 0.718288 -0.797763
H13   H     H_    0.767219 0.779917 0.773315 0.250559
H14   H     H_    0.940980 0.768255 0.691326 0.238125
H15   H     H_    0.890186 0.913242 0.745844 0.255993
H16   H     H_    0.690782 0.932756 0.675194 0.200492
H17   H     H_    0.728444 0.788402 0.623039 0.228193
C35   C     C_3   0.223157 0.131401 0.357821 -0.391370
C36   C     C_3   0.369956 0.134133 0.377712 -0.783576
H18   H     H_    0.451198 0.185282 0.322719 0.240043
H19   H     H_    0.362454 0.181759 0.441246 0.257912
H20   H     H_    0.407376 0.038177 0.383109 0.244561
H21   H     H_    0.232998 0.082209 0.294498 0.197438
H22   H     H_    0.193533 0.227760 0.345359 0.204729
C37   C     C_3   0.590959 0.300707 0.597799 -0.396931
C38   C     C_3   0.472648 0.250093 0.679887 -0.924856
H23   H     H_    0.415878 0.327296 0.719942 0.279971
H24   H     H_    0.393305 0.189360 0.659513 0.257863
H25   H     H_    0.522396 0.192496 0.722851 0.254120
H26   H     H_    0.625880 0.223563 0.551179 0.209601
H27   H     H_    0.680473 0.328188 0.624450 0.260188
C39   C     C_3   0.407544 0.700799 0.404104 -0.394265
C40   C     C_3   0.527394 0.760574 0.326613 -0.933730
H28   H     H_    0.600318 0.821781 0.352259 0.257842
H29   H     H_    0.591181 0.688306 0.284471 0.281193
H30   H     H_    0.478130 0.819528 0.284139 0.258578
H31   H     H_    0.323072 0.671505 0.373434 0.257776
H32   H     H_    0.365207 0.773948 0.452916 0.215731

loop_
_geom_bond_atom_site_label_1
_geom_bond_atom_site_label_2
_ccdc_geom_bond_type
C27   C29   A    
C37   C38   S    
C6    F2    S    
C15   N1    A    
C16   N2    A    
C40   H28   S    
Cu1   O4    S    
Cu2   O3    S    
C4    H8    S    
C34   H15   S    
C22   C24   A    
Cu1   O1    S    
C34   H14   S    
C39   H32   S    
C2    O2    A    
C35   H22   S    
C31   C32   A    
C38   H25   S    
C37   H26   S    
C14   C39   S    
C17   O7    A    
C18   O8    A    
Cu1   O8    S    
C35   C36   S    
Cu2   O7    S    
C1    C12   S    
C2    C11   S    
C10   C12   A    
C40   H29   S    
C24   H3    S    
C5    C29   A    
C10   C35   S    
C21   C23   A    
Cu1   O5    S    
C7    C12   A    
Cu2   O2    S    
C38   H23   S    
C27   C31   A    
C36   H18   S    
C20   C24   A    
C28   C32   A    
C4    C6    A    
C16   H12   S    
C21   C29   A    
C34   H13   S    
C36   H19   S    
C19   C23   A    
C39   H31   S    
C9    C11   A    
C35   H21   S    
C21   H5    S    
C22   H6    S    
Cu1   Cu2   S    
C37   H27   S    
C1    O3    A    
C2    O4    A    
C6    C30   A    
C13   C37   S    
Cu2   O6    S    
C7    H9    S    
C13   C15   A    
Cu1   N1    S    
C14   C16   A    
Cu2   N2    S    
C38   H24   S    
C17   O5    A    
C40   H30   S    
C7    C9    A    
C3    H7    S    
C22   C30   A    
C8    H10   S    
C39   C40   S    
C3    C5    A    
C13   N2    A    
C14   N1    A    
C25   C27   A    
C23   H4    S    
C26   C28   A    
C5    F1    S    
C36   H20   S    
C28   C30   A    
C33   H17   S    
C20   C26   A    
C8    C11   A    
C17   C19   S    
C18   C20   S    
C3    C32   A    
C19   C25   A    
C4    C31   A    
C18   O6    A    
C25   H2    S    
C33   H16   S    
C26   H1    S    
C33   C34   S    
C8    C10   A    
C15   H11   S    
C9    C33   S    
C1    O1    A    
