data_mof_unit_3481.cif
_audit_creation_date              2012-12-10T17:10:25-0500
_audit_creation_method            fapswitch 2.2
_symmetry_space_group_name_H-M    P1
_symmetry_Int_Tables_number       1
_space_group_crystal_system       triclinic
_cell_length_a                    10.954159
_cell_length_b                    12.98964
_cell_length_c                    11.735938
_cell_angle_alpha                 99.737614
_cell_angle_beta                  93.849503
_cell_angle_gamma                 91.866201
_cell_volume                      1640.50237977

loop_
_atom_site_label
_atom_site_type_symbol
_atom_type_description
_atom_site_fract_x
_atom_site_fract_y
_atom_site_fract_z
_atom_type_partial_charge
C1    C     C_R   0.496139 0.299237 0.478653 0.884946
C2    C     C_R   0.501624 0.700774 0.521367 0.827504
C3    C     C_R   0.502576 0.814245 0.533804 -0.144751
C4    C     C_R   0.490857 0.185791 0.466348 -0.160662
C5    C     C_R   0.458861 0.014656 0.345880 0.492883
C6    C     C_R   0.532292 0.985534 0.654307 0.506206
C7    C     C_R   0.460950 0.123398 0.357869 -0.262872
C8    C     C_R   0.529786 0.876886 0.642603 -0.264320
C9    C     C_R   0.516232 0.139721 0.563959 -0.239289
C10   C     C_R   0.477573 0.860113 0.435839 -0.214501
C11   C     C_R   0.510401 0.031573 0.554991 -0.007406
C12   C     C_R   0.481527 0.968395 0.445002 -0.006890
C13   C     C_R   0.403945 0.385747 0.021541 -0.369396
C14   C     C_R   0.587884 0.617178 0.979124 -0.374855
C15   C     C_R   0.408548 0.399260 0.143918 0.535486
C16   C     C_R   0.583319 0.604839 0.857150 0.515173
C17   C     C_R   0.535131 0.553754 0.156338 0.482628
C18   C     C_R   0.472076 0.442304 0.842320 0.602484
C19   C     C_R   0.529337 0.543387 0.033998 -0.055561
C20   C     C_R   0.468276 0.455999 0.965444 -0.147884
C21   C     C_R   0.261718 0.492096 0.498486 0.819797
C22   C     C_R   0.737522 0.498045 0.499771 0.825347
C23   C     C_R   0.122954 0.467775 0.706970 0.462771
C24   C     C_R   0.854852 0.371407 0.304217 0.419447
C25   C     C_R   0.082809 0.517356 0.812703 0.478789
C26   C     C_R   0.899846 0.353744 0.193669 0.461743
C27   C     C_R   0.978474 0.577844 0.810055 -0.345691
C28   C     C_R   0.015794 0.393672 0.179182 -0.312073
C29   C     C_R   0.910914 0.578414 0.704985 -0.206980
C30   C     C_R   0.090652 0.442680 0.274846 -0.219919
C31   C     C_R   0.948468 0.521480 0.600771 0.004670
C32   C     C_R   0.049444 0.455803 0.388597 0.027791
C33   C     C_R   0.068607 0.489491 0.600864 -0.130366
C34   C     C_R   0.922834 0.438615 0.397129 -0.107910
C35   C     C_R   0.870633 0.488078 0.498844 -0.127467
C36   C     C_R   0.126292 0.478387 0.494863 -0.132174
Cu1   Cu    Cu3+1 0.509250 0.507730 0.615930 1.040967
Cu2   Cu    Cu3+1 0.490750 0.492270 0.384070 1.002126
H1    H     H_    0.050775 0.381683 0.093981 0.215682
H2    H     H_    0.943667 0.618129 0.888771 0.169423
H3    H     H_    0.348057 0.321348 0.971664 0.174245
H4    H     H_    0.636975 0.684943 0.030464 0.193781
H5    H     H_    0.830432 0.623788 0.706481 0.228681
H6    H     H_    0.177937 0.470120 0.253672 0.227372
H7    H     H_    0.455829 0.811190 0.352076 0.230297
H8    H     H_    0.540798 0.188354 0.647231 0.220383
H9    H     H_    0.550505 0.842035 0.718739 0.200303
H10   H     H_    0.439753 0.158610 0.282019 0.203553
N1    N     N_R   0.523180 0.519350 0.790130 -0.207172
N2    N     N_R   0.476820 0.480650 0.209870 -0.240308
O1    O     O_R   0.506570 0.354460 0.582000 -0.544347
O2    O     O_R   0.493430 0.645540 0.418000 -0.589423
O3    O     O_R   0.490940 0.341410 0.386200 -0.512479
O4    O     O_R   0.509060 0.658590 0.613800 -0.539293
O5    O     O_R   0.327470 0.506520 0.597900 -0.532983
O6    O     O_R   0.672530 0.493480 0.402100 -0.591534
O7    O     O_R   0.311840 0.493460 0.402100 -0.583890
O8    O     O_R   0.688160 0.506540 0.597900 -0.575481
O9    O     O_3   0.207753 0.391698 0.709239 -0.503665
C37   C     C_3   0.150906 0.292768 0.664037 -0.248914
H11   H     H_    0.067073 0.278252 0.708760 0.145152
H12   H     H_    0.215765 0.231661 0.678660 0.193632
H13   H     H_    0.128813 0.283923 0.568949 0.139786
O10   O     O_3   0.752743 0.312640 0.322602 -0.554396
C38   C     C_3   0.792172 0.230743 0.379453 -0.303060
H14   H     H_    0.817227 0.260472 0.472882 0.150021
H15   H     H_    0.870074 0.189606 0.338390 0.161883
H16   H     H_    0.716063 0.171496 0.373099 0.188276
O11   O     O_3   0.141105 0.496014 0.914632 -0.560257
C39   C     C_3   0.153999 0.585392 0.002257 -0.320629
H17   H     H_    0.068180 0.596987 0.047195 0.163494
H18   H     H_    0.182548 0.656910 0.968384 0.164611
H19   H     H_    0.226847 0.572257 0.067938 0.194776
O12   O     O_3   0.836788 0.288531 0.101843 -0.555721
C40   C     C_3   0.740948 0.343592 0.057628 -0.259807
H20   H     H_    0.775834 0.416860 0.031068 0.143311
H21   H     H_    0.695175 0.293636 0.979390 0.189545
H22   H     H_    0.670963 0.361113 0.121501 0.183467
O13   O     O_3   0.426506 0.953808 0.238812 -0.586266
C41   C     C_3   0.528348 0.950660 0.171083 -0.316726
H23   H     H_    0.609151 0.919382 0.214498 0.173291
H24   H     H_    0.552075 0.029064 0.150429 0.170322
H25   H     H_    0.504491 0.897150 0.087783 0.195203
O14   O     O_3   0.565251 0.046450 0.761225 -0.583475
C42   C     C_3   0.462901 0.052094 0.828390 -0.363165
H26   H     H_    0.437166 0.974399 0.849798 0.172629
H27   H     H_    0.383289 0.084254 0.784122 0.159170
H28   H     H_    0.487294 0.106018 0.911313 0.192769
O15   O     O_3   0.428130 0.350575 0.773861 -0.665974
H29   H     H_    0.445325 0.291973 0.815717 0.285956
O16   O     O_3   0.600737 0.639026 0.219363 -0.751467
H30   H     H_    0.646760 0.615502 0.284182 0.355198
O17   O     O_3   0.641639 0.677341 0.804116 -0.733871
H31   H     H_    0.681249 0.733870 0.863874 0.292272
O18   O     O_3   0.344330 0.331250 0.198627 -0.714604
H32   H     H_    0.299262 0.277223 0.139604 0.300634

loop_
_geom_bond_atom_site_label_1
_geom_bond_atom_site_label_2
_ccdc_geom_bond_type
O17   H31   S    
C27   C29   A    
C19   C20   A    
C17   O16   S    
C13   H3    S    
C21   C36   S    
C42   H26   S    
C23   O9    S    
C22   C35   S    
C16   O17   S    
C37   H13   S    
C32   C36   A    
C24   C26   A    
C4    C7    A    
C15   O18   S    
Cu1   O1    S    
Cu2   O2    S    
C33   C36   A    
C37   H12   S    
C34   C35   A    
C15   N2    A    
C40   H21   S    
C1    O3    A    
C17   C19   A    
O18   H32   S    
C38   H15   S    
C31   C33   A    
C39   H17   S    
C5    O13   S    
Cu1   O8    S    
C14   H4    S    
C9    H8    S    
C24   O10   S    
C29   H5    S    
C30   H6    S    
C39   H19   S    
C41   H25   S    
C10   C12   A    
C42   H27   S    
C6    O14   S    
O12   C40   S    
C16   N1    A    
C5    C12   A    
C41   H24   S    
C3    C8    A    
C2    O4    A    
O16   H30   S    
C21   O5    A    
C6    C8    A    
C28   H1    S    
C23   C33   A    
C24   C34   A    
C37   H11   S    
C32   C34   A    
C40   H20   S    
C21   O7    A    
Cu1   Cu2   S    
Cu2   O7    S    
Cu1   N1    S    
C27   H2    S    
C38   H16   S    
C10   H7    S    
O14   C42   S    
C9    C11   A    
C2    O2    A    
Cu1   O4    S    
C13   C15   A    
C14   C16   A    
C25   O11   S    
C6    C11   A    
C5    C7    A    
C42   H28   S    
C13   C20   A    
C18   O15   S    
C14   C19   A    
C41   H23   S    
C17   N2    A    
C22   O8    A    
C22   O6    A    
C11   C12   A    
Cu2   N2    S    
C25   C27   A    
C26   C28   A    
C1    O1    A    
C1    C4    S    
O10   C38   S    
C28   C30   A    
C2    C3    S    
C4    C9    A    
C8    H9    S    
C29   C31   A    
C3    C10   A    
C7    H10   S    
C30   C32   A    
Cu2   O3    S    
C31   C35   A    
C26   O12   S    
C18   C20   A    
C23   C25   A    
O11   C39   S    
C40   H22   S    
O13   C41   S    
Cu1   O5    S    
O9    C37   S    
Cu2   O6    S    
C38   H14   S    
C39   H18   S    
O15   H29   S    
C18   N1    A    
