data_mof_unit_149.cif
_audit_creation_date              2012-12-10T19:14:56-0500
_audit_creation_method            fapswitch 2.2
_symmetry_space_group_name_H-M    P1
_symmetry_Int_Tables_number       1
_space_group_crystal_system       triclinic
_cell_length_a                    16.014809
_cell_length_b                    14.733943
_cell_length_c                    10.816889
_cell_angle_alpha                 88.909337
_cell_angle_beta                  89.920819
_cell_angle_gamma                 89.727757
_cell_volume                      2551.87365046

loop_
_atom_site_label
_atom_site_type_symbol
_atom_type_description
_atom_site_fract_x
_atom_site_fract_y
_atom_site_fract_z
_atom_type_partial_charge
C1    C     C_1   0.252290 0.500490 0.500351 -0.198687
C2    C     C_1   0.747815 0.499517 0.499406 -0.201667
C3    C     C_R   0.460173 0.497077 0.868469 -0.165489
C4    C     C_R   0.486764 0.502990 0.123889 -0.154640
C5    C     C_R   0.497243 0.902943 0.508198 -0.083900
C6    C     C_R   0.498718 0.097034 0.503496 -0.076796
C7    C     C_R   0.570733 0.950388 0.542300 0.106413
C8    C     C_R   0.424819 0.049830 0.471706 0.120522
C9    C     C_R   0.423441 0.952450 0.476007 0.104690
C10   C     C_R   0.572135 0.047786 0.536794 0.107539
C11   C     C_R   0.955432 0.583288 0.508235 0.137865
C12   C     C_R   0.044805 0.416873 0.492297 0.138675
C13   C     C_R   0.043704 0.583481 0.509083 0.139117
C14   C     C_R   0.956544 0.416686 0.491317 0.139081
C15   C     C_R   0.340982 0.500147 0.499945 0.803714
C16   C     C_R   0.659042 0.499821 0.499718 0.847003
C17   C     C_R   0.497496 0.501052 0.260204 0.826944
C18   C     C_R   0.485274 0.499240 0.736201 0.833634
C19   C     C_R   0.912508 0.499881 0.499434 0.046081
C20   C     C_R   0.087698 0.500285 0.500886 0.045382
C21   C     C_1   0.498652 0.802528 0.503791 0.123717
C22   C     C_1   0.499320 0.197429 0.501616 0.133554
C23   C     C_1   0.822691 0.499615 0.499295 -0.011366
C24   C     C_1   0.177459 0.500516 0.500692 -0.010603
C25   C     C_R   0.415368 0.656853 0.121298 0.142708
C26   C     C_R   0.451496 0.329025 0.894801 0.145466
C27   C     C_R   0.403389 0.655047 0.869086 0.132580
C28   C     C_R   0.559609 0.351380 0.096461 0.146100
C29   C     C_R   0.414233 0.741112 0.056563 0.146391
C30   C     C_R   0.490704 0.251035 0.948502 0.130727
C31   C     C_R   0.407128 0.740438 0.926233 0.130303
C32   C     C_R   0.549526 0.263028 0.046296 0.118076
C33   C     C_R   0.438880 0.577685 0.930842 0.005508
C34   C     C_R   0.506556 0.423622 0.055376 -0.008057
C35   C     C_R   0.447345 0.578982 0.061032 -0.014505
C36   C     C_R   0.471736 0.416205 0.938244 -0.014064
Cu1   Cu    Cu3+1 0.500000 0.589220 0.500000 0.938978
Cu2   Cu    Cu3+1 0.500000 0.410780 0.500000 0.946330
N1    N     N_1   0.500000 0.276710 0.500000 -0.171804
N2    N     N_1   0.500000 0.723290 0.500000 -0.180212
O1    O     O_R   0.380310 0.575320 0.500020 -0.597164
O2    O     O_R   0.619690 0.424680 0.499980 -0.572150
O3    O     O_R   0.619690 0.575320 0.499980 -0.562996
O4    O     O_R   0.380310 0.424680 0.500020 -0.575956
O5    O     O_R   0.499990 0.575350 0.319650 -0.570940
O6    O     O_R   0.500010 0.424650 0.680350 -0.570419
O7    O     O_R   0.500010 0.575350 0.680350 -0.561629
O8    O     O_R   0.499990 0.424650 0.319650 -0.561171
C37   C     C_3   0.089704 0.673274 0.518855 -0.853016
H1    H     H_    0.158607 0.666799 0.519412 0.234357
H2    H     H_    0.073357 0.718345 0.439072 0.231371
H3    H     H_    0.072042 0.706975 0.606028 0.230173
C38   C     C_3   0.910617 0.326879 0.481484 -0.851251
H4    H     H_    0.841730 0.333356 0.480747 0.234167
H5    H     H_    0.928400 0.293159 0.394378 0.230482
H6    H     H_    0.926888 0.281840 0.561335 0.230663
C39   C     C_3   0.908308 0.672929 0.516776 -0.848068
H7    H     H_    0.839509 0.666247 0.515001 0.235408
H8    H     H_    0.924200 0.706561 0.604547 0.230762
H9    H     H_    0.925427 0.718147 0.437621 0.230977
C40   C     C_3   0.091971 0.327216 0.484125 -0.851109
H10   H     H_    0.160768 0.333892 0.486170 0.236629
H11   H     H_    0.074747 0.282096 0.563332 0.229938
H12   H     H_    0.076237 0.293467 0.396380 0.231169
C41   C     C_3   0.599760 0.182591 0.099298 -0.390528
C42   C     C_3   0.546130 0.119970 0.180655 -0.833631
H13   H     H_    0.508713 0.160596 0.246026 0.257899
H14   H     H_    0.503767 0.078148 0.125046 0.260986
H15   H     H_    0.586806 0.072561 0.234411 0.242650
H16   H     H_    0.630568 0.144232 0.024611 0.178451
H17   H     H_    0.652455 0.204070 0.157560 0.208369
C43   C     C_3   0.396372 0.827637 0.849559 -0.401578
C44   C     C_3   0.478555 0.878995 0.835245 -0.846179
H18   H     H_    0.526707 0.834258 0.794206 0.255178
H19   H     H_    0.469032 0.939009 0.773143 0.246404
H20   H     H_    0.501682 0.903614 0.924770 0.253072
H21   H     H_    0.375107 0.813810 0.754751 0.219189
H22   H     H_    0.347023 0.871546 0.889089 0.179281
C45   C     C_3   0.474222 0.157721 0.893710 -0.356289
C46   C     C_3   0.392437 0.115616 0.940542 -0.856079
H23   H     H_    0.375491 0.140769 0.033506 0.256600
H24   H     H_    0.340653 0.130313 0.875199 0.243372
H25   H     H_    0.399066 0.040704 0.947105 0.237215
H26   H     H_    0.473348 0.162429 0.791186 0.193553
H27   H     H_    0.525375 0.108966 0.912766 0.193559
C47   C     C_3   0.414281 0.828239 0.129598 -0.411243
C48   C     C_3   0.499733 0.842821 0.188104 -0.829848
H28   H     H_    0.515426 0.785624 0.252094 0.269157
H29   H     H_    0.548960 0.847277 0.115993 0.247461
H30   H     H_    0.499399 0.907062 0.239952 0.241080
H31   H     H_    0.398778 0.889371 0.073497 0.203573
H32   H     H_    0.365816 0.825217 0.202429 0.189611
C49   C     C_3   0.651082 0.101405 0.566425 -0.377540
C50   C     C_3   0.691213 0.143091 0.450103 -0.827776
H33   H     H_    0.751139 0.175612 0.474988 0.236988
H34   H     H_    0.704171 0.090207 0.381002 0.243971
H35   H     H_    0.650618 0.195795 0.406915 0.258232
H36   H     H_    0.635622 0.156128 0.632093 0.191160
H37   H     H_    0.699707 0.060602 0.613746 0.201438
C51   C     C_3   0.343219 0.900609 0.447280 -0.370728
C52   C     C_3   0.275813 0.912592 0.546284 -0.842676
H38   H     H_    0.303845 0.923537 0.638476 0.251126
H39   H     H_    0.234476 0.970850 0.522546 0.255552
H40   H     H_    0.236019 0.851074 0.551930 0.235282
H41   H     H_    0.318608 0.921024 0.355182 0.175841
H42   H     H_    0.354173 0.826719 0.439435 0.197865
C53   C     C_3   0.348938 0.105151 0.428327 -0.363234
C54   C     C_3   0.302972 0.149233 0.535928 -0.832478
H43   H     H_    0.298414 0.101983 0.616800 0.253941
H44   H     H_    0.335511 0.211481 0.564234 0.252746
H45   H     H_    0.238944 0.169096 0.506470 0.236910
H46   H     H_    0.368749 0.158751 0.360975 0.189865
H47   H     H_    0.303722 0.064709 0.376031 0.197921
C55   C     C_3   0.646512 0.895522 0.587205 -0.381783
C56   C     C_3   0.710538 0.882409 0.484384 -0.814457
H48   H     H_    0.680353 0.852501 0.402286 0.254189
H49   H     H_    0.739823 0.947686 0.457295 0.252041
H50   H     H_    0.760561 0.835512 0.517443 0.237888
H51   H     H_    0.675419 0.925730 0.669671 0.177959
H52   H     H_    0.628419 0.827193 0.622225 0.204845
C57   C     C_3   0.356070 0.646837 0.229502 -0.784264
H53   H     H_    0.344265 0.574554 0.253640 0.217741
H54   H     H_    0.380037 0.683429 0.310571 0.258775
H55   H     H_    0.294344 0.676525 0.204396 0.197001
C58   C     C_3   0.380231 0.319317 0.803771 -0.772138
H56   H     H_    0.351814 0.385422 0.776143 0.208711
H57   H     H_    0.402222 0.285761 0.719134 0.236476
H58   H     H_    0.328948 0.279952 0.847064 0.220794
C59   C     C_3   0.345170 0.644261 0.760439 -0.814666
H59   H     H_    0.371822 0.676651 0.676265 0.266254
H60   H     H_    0.330981 0.572028 0.743316 0.209030
H61   H     H_    0.284342 0.677434 0.780550 0.206995
C60   C     C_3   0.635850 0.372161 0.174051 -0.825523
H62   H     H_    0.643969 0.445893 0.188536 0.212940
H63   H     H_    0.632346 0.336633 0.265288 0.252401
H64   H     H_    0.693148 0.350160 0.124837 0.207565

loop_
_geom_bond_atom_site_label_1
_geom_bond_atom_site_label_2
_ccdc_geom_bond_type
C7    C10   A    
C42   H14   S    
C48   H28   S    
C49   C50   S    
C53   H46   S    
C17   O8    A    
C18   O7    A    
C55   C56   S    
C38   H4    S    
C27   C33   A    
C5    C9    A    
C11   C19   A    
C51   H41   S    
C52   H38   S    
C7    C55   S    
C17   O5    A    
C15   O4    A    
Cu2   O2    S    
Cu1   N2    S    
C47   H31   S    
C45   H26   S    
C39   H8    S    
C42   H15   S    
C3    C33   A    
C56   H48   S    
C6    C22   S    
C54   H43   S    
C3    C18   S    
C44   H18   S    
C40   H11   S    
C53   H47   S    
C57   H55   S    
C43   H22   S    
C43   H21   S    
C20   C24   S    
C8    C9    A    
C37   H2    S    
C60   H64   S    
C53   C54   S    
C1    C15   S    
Cu1   O7    S    
C2    C16   S    
C49   H37   S    
Cu2   O8    S    
C55   H51   S    
C59   H61   S    
C37   H3    S    
C42   H13   S    
C4    C35   A    
C28   C34   A    
C52   H39   S    
C44   H19   S    
C40   H10   S    
C46   H25   S    
C18   O6    A    
C38   H5    S    
C25   C29   A    
Cu2   N1    S    
C4    C34   A    
Cu2   O6    S    
C27   C31   A    
C28   C60   S    
C28   C32   A    
C15   O1    A    
C46   H24   S    
C5    C7    A    
C47   C48   S    
C46   H23   S    
C39   H9    S    
C6    C8    A    
C50   H35   S    
C56   H49   S    
C41   H17   S    
C26   C58   S    
Cu1   O3    S    
C40   H12   S    
C19   C23   S    
Cu2   O4    S    
Cu1   Cu2   S    
C58   H58   S    
C56   H50   S    
C12   C20   A    
C29   C47   S    
C50   H34   S    
C16   O3    A    
C57   H53   S    
C25   C35   A    
C13   C37   S    
C30   C45   S    
C26   C36   A    
C31   C43   S    
C12   C14   A    
C26   C30   A    
C9    C51   S    
C48   H29   S    
C58   H56   S    
C27   C59   S    
C44   H20   S    
C4    C17   S    
Cu1   O5    S    
C8    C53   S    
C16   O2    A    
C45   H27   S    
C58   H57   S    
C59   H59   S    
C38   H6    S    
C13   C20   A    
C14   C19   A    
C43   C44   S    
C6    C10   A    
C52   H40   S    
C51   H42   S    
C10   C49   S    
C54   H45   S    
C29   C31   A    
C47   H32   S    
C30   C32   A    
C12   C40   S    
C11   C13   A    
C39   H7    S    
C60   H62   S    
C21   N2    T    
C3    C36   A    
C22   N1    T    
C51   C52   S    
C33   C35   A    
C54   H44   S    
C34   C36   A    
C41   C42   S    
Cu1   O1    S    
C50   H33   S    
C57   H54   S    
C45   C46   S    
C14   C38   S    
C5    C21   S    
C1    C24   T    
C37   H1    S    
C48   H30   S    
C2    C23   T    
C60   H63   S    
C11   C39   S    
C25   C57   S    
C49   H36   S    
C55   H52   S    
C41   H16   S    
C32   C41   S    
C59   H60   S    
