data_mof_unit_4238.cif
_audit_creation_date              2012-12-10T19:22:19-0500
_audit_creation_method            fapswitch 2.2
_symmetry_space_group_name_H-M    P1
_symmetry_Int_Tables_number       1
_space_group_crystal_system       triclinic
_cell_length_a                    15.704216
_cell_length_b                    14.993042
_cell_length_c                    23.296225
_cell_angle_alpha                 89.772219
_cell_angle_beta                  89.477147
_cell_angle_gamma                 89.902599
_cell_volume                      5484.90934032

loop_
_atom_site_label
_atom_site_type_symbol
_atom_type_description
_atom_site_fract_x
_atom_site_fract_y
_atom_site_fract_z
_atom_type_partial_charge
C1    C     C_R   0.337847 0.500044 0.500378 0.915411
C2    C     C_R   0.612693 0.542508 0.120282 0.537032
C3    C     C_R   0.393557 0.707221 0.299058 -0.130835
C4    C     C_R   0.590763 0.440782 0.245866 0.510018
C5    C     C_R   0.500544 0.500105 0.389154 0.885572
C6    C     C_R   0.573058 0.441756 0.304303 -0.202003
C7    C     C_R   0.511605 0.499774 0.327192 -0.172862
C8    C     C_R   0.466450 0.558707 0.291156 -0.028162
C9    C     C_R   0.484971 0.558315 0.232413 -0.183345
C10   C     C_R   0.545728 0.499541 0.209731 0.176874
C11   C     C_R   0.555585 0.419193 0.758407 -0.117742
C12   C     C_R   0.542135 0.420532 0.699803 -0.222800
C13   C     C_R   0.439455 0.379847 0.973280 -0.160454
C14   C     C_R   0.512862 0.498490 0.673099 -0.051183
C15   C     C_R   0.497970 0.575559 0.705505 -0.261621
C16   C     C_R   0.509599 0.574380 0.764904 0.047860
C17   C     C_R   0.662138 0.499964 0.500153 0.914616
C18   C     C_R   0.538646 0.495055 0.791274 0.263904
C19   C     C_3   0.052578 0.587551 0.547785 0.281386
C20   C     C_3   0.050460 0.415853 0.547961 0.232961
C21   C     C_3   0.949342 0.405703 0.543768 -0.011666
C22   C     C_3   0.950971 0.594618 0.548592 -0.012707
C23   C     C_1   0.750227 0.500125 0.506358 -0.203339
C24   C     C_R   0.441075 0.379745 0.032716 -0.161961
C25   C     C_3   0.082230 0.501638 0.515523 0.193389
C26   C     C_3   0.916039 0.501542 0.519140 0.117070
C27   C     C_3   0.949526 0.504819 0.455218 -0.411085
C28   C     C_3   0.046958 0.504473 0.453841 -0.591170
C29   C     C_1   0.824864 0.501082 0.513146 -0.094157
C30   C     C_1   0.173906 0.500386 0.510214 -0.122758
C31   C     C_R   0.501933 0.499742 0.611096 0.875219
C32   C     C_1   0.249051 0.500074 0.505191 -0.198109
C33   C     C_3   0.404868 0.052768 0.478952 -0.198968
C34   C     C_3   0.405483 0.946640 0.480925 -0.161957
C35   C     C_R   0.500026 0.432675 0.061744 0.026322
C36   C     C_3   0.518277 0.051588 0.560338 0.236733
C37   C     C_3   0.515993 0.946330 0.561280 0.191483
C38   C     C_3   0.493570 0.090633 0.499780 -0.085887
C39   C     C_3   0.495081 0.909534 0.500105 -0.057243
C40   C     C_3   0.566928 0.948086 0.459387 0.131979
C41   C     C_3   0.564384 0.053329 0.457754 0.164743
C42   C     C_1   0.497663 0.809037 0.499339 0.112395
C43   C     C_1   0.496884 0.190977 0.499044 0.178829
C44   C     C_R   0.611312 0.536215 0.878221 0.583539
C45   C     C_R   0.492545 0.436849 0.882286 0.475983
C46   C     C_R   0.560448 0.483825 0.030721 -0.070618
C47   C     C_R   0.497059 0.432504 0.941836 0.031212
C48   C     C_R   0.559076 0.483600 0.970352 -0.103183
C49   C     C_R   0.617894 0.535647 0.938580 -0.150077
C50   C     C_R   0.490726 0.655994 0.798370 0.116912
C51   C     C_R   0.432043 0.654030 0.844280 -0.158298
C52   C     C_R   0.415515 0.731162 0.876034 -0.129339
C53   C     C_R   0.456779 0.810901 0.861944 -0.093945
C54   C     C_R   0.514453 0.813712 0.815941 -0.107195
C55   C     C_R   0.531302 0.736690 0.784139 -0.100292
C56   C     C_R   0.922245 0.616794 0.612582 0.134377
C57   C     C_R   0.620616 0.536166 0.060038 -0.183193
C58   C     C_R   0.937194 0.557813 0.658891 -0.034984
C59   C     C_R   0.911379 0.576743 0.715118 -0.151785
C60   C     C_R   0.875158 0.658817 0.728126 -0.075245
C61   C     C_R   0.869303 0.723428 0.685470 -0.153044
C62   C     C_R   0.895380 0.704131 0.629334 -0.172118
C63   C     C_R   0.911994 0.370773 0.602220 0.134830
C64   C     C_R   0.947915 0.292440 0.626283 -0.051969
C65   C     C_R   0.913830 0.252917 0.675753 -0.149629
C66   C     C_R   0.841664 0.288991 0.701969 -0.107492
C67   C     C_R   0.803131 0.364261 0.678499 -0.130556
C68   C     C_R   0.684191 0.582587 0.028208 0.337750
C69   C     C_R   0.836875 0.404144 0.628977 -0.232979
C70   C     C_R   0.922146 0.328493 0.501237 0.064356
C71   C     C_R   0.836538 0.297368 0.502225 -0.117221
C72   C     C_R   0.809016 0.229084 0.466348 -0.124659
C73   C     C_R   0.865461 0.189487 0.427852 -0.093368
C74   C     C_R   0.949348 0.218779 0.424766 -0.130832
C75   C     C_R   0.977512 0.287310 0.460381 -0.197603
C76   C     C_R   0.916792 0.674284 0.509357 0.061362
C77   C     C_R   0.828741 0.697123 0.512147 -0.148952
C78   C     C_R   0.793804 0.764925 0.478534 -0.120010
C79   C     C_R   0.680893 0.585175 0.967584 0.450087
C80   C     C_R   0.844913 0.812145 0.440161 -0.097894
C81   C     C_R   0.930857 0.790951 0.434945 -0.128632
C82   C     C_R   0.966503 0.722942 0.468303 -0.172330
C83   C     C_R   0.329692 0.898214 0.509854 0.168832
C84   C     C_R   0.290283 0.926741 0.561273 -0.002240
C85   C     C_R   0.220241 0.881298 0.584321 -0.152609
C86   C     C_R   0.188657 0.805967 0.556980 -0.135553
C87   C     C_R   0.227678 0.775303 0.506770 -0.131790
C88   C     C_R   0.297441 0.820894 0.483492 -0.185759
C89   C     C_R   0.320441 0.097354 0.496879 0.116774
C90   C     C_R   0.498702 0.437104 0.121379 0.515064
C91   C     C_R   0.246628 0.073405 0.466312 -0.149245
C92   C     C_R   0.167061 0.108944 0.480655 -0.121790
C93   C     C_R   0.159678 0.170687 0.524912 -0.128698
C94   C     C_R   0.232047 0.198521 0.554019 -0.138812
C95   C     C_R   0.311919 0.162877 0.540019 -0.146045
C96   C     C_R   0.395739 0.615799 0.312624 0.143319
C97   C     C_R   0.328075 0.578337 0.344488 -0.112267
C98   C     C_R   0.259757 0.631473 0.362494 -0.131376
C99   C     C_R   0.257860 0.722087 0.348441 -0.135350
C100  C     C_R   0.324965 0.760073 0.317091 -0.152630
H1    H     H_    0.391991 0.339588 0.952121 0.191574
H2    H     H_    0.394785 0.339497 0.055799 0.191905
H3    H     H_    0.585899 0.070420 0.567600 0.086442
H4    H     H_    0.581280 0.923153 0.573037 0.045303
H5    H     H_    0.627047 0.076532 0.473975 0.101423
H6    H     H_    0.628934 0.929430 0.478989 0.104028
H7    H     H_    0.404281 0.070429 0.432674 0.144590
H8    H     H_    0.398710 0.927781 0.435196 0.092281
H9    H     H_    0.608309 0.397254 0.332210 0.187392
H10   H     H_    0.449226 0.600657 0.203465 0.156384
H11   H     H_    0.578304 0.358633 0.778677 0.149911
H12   H     H_    0.555666 0.360798 0.675327 0.174606
H13   H     H_    0.398645 0.593138 0.855239 0.154582
H14   H     H_    0.370488 0.729173 0.911465 0.143816
H15   H     H_    0.443871 0.870564 0.886556 0.137811
H16   H     H_    0.546247 0.875551 0.804984 0.141221
H17   H     H_    0.576638 0.739675 0.748860 0.131274
H18   H     H_    0.972426 0.497962 0.653127 0.236220
H19   H     H_    0.921639 0.528219 0.748903 0.158436
H20   H     H_    0.855584 0.673822 0.771706 0.170342
H21   H     H_    0.846472 0.789558 0.696103 0.138487
H22   H     H_    0.896148 0.760180 0.600168 0.146036
H23   H     H_    0.475605 0.635995 0.684800 0.161884
H24   H     H_    0.002452 0.260957 0.606165 0.123507
H25   H     H_    0.943074 0.193566 0.693432 0.134358
H26   H     H_    0.815224 0.258250 0.740265 0.135529
H27   H     H_    0.746806 0.392089 0.698779 0.148005
H28   H     H_    0.804623 0.462868 0.614118 0.149678
H29   H     H_    0.148872 0.606832 0.599753 0.339628
H30   H     H_    0.139585 0.402552 0.605836 0.343468
H31   H     H_    0.789907 0.324873 0.531531 0.150907
H32   H     H_    0.743533 0.206769 0.468588 0.141761
H33   H     H_    0.844041 0.136489 0.400095 0.143529
H34   H     H_    0.082683 0.357361 0.529130 0.071086
H35   H     H_    0.992927 0.188712 0.394168 0.133401
H36   H     H_    0.042295 0.307390 0.453127 0.124464
H37   H     H_    0.786698 0.664793 0.542729 0.146014
H38   H     H_    0.726819 0.781155 0.482643 0.145142
H39   H     H_    0.817775 0.864757 0.414116 0.149334
H40   H     H_    0.970156 0.826612 0.404116 0.131368
H41   H     H_    0.031859 0.708690 0.458068 0.107365
H42   H     H_    0.311751 0.984731 0.583584 0.147557
H43   H     H_    0.190166 0.904877 0.623416 0.141723
H44   H     H_    0.134054 0.771627 0.574922 0.150520
H45   H     H_    0.081004 0.644801 0.525559 0.050638
H46   H     H_    0.204058 0.716290 0.485663 0.127482
H47   H     H_    0.327069 0.795349 0.444846 0.147730
H48   H     H_    0.250610 0.025469 0.431715 0.119907
H49   H     H_    0.111029 0.088290 0.457520 0.129306
H50   H     H_    0.097885 0.197193 0.536393 0.122250
H51   H     H_    0.226276 0.247846 0.587646 0.138658
H52   H     H_    0.365400 0.187796 0.563433 0.171951
H53   H     H_    0.416280 0.066009 0.608095 0.373052
H54   H     H_    0.476679 0.851587 0.612455 0.335302
H55   H     H_    0.514749 0.058173 0.380115 0.353403
H56   H     H_    0.069953 0.565138 0.430981 0.188976
H57   H     H_    0.512303 0.909744 0.387666 0.333381
H58   H     H_    0.774513 0.581280 0.083243 0.369819
H59   H     H_    0.776062 0.669704 0.961327 0.377914
H60   H     H_    0.659075 0.388516 0.184114 0.337162
H61   H     H_    0.327594 0.507815 0.354729 0.113122
H62   H     H_    0.208038 0.602242 0.387031 0.121878
H63   H     H_    0.204772 0.763054 0.362324 0.126644
H64   H     H_    0.323744 0.830471 0.306660 0.134612
H65   H     H_    0.444918 0.737496 0.274562 0.146226
H66   H     H_    0.070786 0.447190 0.428259 0.205487
H67   H     H_    0.925485 0.563222 0.430882 0.212278
H68   H     H_    0.925311 0.449314 0.428606 0.213560
N1    N     N_R   0.548106 0.489247 0.852073 -0.368308
N2    N     N_R   0.553296 0.492557 0.148966 -0.362357
N3    N     N_1   0.498630 0.731150 0.498860 -0.093841
N4    N     N_1   0.498630 0.268850 0.498860 -0.095799
O1    O     O_R   0.377210 0.574260 0.500060 -0.605904
O2    O     O_2   0.431795 0.390632 0.854564 -0.559530
O3    O     O_2   0.442241 0.387742 0.151850 -0.549065
O4    O     O_2   0.661487 0.599602 0.150103 -0.513550
O5    O     O_3   0.087833 0.590218 0.603320 -0.733950
O6    O     O_3   0.077982 0.417706 0.605372 -0.756373
O7    O     O_3   0.474038 0.091245 0.606317 -0.735580
O8    O     O_3   0.459216 0.913674 0.603314 -0.744593
O9    O     O_3   0.559115 0.089714 0.401920 -0.706739
O10   O     O_3   0.569812 0.909017 0.404423 -0.716873
O11   O     O_3   0.751240 0.624125 0.054887 -0.728514
O12   O     O_R   0.377210 0.425740 0.500060 -0.608336
O13   O     O_3   0.739600 0.633944 0.935805 -0.698767
O14   O     O_3   0.650866 0.380740 0.225985 -0.745350
O15   O     O_R   0.500050 0.574250 0.416220 -0.593622
O16   O     O_R   0.500050 0.425750 0.416220 -0.607080
O17   O     O_R   0.622930 0.574200 0.500060 -0.614239
O18   O     O_R   0.622930 0.425800 0.500060 -0.618169
O19   O     O_R   0.500100 0.574210 0.583900 -0.622238
O20   O     O_R   0.500100 0.425790 0.583900 -0.615998
O21   O     O_2   0.666856 0.583174 0.845585 -0.502192
Zn1   Zn    Zn3+2 0.500090 0.599130 0.500080 0.982127
Zn2   Zn    Zn3+2 0.500090 0.400870 0.500080 0.985237

loop_
_geom_bond_atom_site_label_1
_geom_bond_atom_site_label_2
_ccdc_geom_bond_type
C44   C49   A    
C81   H40   S    
C21   C26   S    
H53   O7    S    
C11   C18   A    
C93   C94   A    
C87   H46   S    
H54   O8    S    
O1    Zn1   S    
C73   C74   A    
C33   H7    S    
H60   O14   S    
C14   C31   S    
C87   C88   A    
C85   H43   S    
C97   C98   A    
C2    C57   A    
C86   H44   S    
C7    C8    A    
C68   O11   S    
C53   C54   A    
C25   C28   S    
C1    O1    A    
C44   O21   S    
C19   H45   S    
C41   H5    S    
C36   H3    S    
C23   C29   T    
C40   H6    S    
C36   C37   S    
C77   H37   S    
C67   H27   S    
C66   H26   S    
N3    Zn1   S    
C85   C86   A    
C78   C80   A    
C20   C25   S    
C15   C16   A    
C31   O19   A    
C58   H18   S    
C61   H21   S    
C4    O14   S    
C44   N1    A    
C22   C26   S    
C8    C96   S    
H30   O6    S    
C2    O4    S    
O15   Zn1   S    
C3    C100  A    
C63   C69   A    
C69   H28   S    
C8    C9    A    
C54   H16   S    
C60   H20   S    
C3    C96   A    
C22   C76   S    
C89   C91   A    
H58   O11   S    
C19   O5    S    
C28   H66   S    
C27   H68   S    
C68   C79   A    
C83   C88   A    
C59   C60   A    
C96   C97   A    
C41   O9    S    
C93   H50   S    
C94   C95   A    
C36   O7    S    
C82   H41   S    
C78   H38   S    
C9    C10   A    
C91   H48   S    
C98   H62   S    
C1    O12   A    
C72   H32   S    
C39   C42   S    
C40   O10   S    
C45   C47   A    
C46   C48   A    
C24   C35   A    
C74   C75   A    
C11   H11   S    
C34   C39   S    
C47   C48   A    
C19   C22   S    
C76   C77   A    
O16   Zn2   S    
C38   C41   S    
C4    C6    A    
C76   C82   A    
C91   C92   A    
C13   C47   A    
C75   H36   S    
C72   C73   A    
C20   O6    S    
C17   O17   A    
C94   H51   S    
C77   C78   A    
H29   O5    S    
C31   O20   A    
C1    C32   S    
C81   C82   A    
C51   C52   A    
C13   C24   A    
C60   C61   A    
C67   C69   A    
C65   H25   S    
C89   C95   A    
O20   Zn2   S    
C33   C89   S    
C83   C84   A    
C84   H42   S    
C43   N4    T    
C74   H35   S    
C90   N2    A    
C33   C34   S    
O17   Zn1   S    
C100  H64   S    
C17   C23   S    
C84   C85   A    
C70   C71   A    
C15   H23   S    
O18   Zn2   S    
C2    N2    A    
C99   H63   S    
C40   C41   S    
C73   H33   S    
C98   C99   A    
C97   H61   S    
C46   C57   A    
C26   C27   S    
C6    H9    S    
C56   C62   A    
C58   C59   A    
C34   C83   S    
C5    O15   A    
C57   C68   A    
C4    C10   A    
C80   H39   S    
C62   H22   S    
C52   C53   A    
C3    H65   S    
C5    C7    S    
C55   H17   S    
C18   N1    S    
C25   C30   S    
C37   O8    S    
C54   C55   A    
C48   C49   A    
C59   H19   S    
C79   O13   S    
C86   C87   A    
C51   H13   S    
C33   C38   S    
C16   C50   S    
C80   C81   A    
C45   N1    A    
C37   H4    S    
C22   C56   S    
C11   C12   A    
H55   O9    S    
C6    C7    A    
C9    H10   S    
C52   H14   S    
C17   O18   A    
C10   N2    S    
O12   Zn2   S    
C50   C55   A    
C99   C100  A    
C21   C70   S    
C34   H8    S    
C64   C65   A    
H59   O13   S    
C36   C38   S    
C12   C14   A    
O19   Zn1   S    
C38   C43   S    
C37   C39   S    
C64   H24   S    
C45   O2    S    
C12   H12   S    
C30   C32   T    
C90   O3    S    
C92   C93   A    
C88   H47   S    
C56   C58   A    
C66   C67   A    
C24   H2    S    
C61   C62   A    
C19   C25   S    
C21   C63   S    
C42   N3    T    
C71   H31   S    
C63   C64   A    
C39   C40   S    
C35   C90   A    
C49   C79   A    
C71   C72   A    
C20   C21   S    
C70   C75   A    
C26   C29   S    
C16   C18   A    
C65   C66   A    
H57   O10   S    
C92   H49   S    
C28   H56   S    
C50   C51   A    
C14   C15   A    
N4    Zn2   S    
C95   H52   S    
C5    O16   A    
C20   H34   S    
C35   C46   A    
C13   H1    S    
C53   H15   S    
C27   H67   S    
C27   C28   S    
