data_mof_unit_3370.cif
_audit_creation_date              2012-12-10T17:18:56-0500
_audit_creation_method            fapswitch 2.2
_symmetry_space_group_name_H-M    P1
_symmetry_Int_Tables_number       1
_space_group_crystal_system       triclinic
_cell_length_a                    10.203142
_cell_length_b                    10.539386
_cell_length_c                    13.53382
_cell_angle_alpha                 92.587652
_cell_angle_beta                  99.996448
_cell_angle_gamma                 95.246521
_cell_volume                      1424.4926117

loop_
_atom_site_label
_atom_site_type_symbol
_atom_type_description
_atom_site_fract_x
_atom_site_fract_y
_atom_site_fract_z
_atom_type_partial_charge
C1    C     C_R   0.049356 0.733383 0.487714 0.973281
C2    C     C_2   0.973096 0.061846 0.420013 0.356027
C3    C     C_2   0.430610 0.512918 0.508023 -0.113069
C4    C     C_2   0.569319 0.488224 0.490875 -0.113133
C5    C     C_R   0.095311 0.521695 0.686349 0.916486
C6    C     C_R   0.906327 0.483138 0.313802 0.991004
C7    C     C_R   0.148466 0.546539 0.794891 -0.252193
C8    C     C_R   0.854847 0.460344 0.206186 -0.257794
C9    C     C_R   0.124633 0.586507 0.970648 0.050298
C10   C     C_R   0.836984 0.338847 0.045532 0.050925
C11   C     C_R   0.068001 0.575075 0.867119 0.312297
C12   C     C_R   0.945336 0.265425 0.500057 0.976242
C13   C     C_R   0.903870 0.369878 0.144932 0.294307
C14   C     C_R   0.285578 0.542744 0.826662 0.319258
C15   C     C_R   0.743625 0.521173 0.167574 0.302372
C16   C     C_R   0.334295 0.524359 0.927464 -0.069413
C17   C     C_R   0.659975 0.469372 0.079000 -0.073795
C18   C     C_R   0.258714 0.558033 0.001295 0.021392
C19   C     C_R   0.711809 0.386330 0.012998 0.028499
C20   C     C_R   0.458697 0.475809 0.955635 0.093631
C21   C     C_R   0.525635 0.497234 0.055196 0.094792
C22   C     C_3   0.041908 0.633220 0.045592 -0.354485
C23   C     C_R   0.453155 0.536517 0.129076 -0.216610
C24   C     C_3   0.077708 0.776172 0.073588 -0.379671
C25   C     C_3   0.989873 0.825208 0.144472 -0.818433
C26   C     C_3   0.900125 0.253727 0.977249 -0.345791
C27   C     C_3   0.842859 0.113909 0.976618 -0.325535
C28   C     C_3   0.900294 0.029405 0.903704 -0.905144
C29   C     C_R   0.513104 0.399004 0.888155 -0.212484
C30   C     C_R   0.320879 0.563074 0.102869 -0.208210
C31   C     C_R   0.635571 0.351939 0.917302 -0.169956
C32   C     C_2   0.066359 0.865847 0.463112 -0.435799
C33   C     C_2   0.909605 0.128763 0.481143 -0.432142
C34   C     C_2   0.959072 0.922961 0.421421 0.341003
H1    H     H_    0.270458 0.589573 0.163376 0.150649
H2    H     H_    0.335512 0.374434 0.410325 0.177027
H3    H     H_    0.675469 0.687182 0.166410 0.334774
H4    H     H_    0.458734 0.607016 0.796901 0.335779
H5    H     H_    0.089322 0.377012 0.204222 0.344243
H6    H     H_    0.935420 0.663095 0.786820 0.342882
H7    H     H_    0.882981 0.811424 0.107788 0.266452
H8    H     H_    0.003218 0.774044 0.214986 0.277254
H9    H     H_    0.018313 0.928710 0.163468 0.251372
H10   H     H_    0.184215 0.794720 0.110722 0.225332
H11   H     H_    0.063660 0.829707 0.004327 0.236799
H12   H     H_    0.668557 0.288861 0.863576 0.153814
H13   H     H_    0.933229 0.615731 0.014629 0.250903
H14   H     H_    0.056669 0.579064 0.113949 0.169892
H15   H     H_    0.872970 0.059435 0.825788 0.261478
H16   H     H_    0.010968 0.035696 0.924796 0.263602
H17   H     H_    0.858952 0.928610 0.906105 0.262340
H18   H     H_    0.867702 0.079543 0.053447 0.253192
H19   H     H_    0.732214 0.104794 0.954365 0.215070
H20   H     H_    0.886971 0.287893 0.900068 0.192881
H21   H     H_    0.010354 0.260528 0.002397 0.233294
H22   H     H_    0.095343 0.056097 0.325199 0.326833
H23   H     H_    0.495394 0.540229 0.208326 0.197816
H24   H     H_    0.771994 0.913622 0.359043 0.329285
H25   H     H_    0.457789 0.368598 0.813927 0.194493
H26   H     H_    0.836940 0.081342 0.520788 0.119721
H27   H     H_    0.164593 0.918976 0.483583 0.123842
H28   H     H_    0.578745 0.412725 0.436097 0.158414
H29   H     H_    0.421149 0.589501 0.561830 0.198605
H30   H     H_    0.664503 0.624582 0.590503 0.172272
N1    N     N_2   0.322180 0.446120 0.460900 -0.186474
N2    N     N_2   0.677820 0.553880 0.539100 -0.168392
O1    O     O_R   0.935190 0.693030 0.507870 -0.541867
O2    O     O_3   0.371489 0.566877 0.759406 -0.769405
O3    O     O_3   0.015096 0.309394 0.180640 -0.733056
O4    O     O_3   0.936818 0.599390 0.838556 -0.767594
O5    O     O_3   0.058764 0.122291 0.363917 -0.710770
O6    O     O_3   0.835838 0.854003 0.388324 -0.701446
O7    O     O_R   0.064810 0.306970 0.492130 -0.535152
O8    O     O_R   0.142080 0.658430 0.482770 -0.629279
O9    O     O_R   0.857920 0.341570 0.517230 -0.631120
O10   O     O_R   0.969700 0.527180 0.651960 -0.614933
O11   O     O_R   0.030300 0.472820 0.348040 -0.626183
O12   O     O_R   0.176600 0.492580 0.626860 -0.540571
O13   O     O_R   0.823400 0.507420 0.373140 -0.549085
O14   O     O_3   0.722261 0.633425 0.216670 -0.731749
Zn1   Zn    Zn3+2 0.861850 0.523100 0.516760 0.991451
Zn2   Zn    Zn3+2 0.138150 0.476900 0.483240 0.987160

loop_
_geom_bond_atom_site_label_1
_geom_bond_atom_site_label_2
_ccdc_geom_bond_type
C22   H14   S    
C8    C13   A    
C19   C31   A    
C26   H21   S    
C25   H9    S    
N1    Zn2   S    
C11   O4    S    
C7    C11   A    
C26   C27   S    
H6    O4    S    
C30   H1    S    
C1    O8    A    
C32   H27   S    
C28   H17   S    
C9    C22   S    
C4    H28   S    
C15   C17   A    
C17   C19   A    
C28   H16   S    
C7    C14   A    
C29   H25   S    
C31   H12   S    
C18   C30   A    
C10   C26   S    
C22   H13   S    
C12   O7    A    
C3    N1    D    
O8    Zn2   S    
C26   H20   S    
C20   C29   A    
H3    O14   S    
C23   C30   A    
C24   C25   S    
C25   H7    S    
C5    C7    S    
H2    N1    S    
O9    Zn1   S    
C6    O11   A    
C6    C8    S    
C1    C32   S    
C17   C21   A    
C32   C34   D    
C25   H8    S    
C28   H15   S    
O12   Zn2   S    
C15   O14   S    
C10   C19   A    
C16   C20   A    
H22   O5    S    
H5    O3    S    
C9    C11   A    
C2    C33   D    
H4    O2    S    
O1    Zn1   S    
C8    C15   A    
C21   C23   A    
C24   H10   S    
C14   C16   A    
C24   H11   S    
C3    C4    S    
C34   O6    S    
O7    Zn2   S    
C27   H18   S    
O13   Zn1   S    
C23   H23   S    
C2    C34   S    
C10   C13   A    
O10   Zn1   S    
C27   H19   S    
C3    H29   S    
C33   H26   S    
C5    O10   A    
C12   C33   S    
C29   C31   A    
N2    Zn1   S    
C4    N2    D    
H24   O6    S    
C6    O13   A    
C13   O3    S    
O11   Zn2   S    
C1    O1    A    
C22   C24   S    
C9    C18   A    
C20   C21   A    
C16   C18   A    
C12   O9    A    
C27   C28   S    
C14   O2    S    
C5    O12   A    
C2    O5    S    
H30   N2    S    
