data_mof_unit_4333.cif
_audit_creation_date              2013-03-05T15:47:46-0500
_audit_creation_method            fapswitch 2.2
_symmetry_space_group_name_H-M    P1
_symmetry_Int_Tables_number       1
_space_group_crystal_system       triclinic
_cell_length_a                    21.631573
_cell_length_b                    7.211253
_cell_length_c                    18.600583
_cell_angle_alpha                 90.001435
_cell_angle_beta                  95.928437
_cell_angle_gamma                 89.999239
_cell_volume                      2886.00055068

loop_
_atom_site_label
_atom_site_type_symbol
_atom_site_description
_atom_site_fract_x
_atom_site_fract_y
_atom_site_fract_z
_atom_type_partial_charge
O1    O     O_R   0.449650 0.506500 0.414480 -0.580815
O2    O     O_R   0.550350 0.006500 0.585520 -0.580814
O3    O     O_R   0.432010 0.173150 0.560250 -0.588123
O4    O     O_R   0.567990 0.673150 0.439750 -0.588151
C1    C     C_R   0.416136 0.344605 0.580992 0.905184
C2    C     C_R   0.583862 0.844601 0.419005 0.905181
O5    O     O_R   0.442320 0.176650 0.413480 -0.584334
O6    O     O_R   0.557680 0.676650 0.586520 -0.584326
O7    O     O_R   0.560730 0.008380 0.437700 -0.581103
O8    O     O_R   0.439270 0.508380 0.562300 -0.581082
C3    C     C_R   0.428474 0.345069 0.387634 0.897349
C4    C     C_R   0.571526 0.845072 0.612366 0.897372
O9    O     O_3   0.538840 0.339860 0.508120 -0.274427
O10   O     O_3   0.461160 0.839860 0.491880 -0.274403
V1    V     V_3+5 0.492800 0.064220 0.498490 1.180868
V2    V     V_3+5 0.507200 0.564220 0.501510 1.180862
C5    C     C_R   0.871589 0.979703 0.689672 -0.141218
C6    C     C_R   0.128414 0.479771 0.310325 -0.141332
H1    H     H_    0.959618 0.007130 0.753171 0.114638
H2    H     H_    0.040385 0.507202 0.246827 0.114608
H3    H     H_    0.789797 0.976117 0.573388 0.163016
H4    H     H_    0.210207 0.476214 0.426609 0.162988
H5    H     H_    0.891600 0.007848 0.639724 0.138829
H6    H     H_    0.108404 0.507948 0.360273 0.138796
C7    C     C_R   0.886529 0.942275 0.819595 -0.092037
C8    C     C_R   0.113472 0.442286 0.180405 -0.092023
C9    C     C_R   0.585863 0.816052 0.744760 -0.157601
C10   C     C_R   0.414135 0.316002 0.255241 -0.157599
C11   C     C_R   0.621962 0.813638 0.811056 -0.096584
C12   C     C_R   0.378035 0.313571 0.188945 -0.096583
C13   C     C_R   0.685828 0.844634 0.815218 -0.177157
C14   C     C_R   0.314170 0.344586 0.184783 -0.177165
C15   C     C_R   0.715660 0.879599 0.752394 0.093747
C16   C     C_R   0.284340 0.379589 0.247607 0.093740
C17   C     C_R   0.678023 0.883655 0.684237 0.093401
C18   C     C_R   0.321977 0.383665 0.315763 0.093413
C19   C     C_R   0.781465 0.910382 0.754959 0.089153
C20   C     C_R   0.218535 0.410390 0.245040 0.089161
C21   C     C_R   0.807605 0.946226 0.689296 0.154072
C22   C     C_R   0.192397 0.446273 0.310702 0.154128
C23   C     C_R   0.769878 0.949259 0.623510 -0.190195
C24   C     C_R   0.230125 0.449327 0.376487 -0.190357
C25   C     C_R   0.706270 0.918122 0.620883 -0.199677
C26   C     C_R   0.293732 0.418170 0.379115 -0.199680
C27   C     C_R   0.822509 0.907725 0.820106 -0.238026
C28   C     C_R   0.177490 0.407713 0.179895 -0.238045
C29   C     C_R   0.910512 0.978915 0.754209 -0.153762
C30   C     C_R   0.089490 0.478967 0.245790 -0.153768
C31   C     C_R   0.612820 0.851292 0.681014 -0.159236
C32   C     C_R   0.387180 0.351281 0.318985 -0.159239
H7    H     H_    0.806319 0.881590 0.872035 0.099955
H8    H     H_    0.193679 0.381548 0.127966 0.099960
H9    H     H_    0.536391 0.789877 0.743113 0.100111
H10   H     H_    0.463606 0.289810 0.256888 0.100107
H11   H     H_    0.710497 0.840107 0.868517 0.111135
H12   H     H_    0.289500 0.340043 0.131485 0.111136
H13   H     H_    0.600228 0.786597 0.859887 0.112414
H14   H     H_    0.399768 0.286501 0.140115 0.112414
H15   H     H_    0.679273 0.921659 0.568523 0.123827
H16   H     H_    0.320729 0.421723 0.431474 0.123836
C33   C     C_R   0.633128 0.005414 0.319989 -0.159230
C34   C     C_R   0.366862 0.505425 0.680002 -0.159019
C35   C     C_R   0.632835 0.856190 0.368576 -0.172006
C36   C     C_R   0.367162 0.356197 0.631419 -0.172162
C37   C     C_R   0.679667 0.720847 0.369314 -0.167268
C38   C     C_R   0.320341 0.220828 0.630687 -0.167092
C39   C     C_R   0.726179 0.730339 0.321208 -0.034112
C40   C     C_R   0.273848 0.230228 0.678824 -0.034094
C41   C     C_R   0.726140 0.883795 0.273318 0.002265
C42   C     C_R   0.273870 0.383738 0.726695 0.002219
C43   C     C_R   0.679448 0.020899 0.272892 0.216411
C44   C     C_R   0.320542 0.520899 0.727097 0.216399
C45   C     C_R   0.773972 0.594945 0.320909 0.346517
C46   C     C_R   0.226098 0.094693 0.679189 0.346316
C47   C     C_R   0.819872 0.614948 0.273130 -0.323099
C48   C     C_R   0.180208 0.114718 0.726984 -0.323148
C49   C     C_R   0.819874 0.766500 0.226009 0.092869
C50   C     C_R   0.180170 0.266373 0.774051 0.092805
C51   C     C_R   0.773325 0.902510 0.226418 0.044690
C52   C     C_R   0.226689 0.402452 0.773600 0.044849
C53   C     C_R   0.774171 0.058136 0.180176 0.180382
C54   C     C_R   0.225818 0.558145 0.819808 0.180477
C55   C     C_R   0.727500 0.192881 0.180684 -0.229675
C56   C     C_R   0.272469 0.692938 0.819277 -0.229753
C57   C     C_R   0.680340 0.173711 0.226165 -0.164578
C58   C     C_R   0.319633 0.673755 0.773803 -0.164480
C59   C     C_R   0.865999 0.784001 0.178527 -0.187637
C60   C     C_R   0.134043 0.283891 0.821528 -0.187656
C61   C     C_R   0.867245 0.938125 0.132069 -0.146605
C62   C     C_R   0.132763 0.438098 0.867942 -0.146601
C63   C     C_R   0.821450 0.075996 0.133975 -0.258147
C64   C     C_R   0.178535 0.576022 0.866004 -0.258139
H17   H     H_    0.597250 0.110698 0.318961 0.125545
H18   H     H_    0.402729 0.610735 0.681021 0.125591
H19   H     H_    0.680112 0.612251 0.409276 0.187634
H20   H     H_    0.319893 0.112315 0.590694 0.187727
H21   H     H_    0.855792 0.510247 0.272593 0.179458
H22   H     H_    0.144321 0.009940 0.727588 0.179642
H23   H     H_    0.901513 0.677915 0.178351 0.135170
H24   H     H_    0.098551 0.177749 0.821734 0.135206
H25   H     H_    0.821792 0.195056 0.098432 0.139106
H26   H     H_    0.178171 0.695141 0.901517 0.139109
H27   H     H_    0.727417 0.313272 0.145810 0.131970
H28   H     H_    0.272534 0.813374 0.854127 0.131968
H29   H     H_    0.644964 0.280268 0.225610 0.124691
H30   H     H_    0.354993 0.780349 0.774339 0.124724
O11   O     O_R   0.060820 0.290050 0.937800 -0.594691
O12   O     O_R   0.939180 0.790050 0.062200 -0.594673
O13   O     O_R   0.057690 0.616620 0.086540 -0.586324
O14   O     O_R   0.942310 0.116620 0.913460 -0.586316
C65   C     C_R   0.071550 0.448769 0.112507 0.904468
C66   C     C_R   0.928450 0.948766 0.887493 0.904482
O15   O     O_R   0.068010 0.619890 0.939770 -0.590888
O16   O     O_R   0.931990 0.119890 0.060230 -0.590886
O17   O     O_R   0.949640 0.787940 0.914460 -0.579522
O18   O     O_R   0.050360 0.287940 0.085540 -0.579528
C67   C     C_R   0.083970 0.451038 0.918593 0.927495
C68   C     C_R   0.916032 0.951044 0.081410 0.927476
O19   O     O_3   0.961210 0.453080 0.991940 -0.282301
O20   O     O_3   0.038790 0.953080 0.008060 -0.282317
V3    V     V_3+5 0.007200 0.728820 0.001500 1.159065
V4    V     V_3+5 0.992800 0.228820 0.998500 1.159068
N1    N     N_R   0.777697 0.437821 0.368875 0.235452
O21   O     O_R   0.831743 0.377736 0.396470 -0.388809
O22   O     O_R   0.728879 0.336939 0.375974 -0.431760
N2    N     N_R   0.222419 0.937343 0.631316 0.235538
O23   O     O_R   0.168385 0.876293 0.604135 -0.388912
O24   O     O_R   0.271331 0.837076 0.623999 -0.431891

loop_
_geom_bond_atom_site_label_1
_geom_bond_atom_site_label_2
_geom_bond_distance
_ccdc_geom_bond_type
C38   C40   1.415538 A    
C35   C37   1.405752 A    
N2    O23   1.301378 A    
O17   V3    1.984143 S    
C9    C11   1.389908 A    
C23   C25   1.390017 A    
O1    C3    1.329318 A    
O12   V3    1.994446 S    
O2    C4    1.329315 A    
C2    O7    1.342429 A    
C4    C31   1.481469 S    
O3    V1    1.994462 S    
N1    O21   1.301570 A    
C21   C23   1.399123 A    
H4    C24   1.084133 S    
O5    C3    1.328968 A    
C5    H5    1.083897 S    
C55   H27   1.083643 S    
C6    H6    1.083894 S    
C48   C50   1.400913 A    
O13   C65   1.326049 A    
H1    C29   1.083676 S    
N1    O22   1.300240 A    
C27   H7    1.077528 S    
C40   C46   1.422574 A    
C28   H8    1.077525 S    
C47   H21   1.084204 S    
C54   C64   1.408058 A    
C41   C43   1.412816 A    
C5    C21   1.404288 A    
C33   C35   1.405709 A    
C6    C22   1.404287 A    
C34   C36   1.405665 A    
C7    C66   1.477477 S    
C43   C57   1.404859 A    
C10   C32   1.397627 A    
C37   C39   1.415499 A    
C17   C31   1.424773 A    
C13   C15   1.414701 A    
C65   O18   1.326382 A    
C39   C45   1.422428 A    
C61   C63   1.406520 A    
C17   C25   1.404478 A    
C7    C29   1.395898 A    
C16   C18   1.434464 A    
C25   H15   1.082915 S    
C33   C43   1.401846 A    
O5    V1    1.998345 S    
O6    V2    1.998326 S    
C45   C47   1.406670 A    
C58   H30   1.083731 S    
C24   C26   1.390020 A    
C63   H25   1.084125 S    
C57   H29   1.083733 S    
C53   C55   1.401933 A    
C59   H23   1.084408 S    
C49   C51   1.406235 A    
C19   C21   1.421607 A    
C42   C52   1.415963 A    
C12   C14   1.393721 A    
C62   C67   1.488538 S    
O12   C68   1.327846 A    
C52   C54   1.415254 A    
C51   C53   1.415244 A    
C10   H10   1.083980 S    
C45   N1    1.439276 S    
C15   C19   1.436592 A    
C1    C36   1.488047 S    
C39   C41   1.420559 A    
C36   C38   1.405734 A    
C2    C35   1.488057 S    
O4    V2    1.994498 S    
C62   C64   1.406508 A    
O6    C4    1.328968 A    
C34   C44   1.401817 A    
O1    V2    1.981728 S    
O16   C68   1.336048 A    
C53   C63   1.408061 A    
O2    V1    1.981738 S    
C47   C49   1.400950 A    
C60   H24   1.084402 S    
C46   C48   1.406725 A    
H3    C23   1.084136 S    
O4    C2    1.350115 A    
C55   C57   1.397780 A    
C11   H13   1.082716 S    
C54   C56   1.401912 A    
C34   H18   1.084449 S    
C56   H28   1.083642 S    
O15   C67   1.336057 A    
C41   C51   1.415970 A    
C19   C27   1.426443 A    
C7    C27   1.408086 A    
C18   C32   1.424771 A    
O20   V3    1.754981 S    
C38   H20   1.079012 S    
O18   V4    1.984132 S    
O19   V4    1.754970 S    
C50   C60   1.404810 A    
N2    O24   1.300191 A    
H2    C30   1.083676 S    
C16   C20   1.436591 A    
C5    C29   1.393244 A    
C60   C62   1.409810 A    
O3    C1    1.350113 A    
C6    C30   1.393243 A    
C44   C58   1.404856 A    
C9    H9    1.083980 S    
C8    C30   1.395896 A    
C10   C12   1.389906 A    
O7    V1    1.985729 S    
C1    O8    1.342426 A    
C11   C13   1.393719 A    
C3    C32   1.481472 S    
O8    V2    1.985750 S    
O14   V4    1.998162 S    
C20   C22   1.421605 A    
O13   V3    1.998182 S    
C46   N2    1.439482 S    
C26   H16   1.082914 S    
C12   H14   1.082714 S    
C22   C24   1.399121 A    
C15   C17   1.434462 A    
C14   H12   1.076748 S    
C50   C52   1.406185 A    
O14   C66   1.326049 A    
C20   C28   1.426445 A    
C18   C26   1.404474 A    
C8    C28   1.408085 A    
O16   V4    1.994452 S    
C37   H19   1.079076 S    
O15   V3    1.994414 S    
C61   C68   1.488536 S    
C49   C59   1.404812 A    
C40   C42   1.420623 A    
O9    V2    1.756076 S    
C59   C61   1.409819 A    
O10   V1    1.756087 S    
C56   C58   1.397754 A    
C42   C44   1.412839 A    
O11   V4    1.994467 S    
C13   H11   1.076748 S    
C33   H17   1.084450 S    
C48   H22   1.084189 S    
C8    C65   1.477478 S    
O11   C67   1.327840 A    
C66   O17   1.326378 A    
C9    C31   1.397627 A    
C14   C16   1.414699 A    
C64   H26   1.084122 S    
