data_mof_unit_1995.cif
_audit_creation_date              2012-12-10T17:02:16-0500
_audit_creation_method            fapswitch 2.2
_symmetry_space_group_name_H-M    P1
_symmetry_Int_Tables_number       1
_space_group_crystal_system       triclinic
_cell_length_a                    10.656619
_cell_length_b                    10.700193
_cell_length_c                    10.047955
_cell_angle_alpha                 91.014787
_cell_angle_beta                  90.157971
_cell_angle_gamma                 89.787678
_cell_volume                      1145.5552894

loop_
_atom_site_label
_atom_site_type_symbol
_atom_type_description
_atom_site_fract_x
_atom_site_fract_y
_atom_site_fract_z
_atom_type_partial_charge
C1    C     C_R   0.495801 0.262859 0.498558 0.899334
C2    C     C_R   0.065351 0.603240 0.587758 0.054639
C3    C     C_R   0.128261 0.518806 0.500411 -0.086732
C4    C     C_R   0.064214 0.441158 0.411147 -0.182429
C5    C     C_R   0.936330 0.440535 0.411301 -0.209150
C6    C     C_R   0.871630 0.518209 0.500085 -0.088768
C7    C     C_2   0.527144 0.932440 0.391712 -0.125569
C8    C     C_2   0.528836 0.868227 0.503806 -0.293875
C9    C     C_2   0.537843 0.065866 0.400282 -0.239175
C10   C     C_2   0.475140 0.132214 0.492758 0.026104
C11   C     C_2   0.554028 0.585898 0.926280 -0.135269
C12   C     C_R   0.260652 0.506957 0.500237 0.885438
C13   C     C_2   0.569930 0.572682 0.074258 -0.141887
C14   C     C_R   0.506623 0.737234 0.501071 0.911574
C15   C     C_R   0.739377 0.505916 0.500257 0.858343
C16   C     C_R   0.129295 0.687891 0.674229 -0.195857
C17   C     C_R   0.062919 0.767163 0.760721 0.220779
C18   C     C_R   0.932578 0.769652 0.756500 -0.176659
C19   C     C_R   0.868171 0.690907 0.668435 -0.225177
C20   C     C_R   0.933585 0.603762 0.586316 0.103088
H1    H     H_    0.113516 0.377294 0.344338 0.174445
H2    H     H_    0.592660 0.667901 0.879730 0.161653
H3    H     H_    0.486569 0.415484 0.893362 0.192048
H4    H     H_    0.643921 0.626568 0.122055 0.157880
H5    H     H_    0.230271 0.694857 0.675900 0.187992
H6    H     H_    0.880840 0.833309 0.821023 0.160348
H7    H     H_    0.767305 0.700450 0.665239 0.161589
H8    H     H_    0.887593 0.376215 0.344608 0.160855
H9    H     H_    0.520428 0.887869 0.293943 0.180332
H10   H     H_    0.546040 0.913563 0.599849 0.178033
H11   H     H_    0.601997 0.110257 0.331755 0.154711
N1    N     N_2   0.501340 0.501330 0.852150 -0.185347
N2    N     N_2   0.501380 0.501360 0.147810 -0.142588
O1    O     O_R   0.499980 0.319060 0.613040 -0.589832
O2    O     O_R   0.500020 0.319100 0.386900 -0.633787
O3    O     O_R   0.316750 0.499980 0.613090 -0.605588
O4    O     O_R   0.316790 0.500020 0.386950 -0.612058
O5    O     O_R   0.499980 0.680900 0.613100 -0.629903
O6    O     O_R   0.500020 0.680940 0.386960 -0.617727
O7    O     O_R   0.683210 0.499980 0.613050 -0.617830
O8    O     O_R   0.683250 0.500020 0.386910 -0.620291
Zn1   Zn    Zn3+2 0.499970 0.499970 0.650990 0.964369
Zn2   Zn    Zn3+2 0.500030 0.500030 0.349010 0.944915
I1    I     I_    0.320228 0.068809 0.607955 -0.337332
C21   C     C_R   0.379484 0.465136 0.102989 0.262752
C22   C     C_R   0.345267 0.338736 0.105588 -0.165377
C23   C     C_R   0.224272 0.302030 0.067951 -0.147384
C24   C     C_R   0.135955 0.391567 0.029892 -0.115657
C25   C     C_R   0.168213 0.518040 0.030243 -0.134772
C26   C     C_R   0.289138 0.555117 0.067704 -0.122502
H12   H     H_    0.412835 0.268739 0.135414 0.151162
H13   H     H_    0.198827 0.204209 0.068797 0.177355
H14   H     H_    0.042245 0.363047 0.001135 0.147591
H15   H     H_    0.099236 0.587332 0.002289 0.163487
H16   H     H_    0.312563 0.653495 0.069742 0.156839
I2    I     I_    0.159134 0.882583 0.899294 -0.419136

loop_
_geom_bond_atom_site_label_1
_geom_bond_atom_site_label_2
_ccdc_geom_bond_type
O4    Zn2   S    
O6    Zn2   S    
C13   N2    D    
C23   H13   S    
C7    H9    S    
C2    C16   A    
C14   O5    A    
C5    H8    S    
N2    C21   S    
C9    C10   D    
C11   H2    S    
O3    Zn1   S    
C23   C24   A    
O1    Zn1   S    
C26   H16   S    
C8    H10   S    
H3    N1    S    
O7    Zn1   S    
C17   C18   A    
C6    C15   S    
C7    C8    D    
C21   C22   A    
C4    H1    S    
O8    Zn2   S    
C17   I2    S    
C15   O8    A    
C5    C6    A    
C21   C26   A    
C4    C5    A    
C24   C25   A    
C1    O1    A    
C2    C3    A    
C24   H14   S    
C15   O7    A    
C12   O3    A    
C1    C10   S    
C9    H11   S    
C2    C20   A    
C25   H15   S    
N2    Zn2   S    
O5    Zn1   S    
O2    Zn2   S    
C11   C13   S    
C6    C20   A    
C1    O2    A    
C25   C26   A    
C12   O4    A    
C16   H5    S    
C7    C9    S    
N1    Zn1   S    
C22   C23   A    
C18   C19   A    
C8    C14   S    
C3    C12   S    
C19   H7    S    
C14   O6    A    
C10   I1    S    
C22   H12   S    
C3    C4    A    
C19   C20   A    
C13   H4    S    
C16   C17   A    
C11   N1    D    
C18   H6    S    
