data_mof_unit_3762.cif
_audit_creation_date              2012-12-10T17:33:12-0500
_audit_creation_method            fapswitch 2.2
_symmetry_space_group_name_H-M    P1
_symmetry_Int_Tables_number       1
_space_group_crystal_system       triclinic
_cell_length_a                    12.024136
_cell_length_b                    12.801137
_cell_length_c                    13.590929
_cell_angle_alpha                 91.350365
_cell_angle_beta                  79.099499
_cell_angle_gamma                 93.808011
_cell_volume                      2049.54170396

loop_
_atom_site_label
_atom_site_type_symbol
_atom_type_description
_atom_site_fract_x
_atom_site_fract_y
_atom_site_fract_z
_atom_type_partial_charge
C1    C     C_R   0.522718 0.699878 0.497123 0.898472
C2    C     C_R   0.147521 0.457364 0.459938 -0.135170
C3    C     C_R   0.971198 0.536300 0.533697 -0.071649
C4    C     C_R   0.028923 0.463644 0.466191 -0.065056
C5    C     C_R   0.479718 0.500798 0.687052 0.888241
C6    C     C_R   0.520166 0.498597 0.313113 0.906620
C7    C     C_1   0.536251 0.499375 0.208580 -0.194227
C8    C     C_1   0.463264 0.497048 0.791839 -0.211771
C9    C     C_2   0.551287 0.504159 0.014948 0.391715
C10   C     C_2   0.451745 0.488598 0.984672 0.399187
C11   C     C_1   0.452970 0.492989 0.880260 -0.042709
C12   C     C_R   0.477097 0.299924 0.503299 0.891418
C13   C     C_1   0.547201 0.501014 0.120164 -0.091721
C14   C     C_R   0.461728 0.188718 0.502966 -0.162406
C15   C     C_R   0.535245 0.810452 0.504622 -0.115694
C16   C     C_R   0.558822 0.956347 0.614440 0.246481
C17   C     C_R   0.406550 0.035978 0.413679 0.249739
C18   C     C_R   0.571035 0.852024 0.589272 -0.339730
C19   C     C_R   0.403881 0.142308 0.432515 -0.328179
C20   C     C_R   0.487752 0.870766 0.441014 0.161766
C21   C     C_R   0.514614 0.130191 0.564472 0.138385
C22   C     C_3   0.268988 0.520883 0.061617 0.061257
C23   C     C_R   0.469419 0.975535 0.467091 -0.000584
C24   C     C_3   0.275669 0.591705 0.153127 -0.347253
C25   C     C_3   0.173583 0.658649 0.178556 -0.961007
C26   C     C_3   0.750691 0.511706 0.978645 0.102872
C27   C     C_3   0.800535 0.608472 0.027583 -0.330752
C28   C     C_3   0.912501 0.586806 0.058141 -0.990170
C29   C     C_3   0.692309 0.191547 0.617106 -0.729352
C30   C     C_3   0.557259 0.815477 0.269894 -0.800158
C31   C     C_3   0.483124 0.991397 0.788211 -0.758453
C32   C     C_3   0.232465 0.945467 0.387169 -0.773067
C33   C     C_3   0.198388 0.659977 0.730964 0.119822
C34   C     C_R   0.514182 0.021161 0.550033 0.006088
C35   C     C_3   0.195242 0.770995 0.775138 -0.322921
C36   C     C_3   0.182141 0.770427 0.888985 -1.020328
C37   C     C_3   0.781808 0.250869 0.355427 0.117371
C38   C     C_3   0.804222 0.200809 0.250928 -0.336225
C39   C     C_3   0.791310 0.081562 0.256840 -0.988129
C40   C     C_3   0.064922 0.241015 0.354933 -0.832232
C41   C     C_3   0.911368 0.659574 0.744640 -0.817122
C42   C     C_R   0.967380 0.401582 0.404537 0.040788
C43   C     C_R   0.034120 0.602860 0.590826 0.045193
C44   C     C_R   0.848214 0.410479 0.414806 0.556045
C45   C     C_R   0.152525 0.592028 0.582520 0.562951
C46   C     C_R   0.852655 0.542853 0.539816 -0.130187
H1    H     H_    0.360548 0.189905 0.388511 0.160047
H2    H     H_    0.182688 0.710335 0.243708 0.269892
H3    H     H_    0.094211 0.607935 0.198551 0.267773
H4    H     H_    0.812757 0.489981 0.911199 0.155497
H5    H     H_    0.739966 0.442462 0.028635 0.133919
H6    H     H_    0.815263 0.674324 0.973925 0.225141
H7    H     H_    0.739966 0.632736 0.095101 0.225189
H8    H     H_    0.898976 0.523580 0.114586 0.281630
H9    H     H_    0.947254 0.658857 0.091553 0.271609
H10   H     H_    0.975245 0.563229 0.991753 0.254676
H11   H     H_    0.531973 0.246484 0.673658 0.220049
H12   H     H_    0.601038 0.801189 0.640147 0.155269
H13   H     H_    0.724624 0.180519 0.687167 0.239505
H14   H     H_    0.722653 0.270833 0.588468 0.234007
H15   H     H_    0.728146 0.131977 0.561259 0.217263
H16   H     H_    0.405359 0.761071 0.358805 0.249489
H17   H     H_    0.527209 0.786666 0.201144 0.236746
H18   H     H_    0.614579 0.758379 0.290285 0.227674
H19   H     H_    0.604689 0.892373 0.253403 0.254412
H20   H     H_    0.648684 0.957176 0.730283 0.218115
H21   H     H_    0.507083 0.027036 0.857115 0.238351
H22   H     H_    0.448370 0.909702 0.804614 0.228688
H23   H     H_    0.194970 0.404177 0.408149 0.179333
H24   H     H_    0.416636 0.037707 0.766760 0.248788
H25   H     H_    0.340155 0.039398 0.283856 0.223704
H26   H     H_    0.192000 0.906302 0.327942 0.234269
H27   H     H_    0.177773 0.007505 0.423612 0.232139
H28   H     H_    0.239449 0.885993 0.443606 0.257698
H29   H     H_    0.269890 0.622835 0.753808 0.163927
H30   H     H_    0.120015 0.612461 0.764176 0.120342
H31   H     H_    0.275293 0.816638 0.743067 0.229469
H32   H     H_    0.123615 0.810578 0.754518 0.238283
H33   H     H_    0.102953 0.724862 0.922929 0.272943
H34   H     H_    0.806021 0.598393 0.589507 0.178899
H35   H     H_    0.177959 0.851978 0.918475 0.276172
H36   H     H_    0.256045 0.735742 0.910794 0.262909
H37   H     H_    0.694605 0.224199 0.391220 0.178838
H38   H     H_    0.838705 0.220387 0.402217 0.125988
H39   H     H_    0.742738 0.227973 0.206918 0.224746
H40   H     H_    0.891137 0.225299 0.211231 0.239061
H41   H     H_    0.854157 0.052176 0.298032 0.266406
H42   H     H_    0.805693 0.047212 0.180052 0.269365
H43   H     H_    0.704421 0.055937 0.295926 0.266927
H44   H     H_    0.083167 0.379576 0.272943 0.234008
H45   H     H_    0.186093 0.474660 0.075115 0.174910
H46   H     H_    0.032543 0.175058 0.311726 0.252904
H47   H     H_    0.035905 0.225441 0.436239 0.240485
H48   H     H_    0.159087 0.243090 0.337360 0.232475
H49   H     H_    0.948245 0.739433 0.608619 0.226936
H50   H     H_    0.939453 0.708831 0.804665 0.248123
H51   H     H_    0.915909 0.575923 0.762773 0.239192
H52   H     H_    0.821566 0.674664 0.744150 0.243195
H53   H     H_    0.270292 0.568906 0.993965 0.121923
H54   H     H_    0.278614 0.542620 0.218881 0.246733
H55   H     H_    0.354481 0.643876 0.137928 0.211470
H56   H     H_    0.167990 0.708214 0.113907 0.272533
N1    N     N_R   0.206090 0.519450 0.517820 -0.150841
N2    N     N_R   0.793910 0.480550 0.482180 -0.151728
N3    N     N_2   0.569236 0.181664 0.638855 -0.266814
N4    N     N_2   0.460863 0.826483 0.350188 -0.278033
N5    N     N_2   0.582168 0.992072 0.708909 -0.275711
N6    N     N_2   0.343482 0.990943 0.342717 -0.272901
N7    N     N_2   0.024951 0.338237 0.325777 -0.296333
N8    N     N_2   0.982685 0.687034 0.649056 -0.300378
O1    O     O_R   0.421240 0.658850 0.504760 -0.573862
O2    O     O_3   0.649673 0.534695 0.946377 -0.669522
O3    O     O_3   0.218691 0.666325 0.625129 -0.616789
O4    O     O_3   0.788639 0.361410 0.346732 -0.616367
O5    O     O_R   0.578760 0.341150 0.495240 -0.609602
O6    O     O_R   0.609960 0.646370 0.493320 -0.628372
O7    O     O_R   0.390040 0.353630 0.506680 -0.620753
O8    O     O_R   0.392060 0.507120 0.646890 -0.616954
O9    O     O_R   0.607940 0.492880 0.353110 -0.562090
O10   O     O_R   0.580780 0.494630 0.635450 -0.607761
O11   O     O_R   0.419220 0.505370 0.364550 -0.632953
O12   O     O_3   0.355259 0.449093 0.049483 -0.659502
Zn1   Zn    Zn3+2 0.373990 0.508340 0.507630 0.954159
Zn2   Zn    Zn3+2 0.626010 0.491660 0.492370 0.964916

loop_
_geom_bond_atom_site_label_1
_geom_bond_atom_site_label_2
_ccdc_geom_bond_type
C15   C18   A    
H11   N3    S    
C30   H18   S    
C35   C36   S    
C39   H41   S    
H20   N5    S    
N1    Zn1   S    
C44   N2    A    
C32   H26   S    
O9    Zn2   S    
C31   H21   S    
C3    C46   A    
C3    C43   A    
C26   C27   S    
C17   C23   A    
C38   H40   S    
C14   C21   A    
C42   N7    S    
C26   H4    S    
C32   H28   S    
C38   C39   S    
C33   C35   S    
C19   H1    S    
C25   H56   S    
C41   H50   S    
C22   H53   S    
C24   H55   S    
C9    C13   S    
C45   N1    A    
C16   N5    S    
C16   C34   A    
C37   O4    S    
C31   H24   S    
C29   H13   S    
C36   H36   S    
C22   H45   S    
C29   H14   S    
C37   H38   S    
C1    C15   S    
C1    O6    A    
C2    H23   S    
C9    C10   D    
C40   H47   S    
C12   O5    A    
C9    O2    S    
C44   O4    S    
C30   H17   S    
C30   N4    S    
C29   N3    S    
C15   C20   A    
C42   C44   A    
C39   H42   S    
C28   H9    S    
C33   H29   S    
C22   O12   S    
C20   N4    S    
C28   H10   S    
C31   H22   S    
C29   H15   S    
C38   H39   S    
O1    Zn1   S    
C24   C25   S    
C17   N6    S    
C32   H27   S    
C28   H8    S    
C21   C34   A    
C5    O10   A    
C46   N2    A    
C35   H31   S    
C2    C4    A    
C37   C38   S    
C33   H30   S    
C20   C23   A    
C36   H35   S    
C23   C34   A    
C40   H46   S    
C43   C45   A    
C25   H2    S    
C6    C7    S    
N2    Zn2   S    
C43   N8    S    
C12   C14   S    
C41   N8    S    
C41   H51   S    
C3    C4    A    
C26   O2    S    
C6    O9    A    
C27   H6    S    
O5    Zn2   S    
O6    Zn2   S    
C24   H54   S    
C31   N5    S    
C14   C19   A    
C40   H48   S    
C10   O12   S    
C36   H33   S    
C5    C8    S    
C27   H7    S    
C40   N7    S    
H16   N4    S    
C35   H32   S    
C33   O3    S    
H44   N7    S    
C5    O8    A    
O7    Zn1   S    
C26   H5    S    
C1    O1    A    
C46   H34   S    
C4    C42   A    
C2    N1    A    
C8    C11   T    
C17   C19   A    
C18   H12   S    
C22   C24   S    
O8    Zn1   S    
C25   H3    S    
O11   Zn1   S    
C30   H19   S    
C10   C11   S    
C12   O7    A    
C45   O3    S    
C7    C13   T    
H49   N8    S    
C16   C18   A    
C32   N6    S    
C27   C28   S    
C41   H52   S    
C37   H37   S    
C6    O11   A    
H25   N6    S    
C39   H43   S    
C21   N3    S    
O10   Zn2   S    
