data_mof_unit_2535.cif
_audit_creation_date              2012-12-10T17:42:38-0500
_audit_creation_method            fapswitch 2.2
_symmetry_space_group_name_H-M    P1
_symmetry_Int_Tables_number       1
_space_group_crystal_system       triclinic
_cell_length_a                    9.930773
_cell_length_b                    10.628651
_cell_length_c                    13.106764
_cell_angle_alpha                 92.222338
_cell_angle_beta                  69.54878
_cell_angle_gamma                 88.679808
_cell_volume                      1294.26652674

loop_
_atom_site_label
_atom_site_type_symbol
_atom_type_description
_atom_site_fract_x
_atom_site_fract_y
_atom_site_fract_z
_atom_type_partial_charge
C1    C     C_R   0.503113 0.738388 0.486519 0.919215
C2    C     C_R   0.436363 0.480906 0.982343 0.025023
C3    C     C_R   0.465589 0.439830 0.872950 -0.033810
C4    C     C_R   0.548659 0.471250 0.025159 0.072386
C5    C     C_R   0.681668 0.408434 0.963345 0.091945
C6    C     C_R   0.700376 0.352976 0.861325 -0.353331
C7    C     C_R   0.590810 0.362136 0.818447 0.537694
C8    C     C_R   0.531701 0.521073 0.128745 -0.205998
C9    C     C_R   0.764297 0.433426 0.115961 -0.211507
C10   C     C_R   0.368752 0.478163 0.821582 -0.127543
C11   C     C_R   0.237015 0.895380 0.491327 0.597530
C12   C     C_R   0.420238 0.491650 0.703749 0.935802
C13   C     C_R   0.106926 0.955361 0.556833 -0.219527
C14   C     C_R   0.106719 0.064982 0.618295 -0.273034
C15   C     C_R   0.236217 0.121067 0.606849 -0.135643
C16   C     C_R   0.368280 0.063689 0.537631 0.025557
C17   C     C_R   0.369608 0.941094 0.495752 -0.089904
C18   C     C_R   0.502569 0.870489 0.464812 -0.280520
C19   C     C_R   0.633709 0.931852 0.435285 0.503373
C20   C     C_R   0.630708 0.060147 0.454348 -0.310127
C21   C     C_R   0.499351 0.125738 0.505996 -0.180440
C22   C     C_R   0.791015 0.653677 0.667685 0.531304
C23   C     C_R   0.498737 0.260056 0.505441 0.925383
C24   C     C_R   0.828018 0.692545 0.758123 -0.424325
C25   C     C_R   0.971082 0.699007 0.748737 0.466478
C26   C     C_R   0.073423 0.643718 0.656424 -0.207320
C27   C     C_R   0.037072 0.571984 0.578278 -0.053364
C28   C     C_R   0.891382 0.573941 0.580422 0.068265
C29   C     C_R   0.964244 0.430241 0.425234 -0.246920
C30   C     C_R   0.107918 0.427427 0.426243 0.600275
C31   C     C_R   0.580416 0.501235 0.295721 0.833685
C32   C     C_R   0.790746 0.394505 0.007741 -0.161338
C33   C     C_R   0.631368 0.491718 0.177492 -0.066922
C34   C     C_R   0.229666 0.523279 0.884594 -0.180691
C35   C     C_R   0.191778 0.543589 0.996451 -0.137428
C36   C     C_R   0.294922 0.527090 0.044872 -0.166919
H1    H     H_    0.843455 0.411494 0.152920 0.148269
H2    H     H_    0.232418 0.209013 0.652469 0.152403
H3    H     H_    0.731445 0.108110 0.428550 0.185466
H4    H     H_    0.938600 0.375911 0.363451 0.143216
H5    H     H_    0.181694 0.658878 0.648472 0.235532
H6    H     H_    0.084050 0.578147 0.045087 0.150117
N1    N     N_R   0.856860 0.501200 0.500990 -0.102729
N2    N     N_R   0.142450 0.501280 0.501020 -0.116783
O1    O     O_R   0.385310 0.683220 0.500000 -0.604471
O2    O     O_R   0.614640 0.683250 0.500010 -0.504842
O3    O     O_R   0.328400 0.499950 0.653610 -0.677451
O4    O     O_R   0.557730 0.499970 0.653620 -0.518025
O5    O     O_R   0.385360 0.316750 0.499990 -0.600436
O6    O     O_R   0.614690 0.316780 0.500000 -0.593043
O7    O     O_R   0.442270 0.500030 0.346380 -0.545508
O8    O     O_R   0.671600 0.500050 0.346390 -0.637143
Zn1   Zn    Zn3+2 0.346880 0.499980 0.499990 0.993793
Zn2   Zn    Zn3+2 0.653120 0.500020 0.500010 1.022714
O9    O     O_3   0.229890 0.797610 0.420517 -0.585244
C37   C     C_3   0.296625 0.831930 0.311961 -0.312688
H7    H     H_    0.415587 0.828596 0.288302 0.145748
H8    H     H_    0.269077 0.762801 0.257479 0.181700
H9    H     H_    0.257181 0.926493 0.298219 0.142383
H10   H     H_    0.005854 0.917913 0.558252 0.164705
H11   H     H_    0.005922 0.110289 0.670066 0.159558
O10   O     O_3   0.659500 0.697201 0.666919 -0.550626
C38   C     C_3   0.639551 0.829686 0.687443 -0.284754
H12   H     H_    0.735413 0.880545 0.637808 0.168096
H13   H     H_    0.609913 0.856213 0.775464 0.133736
H14   H     H_    0.547025 0.862259 0.665486 0.173601
H15   H     H_    0.745087 0.729805 0.831782 0.171648
O11   O     O_3   0.016882 0.754240 0.828380 -0.606607
C39   C     C_3   0.937460 0.866785 0.875646 -0.317958
H16   H     H_    0.836008 0.845621 0.941881 0.160320
H17   H     H_    0.915203 0.925501 0.814293 0.157194
H18   H     H_    0.001872 0.923572 0.913194 0.187023
H19   H     H_    0.797388 0.297110 0.816622 0.158698
O12   O     O_3   0.217585 0.356771 0.348157 -0.578390
C40   C     C_3   0.179522 0.230245 0.342341 -0.330640
H20   H     H_    0.279687 0.170859 0.306298 0.192697
H21   H     H_    0.116180 0.218874 0.287775 0.151216
H22   H     H_    0.120005 0.194303 0.423994 0.171104
H23   H     H_    0.892425 0.346360 0.961217 0.131064
H24   H     H_    0.437111 0.576877 0.176392 0.144247
H25   H     H_    0.151977 0.546932 0.846958 0.195470
H26   H     H_    0.259327 0.547627 0.131627 0.142259
O13   O     O_3   0.603486 0.286924 0.726961 -0.589939
C41   C     C_3   0.533708 0.173899 0.761729 -0.391835
H27   H     H_    0.414934 0.190488 0.794056 0.163954
H28   H     H_    0.570305 0.128932 0.823465 0.158803
H29   H     H_    0.561116 0.105770 0.690893 0.198675
O14   O     O_3   0.765566 0.867119 0.394507 -0.586137
C42   C     C_3   0.794569 0.833313 0.283556 -0.286631
H30   H     H_    0.799530 0.918237 0.235404 0.141005
H31   H     H_    0.713861 0.768262 0.272687 0.136273
H32   H     H_    0.901209 0.782962 0.250469 0.191891

loop_
_geom_bond_atom_site_label_1
_geom_bond_atom_site_label_2
_ccdc_geom_bond_type
C7    O13   S    
O9    C37   S    
C38   H13   S    
C16   C21   A    
C35   C36   A    
C41   H29   S    
C31   O8    A    
C12   O4    A    
C13   H10   S    
O4    Zn2   S    
C1    C18   S    
O10   C38   S    
C41   H28   S    
C18   C19   A    
C3    C7    A    
C5    C6    A    
C30   O12   S    
C1    O2    A    
C23   O5    A    
C15   C16   A    
C37   H7    S    
C34   C35   A    
C39   H17   S    
C35   H6    S    
C9    C32   A    
C27   N2    A    
C19   C20   A    
C36   H26   S    
C16   C17   A    
C31   C33   S    
C34   H25   S    
C42   H31   S    
C24   H15   S    
C4    C8    A    
O3    Zn1   S    
C5    C32   A    
C38   H14   S    
O1    Zn1   S    
C22   C28   A    
C13   C14   A    
C29   N1    A    
C9    C33   A    
C30   N2    A    
C25   O11   S    
C12   O3    A    
N2    Zn1   S    
O8    Zn2   S    
O12   C40   S    
C24   C25   A    
C19   O14   S    
C20   H3    S    
O11   C39   S    
C23   O6    A    
C25   C26   A    
C14   H11   S    
O7    Zn1   S    
C39   H18   S    
C2    C4    A    
C40   H20   S    
C15   H2    S    
C29   C30   A    
C22   O10   S    
N1    Zn2   S    
O13   C41   S    
O2    Zn2   S    
C9    H1    S    
C17   C18   A    
C26   C27   A    
C10   C34   A    
O6    Zn2   S    
C41   H27   S    
C42   H32   S    
C40   H21   S    
C10   C12   S    
C21   C23   S    
C22   C24   A    
C11   O9    S    
C6    H19   S    
C2    C36   A    
C11   C17   A    
C20   C21   A    
C31   O7    A    
C4    C5    A    
C6    C7    A    
C28   N1    A    
C37   H9    S    
C2    C3    A    
C3    C10   A    
C32   H23   S    
C11   C13   A    
C1    O1    A    
O5    Zn1   S    
C29   H4    S    
C37   H8    S    
C8    C33   A    
C39   H16   S    
C40   H22   S    
C38   H12   S    
O14   C42   S    
C27   C28   A    
C8    H24   S    
C14   C15   A    
C42   H30   S    
C26   H5    S    
