data_mof_unit_2512.cif
_audit_creation_date              2012-12-10T18:12:34-0500
_audit_creation_method            fapswitch 2.2
_symmetry_space_group_name_H-M    P1
_symmetry_Int_Tables_number       1
_space_group_crystal_system       triclinic
_cell_length_a                    12.726587
_cell_length_b                    13.013028
_cell_length_c                    15.692347
_cell_angle_alpha                 93.096978
_cell_angle_beta                  103.244161
_cell_angle_gamma                 82.591059
_cell_volume                      2507.78243647

loop_
_atom_site_label
_atom_site_type_symbol
_atom_type_description
_atom_site_fract_x
_atom_site_fract_y
_atom_site_fract_z
_atom_type_partial_charge
C1    C     C_R   0.440310 0.690646 0.481983 0.844457
C2    C     C_3   0.505988 0.501002 0.918239 0.039801
C3    C     C_3   0.485072 0.407613 0.022561 -0.216051
C4    C     C_3   0.495659 0.504936 0.082978 0.069181
C5    C     C_3   0.582612 0.434736 0.989309 0.200427
C6    C     C_3   0.595309 0.530252 0.051236 0.157342
C7    C     C_1   0.508400 0.499690 0.827566 -0.054839
C8    C     C_1   0.491073 0.505349 0.172932 -0.009845
C9    C     C_R   0.732133 0.046374 0.511397 0.185639
C10   C     C_R   0.595638 0.197831 0.495950 -0.240893
C11   C     C_R   0.299519 0.842829 0.455015 -0.182061
C12   C     C_R   0.502127 0.499833 0.661976 0.897846
C13   C     C_R   0.270874 0.949114 0.446437 -0.153048
C14   C     C_R   0.348903 0.012733 0.441017 -0.155928
C15   C     C_R   0.455619 0.969914 0.436908 0.131641
C16   C     C_R   0.481739 0.861324 0.436887 0.078669
C17   C     C_R   0.541181 0.031869 0.445200 0.016143
C18   C     C_R   0.650299 0.985993 0.466828 0.025801
C19   C     C_R   0.671751 0.880398 0.447050 -0.219680
C20   C     C_R   0.586250 0.820355 0.425180 -0.179858
C21   C     C_R   0.522031 0.138661 0.440926 0.050989
C22   C     C_R   0.701248 0.150442 0.535424 0.146355
C23   C     C_R   0.560212 0.308131 0.506819 0.906538
C24   C     C_R   0.405917 0.798533 0.454610 -0.125762
C25   C     C_R   0.077600 0.400347 0.340069 0.131876
C26   C     C_R   0.807134 0.618262 0.615968 0.284446
C27   C     C_R   0.915820 0.638651 0.643517 0.078455
C28   C     C_R   0.991391 0.596162 0.596791 -0.240553
C29   C     C_R   0.962105 0.532827 0.522202 -0.037917
C30   C     C_R   0.851794 0.512054 0.495447 0.076711
C31   C     C_R   0.039865 0.488195 0.474129 -0.029438
C32   C     C_R   0.003210 0.442434 0.390511 0.081218
C33   C     C_R   0.893625 0.434141 0.360273 -0.246317
C34   C     C_R   0.497270 0.501512 0.338071 0.912987
C35   C     C_R   0.823631 0.448909 0.417722 0.218072
C36   C     C_R   0.153143 0.487263 0.505397 -0.056432
C37   C     C_R   0.187393 0.404192 0.374441 -0.040138
C38   C     C_3   0.416368 0.572946 0.012994 -0.201587
C39   C     C_3   0.515695 0.595771 0.979934 0.200375
C40   C     C_1   0.506790 0.499454 0.751840 -0.199118
C41   C     C_1   0.491629 0.504144 0.248321 -0.164163
C42   C     C_3   0.406880 0.475879 0.950730 -0.201209
H1    H     H_    0.239743 0.796063 0.466312 0.164232
H2    H     H_    0.326100 0.095440 0.444960 0.169432
H3    H     H_    0.189613 0.983119 0.449764 0.147556
H4    H     H_    0.605091 0.740630 0.405254 0.185695
H5    H     H_    0.245342 0.378072 0.335133 0.175269
H6    H     H_    0.867086 0.398416 0.296578 0.209215
H7    H     H_    0.188718 0.520725 0.567931 0.140871
H8    H     H_    0.348313 0.630187 0.024849 0.164928
H9    H     H_    0.072517 0.617243 0.618933 0.174403
H10   H     H_    0.472813 0.330165 0.042292 0.164760
H11   H     H_    0.330515 0.453597 0.907910 0.172377
H12   H     H_    0.753518 0.842650 0.451177 0.155521
N1    N     N_R   0.222180 0.444680 0.455580 -0.116772
N2    N     N_R   0.776980 0.554790 0.543960 -0.146194
O1    O     O_R   0.366730 0.627160 0.478790 -0.609800
O2    O     O_R   0.544830 0.662520 0.507160 -0.612172
O3    O     O_R   0.410960 0.482330 0.609040 -0.610950
O4    O     O_R   0.589060 0.517690 0.637410 -0.590661
O5    O     O_R   0.455170 0.337480 0.492840 -0.579059
O6    O     O_R   0.633270 0.372840 0.521210 -0.609680
O7    O     O_R   0.410940 0.482310 0.362590 -0.611293
O8    O     O_R   0.589040 0.517670 0.390960 -0.589266
Zn1   Zn    Zn3+2 0.381080 0.476390 0.481050 0.961665
Zn2   Zn    Zn3+2 0.618920 0.523610 0.518950 0.956039
N3    N     N_2   0.531762 0.696196 0.952936 -0.292273
H13   H     H_    0.488568 0.713853 0.890392 0.229124
C43   C     C_3   0.520202 0.780542 0.015205 -0.722297
H14   H     H_    0.545786 0.850979 0.992915 0.241771
H15   H     H_    0.572044 0.761232 0.080754 0.268609
H16   H     H_    0.433993 0.797591 0.020236 0.227500
I1    I     I_    0.412653 0.201192 0.325377 -0.446746
N4    N     N_2   0.043057 0.354492 0.255413 -0.302618
H17   H     H_    0.087182 0.370946 0.211329 0.245012
C44   C     C_3   0.034889 0.244701 0.256382 -0.783014
H18   H     H_    0.116637 0.201253 0.280508 0.255748
H19   H     H_    0.000619 0.216442 0.188956 0.249556
H20   H     H_    0.980262 0.229364 0.299029 0.238525
N5    N     N_2   0.726252 0.669926 0.657770 -0.260013
H21   H     H_    0.711936 0.748722 0.648279 0.215868
C45   C     C_3   0.731750 0.642593 0.747271 -0.640958
H22   H     H_    0.648569 0.653217 0.759478 0.228742
H23   H     H_    0.778798 0.695046 0.794656 0.246170
H24   H     H_    0.767491 0.560718 0.759659 0.245085
I2    I     I_    0.976945 0.731142 0.755355 -0.469194
N6    N     N_2   0.749590 0.374539 0.411760 -0.233118
H25   H     H_    0.779843 0.320102 0.458759 0.246115
C46   C     C_3   0.708025 0.323964 0.328163 -0.774002
H26   H     H_    0.635523 0.287169 0.332051 0.257186
H27   H     H_    0.770167 0.262229 0.312476 0.215836
H28   H     H_    0.684043 0.380686 0.274859 0.253561
I3    I     I_    0.743569 0.573188 0.132756 -0.395441
N7    N     N_2   0.671152 0.360325 0.972979 -0.285826
H29   H     H_    0.651398 0.320164 0.914197 0.228256
C47   C     C_3   0.723347 0.293135 0.044876 -0.740456
H30   H     H_    0.796928 0.247443 0.029560 0.243222
H31   H     H_    0.667126 0.238710 0.055038 0.226001
H32   H     H_    0.748749 0.338949 0.106188 0.265605
N8    N     N_2   0.770737 0.202413 0.604470 -0.296033
H33   H     H_    0.735089 0.257762 0.641944 0.228945
C48   C     C_3   0.880182 0.214780 0.597879 -0.725289
H34   H     H_    0.891433 0.298330 0.603598 0.218678
H35   H     H_    0.897564 0.183563 0.534588 0.238597
H36   H     H_    0.939409 0.174038 0.652359 0.255104
N9    N     N_2   0.841598 0.001148 0.540788 -0.311258
H37   H     H_    0.873341 0.956582 0.494251 0.215023
C49   C     C_3   0.864551 0.952874 0.624781 -0.708934
H38   H     H_    0.953306 0.928792 0.645571 0.257819
H39   H     H_    0.820606 0.883707 0.619994 0.236169
H40   H     H_    0.839778 0.008121 0.675102 0.263394

loop_
_geom_bond_atom_site_label_1
_geom_bond_atom_site_label_2
_ccdc_geom_bond_type
N6    H25   S    
O7    Zn1   S    
C3    C42   S    
C43   H16   S    
C19   C20   A    
C44   H20   S    
C4    C8    S    
C5    N7    S    
C10   C22   A    
C26   C27   A    
N4    C44   S    
C30   C35   A    
C28   C29   A    
C44   H19   S    
C38   C42   S    
C43   H14   S    
C42   H11   S    
C5    C6    S    
C28   H9    S    
C9    C22   A    
N9    H37   S    
C15   C16   A    
C47   H32   S    
C21   I1    S    
C11   C24   A    
C49   H38   S    
C48   H36   S    
C18   C19   A    
C43   H15   S    
C34   O7    A    
C25   C37   A    
C12   O3    A    
C35   N6    S    
C2    C39   S    
O2    Zn2   S    
C23   O6    A    
C2    C7    S    
C47   H31   S    
C7    C40   T    
C11   H1    S    
C46   H27   S    
C25   C32   A    
O4    Zn2   S    
C16   C24   A    
C13   C14   A    
C48   H34   S    
C34   C41   S    
C34   O8    A    
N1    Zn1   S    
C10   C21   A    
C25   N4    S    
C22   N8    S    
N4    H17   S    
O6    Zn2   S    
N3    H13   S    
C8    C41   T    
N5    C45   S    
C9    N9    S    
C30   N2    A    
C26   N5    S    
N3    C43   S    
C12   O4    A    
C12   C40   S    
C27   I2    S    
C48   H35   S    
C29   C30   A    
C1    O1    A    
C31   C32   A    
C14   C15   A    
C16   C20   A    
C6    I3    S    
C47   H30   S    
N8    C48   S    
C17   C18   A    
C44   H18   S    
C46   H28   S    
N7    C47   S    
C19   H12   S    
C4    C6    S    
C4    C38   S    
C45   H23   S    
N6    C46   S    
C2    C5    S    
C37   H5    S    
C3    C4    S    
C14   H2    S    
C15   C17   A    
C6    C39   S    
C39   N3    S    
O1    Zn1   S    
N5    H21   S    
C3    C5    S    
C26   N2    A    
C3    H10   S    
C38   H8    S    
C10   C23   S    
C45   H24   S    
C49   H40   S    
C32   C33   A    
C29   C31   A    
C36   N1    A    
C1    O2    A    
O3    Zn1   S    
C13   H3    S    
C11   C13   A    
C38   C39   S    
N9    C49   S    
C2    C42   S    
N2    Zn2   S    
N8    H33   S    
C33   C35   A    
C49   H39   S    
N7    H29   S    
C17   C21   A    
C37   N1    A    
O5    Zn1   S    
C9    C18   A    
C23   O5    A    
C1    C24   S    
C45   H22   S    
C27   C28   A    
C33   H6    S    
C31   C36   A    
C46   H26   S    
C20   H4    S    
C36   H7    S    
O8    Zn2   S    
