data_mof_unit_1269.cif
_audit_creation_date              2012-12-10T16:59:57-0500
_audit_creation_method            fapswitch 2.2
_symmetry_space_group_name_H-M    P1
_symmetry_Int_Tables_number       1
_space_group_crystal_system       triclinic
_cell_length_a                    23.462919
_cell_length_b                    10.951707
_cell_length_c                    9.728197
_cell_angle_alpha                 90.71285
_cell_angle_beta                  91.002388
_cell_angle_gamma                 89.537689
_cell_volume                      2499.09486674

loop_
_atom_site_label
_atom_site_type_symbol
_atom_type_description
_atom_site_fract_x
_atom_site_fract_y
_atom_site_fract_z
_atom_type_partial_charge
C1    C     C_R   0.499931 0.265403 0.498553 0.858929
C2    C     C_R   0.967094 0.416328 0.248094 -0.152377
C3    C     C_R   0.026424 0.416967 0.241854 0.199253
C4    C     C_R   0.059275 0.456245 0.358103 -0.083028
C5    C     C_R   0.030539 0.493229 0.479315 -0.038842
C6    C     C_R   0.062006 0.530396 0.596761 -0.053778
C7    C     C_R   0.033701 0.567002 0.716056 -0.145437
C8    C     C_R   0.974401 0.568521 0.721527 0.200094
C9    C     C_R   0.119548 0.461564 0.358986 0.650180
C10   C     C_R   0.121548 0.530799 0.592723 0.635001
C11   C     C_R   0.238243 0.620438 0.483189 0.360689
C12   C     C_R   0.391319 0.505343 0.499242 0.890478
C13   C     C_R   0.298118 0.621517 0.509665 0.284574
C14   C     C_R   0.329024 0.510055 0.496670 -0.179443
C15   C     C_R   0.300461 0.400005 0.474810 -0.247634
C16   C     C_R   0.241452 0.397913 0.468281 -0.116489
C17   C     C_R   0.210044 0.506733 0.472470 0.175464
C18   C     C_R   0.761741 0.393093 0.562542 0.413754
C19   C     C_R   0.701612 0.401119 0.571855 0.050547
C20   C     C_R   0.671476 0.495243 0.502377 -0.204255
C21   C     C_R   0.701434 0.583325 0.429001 0.137257
C22   C     C_R   0.760523 0.578183 0.425621 -0.169425
C23   C     C_R   0.503332 0.733876 0.501064 0.837484
C24   C     C_R   0.790867 0.484834 0.491204 0.148618
C25   C     C_2   0.497888 0.931264 0.398762 -0.278987
C26   C     C_2   0.516879 0.862509 0.503566 0.206546
C27   C     C_2   0.509473 0.060991 0.389112 0.481956
C28   C     C_2   0.494160 0.133842 0.495147 -0.341998
C29   C     C_2   0.455481 0.515116 0.923304 0.002097
C30   C     C_2   0.460165 0.546194 0.073445 0.243542
C31   C     C_R   0.608904 0.499057 0.500987 0.880415
C32   C     C_R   0.881306 0.529883 0.602287 0.649115
C33   C     C_R   0.879143 0.451952 0.371869 0.634355
C34   C     C_R   0.938734 0.453837 0.366999 -0.050120
C35   C     C_R   0.970245 0.492802 0.483742 -0.032052
C36   C     C_R   0.941562 0.531289 0.604486 -0.077348
Cu1   Cu    Cu3+1 0.500010 0.500020 0.638630 1.098286
Cu2   Cu    Cu3+1 0.499990 0.499980 0.361370 1.080703
H1    H     H_    0.942997 0.385802 0.158272 0.215663
H2    H     H_    0.783447 0.648066 0.372032 0.194036
H3    H     H_    0.472706 0.890935 0.315372 0.203454
H4    H     H_    0.474365 0.094067 0.584057 0.172808
H5    H     H_    0.413330 0.514157 0.876073 0.170276
H6    H     H_    0.521507 0.425868 0.111475 0.247987
H7    H     H_    0.057814 0.595637 0.806636 0.218896
H8    H     H_    0.324050 0.314799 0.466406 0.182534
H9    H     H_    0.219825 0.311148 0.458717 0.196545
N1    N     N_R   0.851964 0.488165 0.488576 -0.444172
N2    N     N_R   0.148877 0.499943 0.474298 -0.443370
N3    N     N_2   0.499380 0.498660 0.846910 -0.110807
N4    N     N_2   0.499370 0.498630 0.153040 -0.280897
O1    O     O_R   0.500010 0.321960 0.617040 -0.566494
O2    O     O_2   0.848414 0.413292 0.261307 -0.479751
O3    O     O_2   0.149078 0.431433 0.246026 -0.458411
O4    O     O_2   0.152163 0.561959 0.706457 -0.474066
O5    O     O_R   0.499990 0.321920 0.382900 -0.530389
O6    O     O_R   0.417890 0.499980 0.617100 -0.564411
O7    O     O_R   0.417870 0.499940 0.382950 -0.572347
O8    O     O_R   0.500010 0.678080 0.617100 -0.516911
O9    O     O_R   0.499990 0.678040 0.382960 -0.576012
O10   O     O_R   0.582130 0.500060 0.617050 -0.540065
O11   O     O_R   0.582110 0.500020 0.382900 -0.552373
O12   O     O_2   0.851657 0.568859 0.711811 -0.456578
I1    I     I_    0.655658 0.271257 0.689860 0.001523
I2    I     I_    0.660887 0.732388 0.327509 -0.093471
S1    S     S_3+6 0.567483 0.913396 0.629740 0.040847
O13   O     O_2   0.606870 0.004909 0.568978 -0.228719
O14   O     O_2   0.537013 0.970291 0.749413 -0.275674
O15   O     O_3   0.606450 0.793861 0.685685 -0.504831
H10   H     H_    0.633829 0.828980 0.753693 0.396137
S2    S     S_3+6 0.543222 0.109417 0.237722 0.077011
O16   O     O_2   0.500595 0.174965 0.147487 -0.284949
O17   O     O_2   0.591752 0.193295 0.274211 -0.249640
O18   O     O_3   0.568560 0.986831 0.151858 -0.473300
H11   H     H_    0.584887 0.019994 0.066974 0.402725
I3    I     I_    0.578942 0.564386 0.918322 -0.069939
I4    I     I_    0.400775 0.678414 0.142882 -0.124714
I5    I     I_    0.058756 0.353624 0.049677 -0.148723
I6    I     I_    0.942184 0.627932 0.915378 -0.152208
S3    S     S_3+6 0.198466 0.756980 0.451135 0.102305
O19   O     O_2   0.178182 0.809441 0.585338 -0.213948
O20   O     O_2   0.234818 0.848956 0.380961 -0.185212
O21   O     O_3   0.141527 0.728418 0.348693 -0.527913
H12   H     H_    0.118225 0.804181 0.351860 0.383678
S4    S     S_3+6 0.334168 0.757107 0.565976 0.060409
O22   O     O_2   0.362814 0.813326 0.445560 -0.296947
O23   O     O_2   0.293856 0.848697 0.628090 -0.174527
O24   O     O_3   0.383621 0.724117 0.687089 -0.535470
H13   H     H_    0.401623 0.803283 0.710977 0.380103
S5    S     S_3+6 0.799525 0.267972 0.638025 0.084313
O25   O     O_2   0.772382 0.150307 0.591462 -0.219699
O26   O     O_2   0.861251 0.263785 0.599604 -0.281318
O27   O     O_3   0.795193 0.280793 0.809963 -0.464272
H14   H     H_    0.813040 0.205092 0.845863 0.393151

loop_
_geom_bond_atom_site_label_1
_geom_bond_atom_site_label_2
_ccdc_geom_bond_type
S1    O14   D    
C30   N4    D    
O27   H14   S    
C31   O10   A    
C19   C20   A    
C7    C8    A    
S4    O22   D    
C23   O8    A    
C29   C30   S    
C18   C24   A    
C7    H7    S    
C1    O5    A    
C18   C19   A    
C5    C6    A    
S1    O15   S    
C15   C16   A    
C34   C35   A    
C8    C36   A    
C23   C26   S    
Cu2   O7    S    
C30   I4    S    
C2    H1    S    
C35   C36   A    
C16   C17   A    
C8    I6    S    
C12   O7    A    
C2    C34   A    
S1    O13   D    
C21   C22   A    
C29   H5    S    
C32   N1    A    
C31   O11   A    
C10   N2    A    
S3    O21   S    
C16   H9    S    
C29   N3    D    
S4    O23   D    
C33   O2    S    
C23   O9    A    
O18   H11   S    
C26   S1    S    
C9    N2    A    
S3    O20   D    
C25   H3    S    
S2    O17   D    
Cu1   O1    S    
S3    O19   D    
Cu2   N4    S    
C25   C26   D    
C18   S5    S    
Cu1   Cu2   S    
N3    I3    S    
C1    C28   S    
C24   N1    S    
S5    O26   D    
O21   H12   S    
C19   I1    S    
C22   H2    S    
C33   C34   A    
C20   C21   A    
C10   O4    S    
Cu1   O8    S    
Cu2   O9    S    
C12   O6    A    
H6    N4    S    
C12   C14   S    
C22   C24   A    
C17   N2    S    
C3    C4    A    
C32   C36   A    
C27   S2    S    
S5    O27   S    
S4    O24   S    
C11   C17   A    
C21   I2    S    
C32   O12   S    
C4    C5    A    
C6    C10   A    
S2    O18   S    
Cu1   O10   S    
C6    C7    A    
C25   C27   S    
C2    C3    A    
S2    O16   D    
Cu1   N3    S    
C11   C13   A    
S5    O25   D    
C5    C35   A    
C28   H4    S    
O15   H10   S    
C1    O1    A    
C11   S3    S    
Cu2   O5    S    
O24   H13   S    
C13   S4    S    
C27   C28   D    
C33   N1    A    
C14   C15   A    
C9    O3    S    
C15   H8    S    
C4    C9    A    
C13   C14   A    
C3    I5    S    
Cu1   O6    S    
Cu2   O11   S    
C20   C31   S    
