data_mof_unit_4139.cif
_audit_creation_date              2012-12-11T15:56:00-0500
_audit_creation_method            fapswitch 2.2
_symmetry_space_group_name_H-M    P1
_symmetry_Int_Tables_number       1
_space_group_crystal_system       triclinic
_cell_length_a                    11.108138
_cell_length_b                    11.053303
_cell_length_c                    18.818755
_cell_angle_alpha                 90.108822
_cell_angle_beta                  90.751794
_cell_angle_gamma                 59.819778
_cell_volume                      1997.19054119

loop_
_atom_site_label
_atom_site_type_symbol
_atom_type_description
_atom_site_fract_x
_atom_site_fract_y
_atom_site_fract_z
_atom_type_partial_charge
C1    C     C_R   0.359760 0.767678 0.396256 0.531529
C2    C     C_R   0.236197 0.408951 0.206363 -0.098410
C3    C     C_R   0.251474 0.421391 0.278677 -0.015425
C4    C     C_R   0.414408 0.378009 0.382977 0.552097
C5    C     C_R   0.926597 0.634637 0.427289 -0.033669
C6    C     C_R   0.938871 0.709923 0.370291 0.267933
C7    C     C_R   0.038352 0.637621 0.318117 -0.019532
C8    C     C_R   0.124659 0.491572 0.322352 -0.023113
C9    C     C_R   0.387157 0.368172 0.307736 0.044952
C10   C     C_R   0.854163 0.334617 0.181359 -0.060295
C11   C     C_R   0.883399 0.219388 0.224405 0.054924
C12   C     C_R   0.615617 0.206158 0.148148 -0.021379
C13   C     C_R   0.859859 0.234750 0.296617 -0.080622
C14   C     C_R   0.773119 0.483481 0.283882 0.210904
C15   C     C_R   0.791185 0.467481 0.210723 -0.152633
C16   C     C_R   0.770712 0.383630 0.401397 0.557412
C17   C     C_3   0.019418 0.087775 0.235622 0.280212
C18   C     C_3   0.992681 0.104194 0.314463 -0.202401
C19   C     C_R   0.810177 0.364852 0.327619 0.023299
C20   C     C_R   0.356779 0.838093 0.173962 0.049539
C21   C     C_R   0.374287 0.923632 0.222574 -0.073547
C22   C     C_R   0.371604 0.906534 0.294998 -0.026123
C23   C     C_R   0.353130 0.335850 0.162955 0.052354
C24   C     C_R   0.322951 0.720814 0.273464 -0.071497
C25   C     C_R   0.324116 0.739619 0.200357 0.392502
C26   C     C_3   0.484640 0.961054 0.228905 0.168139
C27   C     C_3   0.479207 0.946539 0.309346 0.159214
C28   C     C_R   0.345824 0.767168 0.604911 0.583441
C29   C     C_R   0.352329 0.800668 0.321573 -0.024964
C30   C     C_R   0.339273 0.335591 0.822483 -0.009854
C31   C     C_R   0.453369 0.231712 0.785272 0.037316
C32   C     C_R   0.471018 0.248363 0.715043 0.033133
C33   C     C_R   0.286664 0.486099 0.719238 -0.129778
C34   C     C_R   0.502038 0.311145 0.263260 -0.151250
C35   C     C_R   0.268276 0.469901 0.791973 -0.096181
C36   C     C_3   0.496713 0.081338 0.773786 0.197603
C37   C     C_3   0.506910 0.103524 0.695781 -0.070722
C38   C     C_R   0.384032 0.371290 0.679498 -0.010641
C39   C     C_R   0.849800 0.319139 0.828803 -0.052985
C40   C     C_R   0.406768 0.378735 0.604253 0.560882
C41   C     C_R   0.908446 0.379802 0.786979 -0.019455
C42   C     C_R   0.897936 0.384219 0.714042 -0.044751
C43   C     C_R   0.795236 0.236785 0.720354 0.299752
C44   C     C_R   0.795389 0.243499 0.794680 0.221270
C45   C     C_R   0.488811 0.285794 0.191935 -0.041802
C46   C     C_3   0.886971 0.523616 0.792445 0.632185
C47   C     C_3   0.881987 0.528226 0.712172 0.490597
C48   C     C_R   0.829687 0.323632 0.679371 -0.024764
C49   C     C_R   0.310753 0.825779 0.828801 -0.064110
C50   C     C_R   0.210838 0.813317 0.788637 -0.178272
C51   C     C_R   0.219348 0.805212 0.715186 -0.053037
C52   C     C_R   0.765700 0.374336 0.609569 0.544332
C53   C     C_R   0.426660 0.819112 0.718684 0.325590
C54   C     C_R   0.426569 0.814202 0.792999 0.383215
C55   C     C_3   0.056832 0.911154 0.784731 0.221576
C56   C     C_R   0.104338 0.416920 0.376588 -0.089089
C57   C     C_3   0.069050 0.903890 0.704730 0.772756
C58   C     C_R   0.324648 0.810551 0.679045 -0.021486
C59   C     C_R   0.913758 0.313686 0.111960 0.539247
C60   C     C_R   0.327479 0.293760 0.092825 0.570687
C61   C     C_R   0.309896 0.895137 0.103492 0.585322
C62   C     C_R   0.884081 0.309126 0.904194 0.556806
C63   C     C_R   0.300176 0.292182 0.887960 0.555507
C64   C     C_R   0.800567 0.035271 0.042383 0.187306
C65   C     C_R   0.275790 0.892775 0.898548 0.572906
C66   C     C_R   0.709958 0.178362 0.029991 -0.025304
C67   C     C_R   0.009304 0.488864 0.430171 -0.078882
C68   C     C_R   0.622247 0.265076 0.082570 0.207053
C69   C     C_R   0.718851 0.064074 0.163594 0.223069
C70   C     C_R   0.808154 0.981187 0.109928 0.071040
Cr1   Cr    Cr6+3 0.601740 0.606840 0.505840 1.075537
Cr2   Cr    Cr6+3 0.291500 0.601560 0.495070 1.061436
Cr3   Cr    Cr6+3 0.606780 0.291630 0.499130 1.042484
Cr4   Cr    Cr6+3 0.062440 0.063060 0.008240 1.089889
Cr5   Cr    Cr6+3 0.062950 0.375000 0.998920 1.105085
Cr6   Cr    Cr6+3 0.374550 0.061770 0.992470 1.059857
F1    F     F_    0.018193 0.971929 0.208939 -0.593544
F2    F     F_    0.286931 0.666975 0.155745 -0.623476
F3    F     F_    0.763194 0.613634 0.825396 -0.548377
F4    F     F_    0.517451 0.845989 0.685186 -0.592593
F5    F     F_    0.529995 0.817518 0.829801 -0.527100
F6    F     F_    0.000857 0.843850 0.670684 -0.573662
F7    F     F_    0.048266 0.025404 0.672585 -0.674637
H1    H     H_    0.603662 0.280245 0.285397 0.130900
H2    H     H_    0.450069 0.068234 0.209624 0.152438
H3    H     H_    0.576244 0.865191 0.335564 0.205568
H4    H     H_    0.219434 0.583807 0.692841 0.191454
H5    H     H_    0.195120 0.558977 0.822321 0.181975
H6    H     H_    0.414117 0.057116 0.786878 0.154641
H7    H     H_    0.613016 0.038522 0.674130 0.265526
H8    H     H_    0.000319 0.431442 0.474350 0.148489
H9    H     H_    0.422764 0.102725 0.663401 0.142131
H10   H     H_    0.025116 0.014630 0.808059 0.140632
H11   H     H_    0.707707 0.224675 0.979838 0.131048
H12   H     H_    0.852682 0.688448 0.469143 0.124560
H13   H     H_    0.170271 0.304423 0.380659 0.150787
H14   H     H_    0.131748 0.447365 0.185333 0.145985
H15   H     H_    0.793094 0.888365 0.405606 0.320132
H16   H     H_    0.748054 0.668931 0.281419 0.365668
H17   H     H_    0.603323 0.877750 0.148137 0.342772
H18   H     H_    0.414945 0.057676 0.394098 0.335013
H19   H     H_    0.616357 0.990931 0.855698 0.381745
H20   H     H_    0.807320 0.109219 0.646377 0.395503
H21   H     H_    0.682714 0.240138 0.868560 0.301505
H22   H     H_    0.964948 0.625439 0.836055 0.374980
H23   H     H_    0.052950 0.696089 0.276291 0.194745
H24   H     H_    0.682786 0.615436 0.702440 0.352131
H25   H     H_    0.980973 0.622556 0.685732 0.397963
H26   H     H_    0.860845 0.999275 0.944842 0.354136
H27   H     H_    0.003930 0.831441 0.860876 0.343538
H28   H     H_    0.508956 0.458243 0.111660 0.368763
H29   H     H_    0.664267 0.059252 0.261635 0.360097
H30   H     H_    0.765761 0.557838 0.177800 0.177359
H31   H     H_    0.108404 0.098781 0.218474 0.093267
H32   H     H_    0.974505 0.022608 0.337872 0.231905
H33   H     H_    0.067638 0.124303 0.344606 0.080607
H34   H     H_    0.300563 0.642563 0.292628 0.130934
H35   H     H_    0.882929 0.872098 0.120698 0.207585
O1    O     O_R   0.748670 0.497520 0.427970 -0.470861
O2    O     O_R   0.417470 0.174910 0.067830 -0.540153
O3    O     O_R   0.375160 0.946380 0.070880 -0.534902
O4    O     O_R   0.476470 0.723930 0.429450 -0.486266
O5    O     O_R   0.160500 0.919670 0.926690 -0.513409
O6    O     O_R   0.933140 0.190380 0.936050 -0.529169
O7    O     O_R   0.909010 0.403210 0.925030 -0.426490
O8    O     O_R   0.179590 0.361290 0.918480 -0.445575
O9    O     O_R   0.391360 0.170840 0.907510 -0.546074
O10   O     O_R   0.350950 0.942600 0.922260 -0.438740
O11   O     O_3   0.166650 0.166610 0.999880 -0.302896
O12   O     O_R   0.300170 0.471020 0.567120 -0.477299
O13   O     O_R   0.264730 0.744140 0.416740 -0.518469
O14   O     O_R   0.309440 0.472410 0.418220 -0.503226
O15   O     O_R   0.501630 0.260530 0.414310 -0.477107
O16   O     O_R   0.727920 0.305730 0.428950 -0.518639
O17   O     O_R   0.738670 0.496020 0.588600 -0.475887
O18   O     O_R   0.467190 0.722540 0.578350 -0.453142
O19   O     O_R   0.254720 0.742640 0.577370 -0.480225
O20   O     O_3   0.858338 0.853546 0.365229 -0.664495
O21   O     O_3   0.723487 0.613743 0.313227 -0.682335
O22   O     O_3   0.609334 0.856815 0.199708 -0.711885
O23   O     O_R   0.491630 0.259030 0.574940 -0.508130
O24   O     O_3   0.420957 0.076393 0.343095 -0.734941
O25   O     O_3   0.628670 0.990754 0.803643 -0.492276
O26   O     O_3   0.754505 0.149297 0.690370 -0.610537
O27   O     O_3   0.743047 0.174153 0.831975 -0.630216
O28   O     O_3   0.999837 0.526691 0.822544 -0.668434
O29   O     O_3   0.755094 0.636262 0.686110 -0.524658
O30   O     O_3   0.996298 0.526552 0.680583 -0.648581
O31   O     O_3   0.885174 0.946756 0.990320 -0.676418
O32   O     O_3   0.982033 0.849041 0.809426 -0.610961
O33   O     O_3   0.540175 0.405603 0.066651 -0.673740
O34   O     O_R   0.718640 0.304340 0.577850 -0.512641
O35   O     O_3   0.738994 0.999806 0.228962 -0.602584
O36   O     O_3   0.500010 0.500010 0.500020 -0.330979
O37   O     O_R   0.186620 0.923750 0.087000 -0.401379
O38   O     O_R   0.957350 0.194160 0.084660 -0.488704
O39   O     O_R   0.935120 0.407280 0.085350 -0.520304
O40   O     O_R   0.203800 0.365060 0.067090 -0.496285

loop_
_geom_bond_atom_site_label_1
_geom_bond_atom_site_label_2
_ccdc_geom_bond_type
C36   H6    S    
C66   C68   A    
C12   C69   A    
C23   C45   A    
C22   C29   A    
C59   O39   A    
C41   C42   A    
Cr1   O4    S    
Cr4   O6    S    
C21   C26   S    
C16   O16   A    
H20   O26   S    
C8    C56   A    
C62   O6    A    
C7    C8    A    
C4    O14   A    
Cr3   O23   S    
C53   C54   A    
C12   C68   A    
C24   H34   S    
Cr6   O2    S    
C49   C65   S    
C13   C18   S    
H15   O20   S    
Cr6   O3    S    
C36   C37   S    
C36   O25   S    
C60   O40   A    
C26   O22   S    
C10   C15   A    
C31   C36   S    
Cr1   O17   S    
C5    C6    A    
C20   C25   A    
C49   C54   A    
C57   F6    S    
C27   O24   S    
C61   O3    A    
C35   H5    S    
C20   C61   S    
C1    O4    A    
Cr3   O16   S    
H17   O22   S    
C24   C29   A    
C46   F3    S    
C2    H14   S    
Cr3   O36   S    
C41   C46   S    
C57   F7    S    
C51   C57   S    
C64   C70   A    
C43   C48   A    
C5    C67   A    
C66   H11   S    
Cr5   O39   S    
Cr4   O5    S    
C21   C22   A    
H16   O21   S    
C43   O26   S    
C34   H1    S    
C61   O37   A    
C67   H8    S    
C5    H12   S    
C17   H31   S    
Cr2   O14   S    
C55   O32   S    
C23   C60   S    
C47   O29   S    
Cr2   O36   S    
C13   C19   A    
C25   F2    S    
C65   O10   A    
C53   F4    S    
C24   C25   A    
C39   C41   A    
C3    C8    S    
C16   O1    A    
C18   H33   S    
Cr1   O18   S    
C51   C58   A    
C14   C19   A    
C1    O13   A    
Cr1   O36   S    
C69   O35   S    
Cr5   O7    S    
C64   C66   A    
C6    O20   S    
C27   H3    S    
H26   O31   S    
C43   C44   A    
C3    C9    A    
C40   O23   A    
H24   O29   S    
Cr6   O11   S    
C31   C32   A    
C47   O30   S    
C30   C31   A    
C53   C58   A    
C17   F1    S    
C50   C51   A    
C26   C27   S    
C7    H23   S    
Cr4   O38   S    
C34   C45   A    
C42   C48   A    
C32   C37   S    
C20   C21   A    
C6    C7    A    
C37   H7    S    
Cr5   O40   S    
Cr2   O19   S    
Cr3   O15   S    
C32   C38   A    
H29   O35   S    
C55   C57   S    
Cr3   O34   S    
C9    C34   A    
Cr6   O10   S    
H19   O25   S    
C52   O17   A    
Cr2   O13   S    
C56   H13   S    
C39   C62   S    
C40   O12   A    
C46   C47   S    
C11   C17   S    
C37   H9    S    
C15   H30   S    
C28   O18   A    
H21   O27   S    
C26   H2    S    
C28   O19   A    
C50   C55   S    
C12   C45   S    
H27   O32   S    
H28   O33   S    
C18   H32   S    
C62   O7    A    
C59   O38   A    
Cr2   O12   S    
C39   C44   A    
C28   C58   S    
C56   C67   A    
C30   C35   A    
C33   C38   A    
C17   C18   S    
Cr1   O1    S    
C64   O31   S    
C22   C27   S    
Cr5   O8    S    
C52   O34   A    
C2    C3    A    
C33   H4    S    
C68   O33   S    
C38   C40   S    
C11   C13   A    
C1    C29   S    
C46   O28   S    
C70   H35   S    
C16   C19   S    
H22   O28   S    
C33   C35   A    
Cr4   O37   S    
C60   O2    A    
C42   C47   S    
C65   O5    A    
C69   C70   A    
C63   O8    A    
C10   C11   A    
C44   O27   S    
C48   C52   S    
C14   O21   S    
C49   C50   A    
Cr4   O11   S    
C2    C23   A    
Cr6   O9    S    
C14   C15   A    
C4    C9    S    
C30   C63   S    
C10   C59   S    
C55   H10   S    
C54   F5    S    
C63   O9    A    
Cr5   O11   S    
C4    O15   A    
H25   O30   S    
H18   O24   S    
