data_mof_unit_4876.cif
_audit_creation_date              2012-12-10T20:44:43-0500
_audit_creation_method            fapswitch 2.2
_symmetry_space_group_name_H-M    P1
_symmetry_Int_Tables_number       1
_space_group_crystal_system       triclinic
_cell_length_a                    9.846529
_cell_length_b                    10.685981
_cell_length_c                    16.904836
_cell_angle_alpha                 89.54738
_cell_angle_beta                  94.762014
_cell_angle_gamma                 90.194946
_cell_volume                      1772.52184322

loop_
_atom_site_label
_atom_site_type_symbol
_atom_type_description
_atom_site_fract_x
_atom_site_fract_y
_atom_site_fract_z
_atom_type_partial_charge
C1    C     C_R   0.500231 0.259944 0.502417 0.884856
C2    C     C_R   0.502673 0.128509 0.514596 -0.061945
C3    C     C_R   0.384000 0.063902 0.531054 -0.222864
C4    C     C_R   0.518008 0.501551 0.653162 0.859981
C5    C     C_R   0.384310 0.934478 0.530849 -0.234917
C6    C     C_R   0.503174 0.871428 0.513924 -0.063245
C7    C     C_R   0.625473 0.936919 0.511786 0.054397
C8    C     C_3   0.733550 0.932219 0.454399 0.324732
C9    C     C_3   0.731976 0.074679 0.454994 -0.555961
C10   C     C_R   0.075120 0.399750 0.529754 0.218079
C11   C     C_R   0.067138 0.593101 0.463604 -0.146682
C12   C     C_R   0.655699 0.508697 0.782453 -0.218223
C13   C     C_R   0.923029 0.592934 0.463530 -0.149844
C14   C     C_R   0.932467 0.399767 0.529708 0.218928
C15   C     C_3   0.938050 0.350174 0.612518 -0.516171
C16   C     C_R   0.500507 0.740096 0.502103 0.925134
C17   C     C_3   0.092327 0.350251 0.612664 -0.511887
C18   C     C_R   0.482001 0.501919 0.346826 0.888250
C19   C     C_R   0.529135 0.518785 0.738422 -0.024983
C20   C     C_R   0.413087 0.552713 0.775690 -0.236795
C21   C     C_R   0.422351 0.572403 0.856540 -0.162471
C22   C     C_R   0.548206 0.556568 0.901488 0.327234
C23   C     C_R   0.581358 0.502071 0.139448 -0.159649
C24   C     C_R   0.664840 0.527809 0.863806 -0.196048
C25   C     C_3   0.784188 0.884369 0.326955 0.102414
C26   C     C_3   0.744666 0.795417 0.259103 -0.806900
C27   C     C_R   0.586889 0.486262 0.220680 -0.253203
C28   C     C_R   0.459220 0.541212 0.097275 0.330311
C29   C     C_R   0.471271 0.509375 0.260996 -0.021828
C30   C     C_R   0.348536 0.545161 0.219100 -0.213288
C31   C     C_R   0.342822 0.560576 0.137288 -0.199244
C32   C     C_R   0.625087 0.064489 0.512500 0.046971
H1    H     H_    0.682133 0.456903 0.251927 0.160583
H2    H     H_    0.143009 0.418275 0.654985 0.217489
H3    H     H_    0.672346 0.482697 0.109884 0.147849
H4    H     H_    0.136787 0.254728 0.615645 0.193642
H5    H     H_    0.761930 0.515865 0.898076 0.136845
H6    H     H_    0.746819 0.484457 0.754408 0.152126
H7    H     H_    0.258135 0.563302 0.249535 0.158640
H8    H     H_    0.330530 0.597020 0.883857 0.147083
H9    H     H_    0.248029 0.588449 0.104951 0.136921
H10   H     H_    0.314945 0.564329 0.742517 0.158241
H11   H     H_    0.289578 0.112327 0.538675 0.159759
H12   H     H_    0.290075 0.884956 0.538588 0.164625
H13   H     H_    0.885953 0.855089 0.354623 0.106669
H14   H     H_    0.792492 0.980569 0.302243 0.149179
H15   H     H_    0.821515 0.800172 0.214669 0.200584
H16   H     H_    0.740394 0.698214 0.282388 0.257219
H17   H     H_    0.643330 0.821053 0.229790 0.265441
H18   H     H_    0.828988 0.888663 0.481827 0.055298
H19   H     H_    0.828235 0.115790 0.482542 0.165701
H20   H     H_    0.692774 0.118676 0.397781 0.213839
H21   H     H_    0.117730 0.669425 0.435476 0.145598
H22   H     H_    0.864657 0.668591 0.435259 0.163960
H23   H     H_    0.899694 0.418270 0.654644 0.212065
H24   H     H_    0.893530 0.254662 0.615290 0.199841
N1    N     N_2   0.559499 0.557637 0.984974 -0.210556
N2    N     N_2   0.447575 0.553860 0.014124 -0.209289
N3    N     N_R   0.142860 0.499130 0.500540 -0.104369
N4    N     N_R   0.857210 0.499170 0.500530 -0.106353
O1    O     O_R   0.614690 0.316790 0.499990 -0.614594
O2    O     O_R   0.385350 0.316760 0.500000 -0.624145
O3    O     O_R   0.627460 0.498860 0.616130 -0.626258
O4    O     O_R   0.398120 0.498820 0.616130 -0.625596
O5    O     O_R   0.614650 0.683240 0.500000 -0.608227
O6    O     O_R   0.385310 0.683210 0.500010 -0.637724
O7    O     O_R   0.601880 0.501180 0.383870 -0.617850
O8    O     O_R   0.372540 0.501140 0.383870 -0.620735
O9    O     O_3   0.682375 0.880664 0.381094 -0.582483
Zn1   Zn    Zn3+2 0.653130 0.500020 0.499990 0.952135
Zn2   Zn    Zn3+2 0.346870 0.499980 0.500010 0.941707

loop_
_geom_bond_atom_site_label_1
_geom_bond_atom_site_label_2
_ccdc_geom_bond_type
O1    Zn1   S    
C30   H7    S    
C1    O1    A    
C20   H10   S    
C6    C7    A    
C16   O5    A    
C17   H4    S    
C26   H16   S    
C27   C29   A    
C14   N4    A    
C4    O4    A    
C23   H3    S    
C19   C20   A    
C11   H21   S    
O3    Zn1   S    
N4    Zn1   S    
C30   C31   A    
C10   N3    A    
O7    Zn1   S    
C1    O2    A    
C22   N1    S    
C2    C3    A    
N1    N2    D    
C7    C8    S    
C18   C29   S    
C21   C22   A    
C27   H1    S    
C11   C13   A    
C4    O3    A    
C3    H11   S    
C8    O9    S    
C29   C30   A    
C9    H20   S    
C26   H15   S    
O8    Zn2   S    
C11   N3    A    
C12   C19   A    
C13   H22   S    
C21   H8    S    
C5    H12   S    
O2    Zn2   S    
C24   H5    S    
C8    H18   S    
C28   N2    S    
C23   C27   A    
C12   H6    S    
C5    C6    A    
C15   H24   S    
C22   C24   A    
C26   H17   S    
C16   O6    A    
C17   H2    S    
C10   C17   S    
C18   O8    A    
O5    Zn1   S    
C25   H13   S    
C25   O9    S    
C20   C21   A    
C2    C32   A    
C1    C2    S    
C10   C14   A    
O4    Zn2   S    
C25   C26   S    
C15   C17   S    
C12   C24   A    
C14   C15   S    
C7    C32   A    
C31   H9    S    
C9    C32   S    
N3    Zn2   S    
C18   O7    A    
C23   C28   A    
C4    C19   S    
C6    C16   S    
C25   H14   S    
C28   C31   A    
C13   N4    A    
O6    Zn2   S    
C15   H23   S    
C8    C9    S    
C3    C5    A    
C9    H19   S    
