data_mof_unit_163.cif
_audit_creation_date              2012-12-10T19:59:19-0500
_audit_creation_method            fapswitch 2.2
_symmetry_space_group_name_H-M    P1
_symmetry_Int_Tables_number       1
_space_group_crystal_system       triclinic
_cell_length_a                    14.979059
_cell_length_b                    14.148097
_cell_length_c                    10.663596
_cell_angle_alpha                 89.917545
_cell_angle_beta                  89.931339
_cell_angle_gamma                 89.967069
_cell_volume                      2259.8801647

loop_
_atom_site_label
_atom_site_type_symbol
_atom_type_description
_atom_site_fract_x
_atom_site_fract_y
_atom_site_fract_z
_atom_type_partial_charge
C1    C     C_R   0.327737 0.500056 0.500752 0.892866
C2    C     C_R   0.551418 0.104582 0.586862 0.338782
C3    C     C_R   0.448470 0.204980 0.415982 -0.128748
C4    C     C_R   0.551340 0.204252 0.583805 -0.119889
C5    C     C_R   0.499783 0.053306 0.499233 -0.119071
C6    C     C_R   0.580169 0.895330 0.496366 -0.228486
C7    C     C_R   0.419612 0.895321 0.501906 -0.231437
C8    C     C_R   0.578805 0.795928 0.496942 -0.025389
C9    C     C_R   0.421126 0.795918 0.502459 -0.020232
C10   C     C_R   0.499850 0.946785 0.498831 0.193096
C11   C     C_R   0.497000 0.500085 0.259773 0.882282
C12   C     C_R   0.672277 0.500010 0.499911 0.897992
C13   C     C_R   0.497146 0.499997 0.740249 0.882459
C14   C     C_R   0.482252 0.586076 0.063755 0.131943
C15   C     C_R   0.482390 0.586006 0.935922 0.135902
C16   C     C_R   0.481950 0.500628 0.128608 -0.104362
C17   C     C_R   0.482204 0.500498 0.871482 -0.104715
C18   C     C_R   0.464056 0.415993 0.065066 -0.229237
C19   C     C_R   0.464223 0.415925 0.935428 -0.233345
C20   C     C_3   0.545928 0.667357 0.928536 -0.483150
C21   C     C_3   0.545761 0.667436 0.070714 -0.478693
C22   C     C_R   0.093443 0.576580 0.454670 -0.276418
C23   C     C_R   0.186884 0.425454 0.562159 -0.309794
C24   C     C_R   0.905302 0.576042 0.557920 -0.276927
C25   C     C_R   0.185497 0.576611 0.452624 -0.197987
C26   C     C_R   0.813262 0.576383 0.554721 -0.200596
C27   C     C_R   0.232004 0.500443 0.504673 -0.093967
C28   C     C_R   0.768073 0.500245 0.500660 -0.097065
C29   C     C_3   0.033292 0.376653 0.751459 0.065131
C30   C     C_3   0.975093 0.300757 0.810868 -0.779138
C31   C     C_3   0.970995 0.373342 0.266326 0.064538
C32   C     C_3   0.032426 0.298400 0.211487 -0.776830
C33   C     C_3   0.437371 0.061422 0.207642 0.111145
C34   C     C_R   0.814620 0.424559 0.447398 -0.312987
C35   C     C_3   0.383139 0.003231 0.115255 -0.828473
C36   C     C_3   0.555581 0.045487 0.784625 0.105538
C37   C     C_3   0.609803 0.984918 0.874654 -0.823573
C38   C     C_R   0.094517 0.426704 0.568491 0.556936
C39   C     C_R   0.907101 0.425432 0.446418 0.556744
C40   C     C_R   0.048102 0.501232 0.510558 0.010152
C41   C     C_R   0.952026 0.500379 0.505352 0.014878
C42   C     C_R   0.448293 0.105201 0.411949 0.343840
H1    H     H_    0.456518 0.349435 0.114345 0.162396
H2    H     H_    0.940228 0.634084 0.602338 0.161410
H3    H     H_    0.220250 0.634808 0.407975 0.158612
H4    H     H_    0.777429 0.634965 0.596595 0.157191
H5    H     H_    0.223084 0.367071 0.604043 0.171664
H6    H     H_    0.779517 0.365979 0.404502 0.172299
H7    H     H_    0.643683 0.931729 0.492822 0.171634
H8    H     H_    0.356052 0.931708 0.505359 0.171232
H9    H     H_    0.997200 0.445349 0.759338 0.134605
H10   H     H_    0.097131 0.380859 0.804631 0.132714
H11   H     H_    0.010185 0.231603 0.808868 0.257369
H12   H     H_    0.456820 0.349339 0.886472 0.166773
H13   H     H_    0.960204 0.319650 0.909716 0.191375
H14   H     H_    0.911215 0.294672 0.758675 0.265608
H15   H     H_    0.005055 0.443065 0.256826 0.134446
H16   H     H_    0.907866 0.374376 0.211262 0.132438
H17   H     H_    0.048148 0.315855 0.112367 0.191853
H18   H     H_    0.095687 0.295581 0.265648 0.264977
H19   H     H_    0.999535 0.228118 0.215227 0.257832
H20   H     H_    0.505908 0.030775 0.212403 0.136484
H21   H     H_    0.441171 0.135250 0.171630 0.124926
H22   H     H_    0.313986 0.031245 0.109424 0.261109
H23   H     H_    0.641276 0.757788 0.494598 0.135312
H24   H     H_    0.414087 0.006869 0.020740 0.193320
H25   H     H_    0.380898 0.928264 0.146218 0.255952
H26   H     H_    0.542270 0.114961 0.830013 0.128958
H27   H     H_    0.490992 0.008681 0.766908 0.136362
H28   H     H_    0.674629 0.019668 0.895084 0.259599
H29   H     H_    0.572676 0.975316 0.963906 0.198179
H30   H     H_    0.622484 0.914405 0.832490 0.257432
H31   H     H_    0.407564 0.244674 0.350978 0.155592
H32   H     H_    0.592037 0.243252 0.649601 0.162375
H33   H     H_    0.358707 0.757767 0.505147 0.136045
H34   H     H_    0.611533 0.647507 0.887246 0.200955
H35   H     H_    0.514126 0.731510 0.111579 0.209503
H36   H     H_    0.514429 0.731407 0.887258 0.209755
H37   H     H_    0.611272 0.647642 0.112191 0.201959
H38   H     H_    0.057413 0.634198 0.410702 0.161898
N1    N     N_R   0.500000 0.252470 0.500000 -0.132039
N2    N     N_R   0.500000 0.747550 0.500000 -0.088347
O1    O     O_R   0.369060 0.579480 0.500010 -0.637001
O2    O     O_3   0.953275 0.351050 0.392995 -0.574968
O3    O     O_3   0.395183 0.058633 0.326035 -0.603542
O4    O     O_3   0.604622 0.057936 0.672711 -0.602862
O5    O     O_R   0.630940 0.579480 0.499990 -0.637296
O6    O     O_R   0.369050 0.420520 0.500010 -0.616688
O7    O     O_R   0.630950 0.420520 0.499990 -0.611826
O8    O     O_R   0.499990 0.579490 0.316780 -0.613848
O9    O     O_R   0.500010 0.579490 0.683220 -0.614232
O10   O     O_R   0.499980 0.420540 0.316780 -0.627191
O11   O     O_R   0.500020 0.420540 0.683220 -0.627908
O12   O     O_3   0.049836 0.352599 0.625136 -0.575094
Zn1   Zn    Zn3+2 0.500000 0.606140 0.500000 0.938359
Zn2   Zn    Zn3+2 0.500000 0.393860 0.500000 0.938624

loop_
_geom_bond_atom_site_label_1
_geom_bond_atom_site_label_2
_ccdc_geom_bond_type
C7    C10   A    
C5    C42   A    
O6    Zn2   S    
C3    C42   A    
O8    Zn1   S    
C39   C41   A    
C12   C28   S    
C8    N2    A    
C31   H16   S    
C36   C37   S    
C24   C26   A    
C39   O2    S    
C29   O12   S    
O10   Zn2   S    
C20   H34   S    
C7    C9    A    
C18   C19   A    
C33   O3    S    
C33   C35   S    
C11   O10   A    
C4    N1    A    
C33   H20   S    
C22   C25   A    
O5    Zn1   S    
C3    N1    A    
C35   H22   S    
C23   C27   A    
C4    H32   S    
C9    N2    A    
C1    O6    A    
C22   C40   A    
C8    H23   S    
C37   H28   S    
C13   O9    A    
C24   C41   A    
C21   H37   S    
C15   C20   S    
C30   H11   S    
C23   H5    S    
C34   C39   A    
C12   O7    A    
N1    Zn2   S    
C6    C8    A    
C35   H24   S    
C36   O4    S    
C30   H14   S    
C31   O2    S    
C13   O11   A    
C2    C4    A    
C29   C30   S    
C11   C16   S    
C31   C32   S    
C35   H25   S    
C33   H21   S    
O1    Zn1   S    
C38   O12   S    
C42   O3    S    
C19   H12   S    
C40   C41   S    
O11   Zn2   S    
C37   H29   S    
C24   H2    S    
C14   C16   A    
C2    C5    A    
C1    O1    A    
C32   H18   S    
C25   H3    S    
C36   H27   S    
C14   C21   S    
C29   H9    S    
C15   C17   A    
N2    Zn1   S    
C12   O5    A    
C7    H8    S    
C6    C10   A    
C36   H26   S    
C13   C17   S    
C25   C27   A    
C23   C38   A    
C30   H13   S    
C26   C28   A    
C20   H36   S    
C31   H15   S    
O7    Zn2   S    
C22   H38   S    
C5    C10   S    
C18   H1    S    
C38   C40   A    
C11   O8    A    
C32   H19   S    
C17   C19   A    
C2    O4    S    
C28   C34   A    
C6    H7    S    
C3    H31   S    
C26   H4    S    
O9    Zn1   S    
C34   H6    S    
C20   C21   S    
C16   C18   A    
C37   H30   S    
C21   H35   S    
C1    C27   S    
C14   C15   A    
C9    H33   S    
C32   H17   S    
C29   H10   S    
