data_mof_unit_1285.cif
_audit_creation_date              2012-12-10T17:03:38-0500
_audit_creation_method            fapswitch 2.2
_symmetry_space_group_name_H-M    P1
_symmetry_Int_Tables_number       1
_space_group_crystal_system       triclinic
_cell_length_a                    10.090228
_cell_length_b                    10.813082
_cell_length_c                    13.311113
_cell_angle_alpha                 90.087213
_cell_angle_beta                  72.141326
_cell_angle_gamma                 88.241614
_cell_volume                      1381.6070749

loop_
_atom_site_label
_atom_site_type_symbol
_atom_type_description
_atom_site_fract_x
_atom_site_fract_y
_atom_site_fract_z
_atom_type_partial_charge
C1    C     C_R   0.498139 0.736957 0.500171 0.938097
C2    C     C_R   0.386775 0.454297 0.814128 -0.110819
C3    C     C_2   0.616912 0.057826 0.496586 -0.026097
C4    C     C_R   0.425836 0.486313 0.701677 0.889239
C5    C     C_2   0.501578 0.131540 0.515566 -0.389665
C6    C     C_2   0.600998 0.927312 0.514540 -0.184860
C7    C     C_2   0.497256 0.868328 0.495257 -0.318916
C8    C     C_2   0.107986 0.495101 0.416852 -0.154082
C9    C     C_2   0.963929 0.457008 0.424635 -0.051280
C10   C     C_R   0.502156 0.262631 0.500854 0.954206
C11   C     C_R   0.575197 0.506447 0.297731 0.890126
C12   C     C_R   0.443748 0.461763 0.978671 0.062300
C13   C     C_R   0.769530 0.584601 0.013742 -0.041148
C14   C     C_R   0.614973 0.520832 0.183701 -0.119365
C15   C     C_R   0.247135 0.436223 0.869587 -0.179324
C16   C     C_R   0.204039 0.428860 0.979322 0.032697
C17   C     C_R   0.300317 0.450087 0.034142 -0.215911
C18   C     C_1   0.815719 0.649668 0.179043 0.329970
C19   C     C_2   0.958988 0.359909 0.346540 1.021480
C20   C     C_1   0.867151 0.598296 0.560917 0.335731
C21   C     C_2   0.890776 0.656253 0.951104 0.905684
C22   C     C_2   0.057255 0.402973 0.035635 0.935223
C23   C     C_R   0.487531 0.448147 0.868579 0.043392
C24   C     C_2   0.683114 0.325502 0.741429 1.015580
C25   C     C_2   0.762972 0.095834 0.455037 0.978435
C26   C     C_R   0.546103 0.489971 0.027466 0.084080
C27   C     C_R   0.681002 0.524722 0.965261 0.049355
C28   C     C_R   0.725421 0.486961 0.859251 -0.242508
C29   C     C_R   0.631898 0.429624 0.817408 -0.080018
C30   C     C_R   0.520388 0.479541 0.134967 -0.247888
C31   C     C_R   0.733236 0.584568 0.125131 -0.098030
H1    H     H_    0.398664 0.093997 0.547467 0.173447
H2    H     H_    0.848241 0.264065 0.272069 0.361647
H3    H     H_    0.990875 0.817372 0.933334 0.360483
H4    H     H_    0.877657 0.330238 0.030208 0.348272
H5    H     H_    0.638405 0.159923 0.691257 0.370007
H6    H     H_    0.926748 0.170603 0.486387 0.350731
H7    H     H_    0.683500 0.877628 0.536180 0.188533
H8    H     H_    0.416770 0.914887 0.469380 0.164950
H9    H     H_    0.184335 0.504234 0.339727 0.186402
H10   H     H_    0.078648 0.471123 0.568825 0.204335
H11   H     H_    0.834347 0.484352 0.814120 0.228659
H12   H     H_    0.428695 0.433446 0.181469 0.174650
H13   H     H_    0.171316 0.430012 0.827333 0.225810
H14   H     H_    0.261111 0.457746 0.119066 0.176842
N1    N     N_2   0.148270 0.498670 0.498870 -0.192116
N2    N     N_2   0.852610 0.498640 0.498840 -0.155141
N3    N     N_1   0.881388 0.701604 0.222212 -0.140937
N4    N     N_1   0.878575 0.681023 0.612606 -0.212445
O1    O     O_R   0.386950 0.680940 0.500020 -0.601509
O2    O     O_R   0.834448 0.324576 0.332957 -0.732810
O3    O     O_2   0.978794 0.609754 0.874822 -0.652838
O4    O     O_R   0.904385 0.778094 0.980955 -0.778613
O5    O     O_2   0.007373 0.431209 0.128572 -0.655477
O6    O     O_R   0.975420 0.345313 0.982586 -0.789617
O7    O     O_2   0.806460 0.314699 0.690570 -0.613251
O8    O     O_R   0.590383 0.234948 0.733980 -0.805798
O9    O     O_2   0.835694 0.055169 0.369464 -0.605876
O10   O     O_R   0.822223 0.164330 0.518128 -0.764684
O11   O     O_R   0.613110 0.680900 0.499980 -0.627635
O12   O     O_R   0.330780 0.500000 0.653640 -0.603997
O13   O     O_R   0.556930 0.499960 0.653610 -0.635964
O14   O     O_R   0.386890 0.319100 0.500020 -0.608268
O15   O     O_R   0.613050 0.319060 0.499980 -0.542718
O16   O     O_R   0.443070 0.500040 0.346390 -0.630170
O17   O     O_R   0.669220 0.500000 0.346360 -0.570309
O18   O     O_2   0.067510 0.307611 0.293930 -0.625167
Zn1   Zn    Zn3+2 0.349000 0.500030 0.500020 0.997620
Zn2   Zn    Zn3+2 0.651000 0.499970 0.499980 1.027269

loop_
_geom_bond_atom_site_label_1
_geom_bond_atom_site_label_2
_ccdc_geom_bond_type
C12   C17   A    
C2    C4    S    
H10   N1    S    
C6    H7    S    
N1    Zn1   S    
C22   O6    S    
C19   O2    S    
C24   O7    D    
C8    H9    S    
C1    O1    A    
C10   O15   A    
C10   O14   A    
C12   C23   A    
C11   O17   A    
C14   C31   A    
O16   Zn1   S    
C3    C6    S    
C13   C21   S    
C5    C10   S    
C22   O5    D    
H6    O10   S    
O15   Zn2   S    
C19   O18   D    
C2    C15   A    
O12   Zn1   S    
C26   C27   A    
C20   N4    T    
O11   Zn2   S    
C14   C30   A    
C24   C29   S    
C21   O4    S    
C28   H11   S    
C28   C29   A    
C17   H14   S    
C15   H13   S    
C26   C30   A    
C6    C7    D    
C21   O3    D    
C23   C29   A    
C11   C14   S    
C8    N1    D    
C30   H12   S    
O17   Zn2   S    
H2    O2    S    
C25   O9    D    
H4    O6    S    
C15   C16   A    
C20   N2    S    
C16   C17   A    
C4    O13   A    
C3    C25   S    
O13   Zn2   S    
H3    O4    S    
H5    O8    S    
C24   O8    S    
C1    O11   A    
C2    C23   A    
C7    H8    S    
O14   Zn1   S    
C13   C27   A    
C16   C22   S    
C18   C31   S    
C25   O10   S    
C3    C5    D    
C9    N2    D    
C1    C7    S    
O1    Zn1   S    
C4    O12   A    
C13   C31   A    
C5    H1    S    
N2    Zn2   S    
C11   O16   A    
C9    C19   S    
C12   C26   A    
C8    C9    S    
C27   C28   A    
C18   N3    T    
