data_mof_unit_942.cif
_audit_creation_date              2012-12-11T14:49:56-0500
_audit_creation_method            fapswitch 2.2
_symmetry_space_group_name_H-M    P1
_symmetry_Int_Tables_number       1
_space_group_crystal_system       triclinic
_cell_length_a                    16.960597
_cell_length_b                    16.677783
_cell_length_c                    19.41762
_cell_angle_alpha                 117.406695
_cell_angle_beta                  62.22804
_cell_angle_gamma                 100.664582
_cell_volume                      4311.38246623

loop_
_atom_site_label
_atom_site_type_symbol
_atom_type_description
_atom_site_fract_x
_atom_site_fract_y
_atom_site_fract_z
_atom_type_partial_charge
C1    C     C_R   0.031497 0.761292 0.019486 -0.099269
C2    C     C_R   0.251191 0.519261 0.828107 -0.082102
C3    C     C_R   0.183639 0.493277 0.089447 0.045470
C4    C     C_R   0.762849 0.420988 0.164818 -0.148246
C5    C     C_R   0.982150 0.342729 0.762119 -0.125838
C6    C     C_R   0.256045 0.547392 0.068545 -0.019955
C7    C     C_R   0.926381 0.270923 0.766765 0.056975
C8    C     C_R   0.257695 0.453802 0.747866 0.076749
C9    C     C_R   0.018723 0.221433 0.010053 0.076394
C10   C     C_R   0.850954 0.130921 0.717713 -0.137824
C11   C     C_R   0.881579 0.212299 0.711326 -0.009091
C12   C     C_R   0.763905 0.441264 0.241892 0.084828
C13   C     C_R   0.878529 0.228170 0.646611 -0.232898
C14   C     C_R   0.865688 0.153411 0.577357 0.028156
C15   C     C_R   0.859553 0.066588 0.575864 0.051338
C16   C     C_R   0.806556 0.555519 0.954340 -0.099292
C17   C     C_R   0.841085 0.056838 0.650302 0.058892
C18   C     C_R   0.868300 0.158591 0.504814 -0.098421
C19   C     C_R   0.891917 0.080468 0.426494 -0.243883
C20   C     C_R   0.903552 0.997039 0.421781 0.112106
C21   C     C_R   0.880541 0.989168 0.497913 0.039353
C22   C     C_R   0.885649 0.904319 0.494958 0.121242
C23   C     C_R   0.724595 0.543875 0.013357 0.051263
C24   C     C_R   0.855156 0.894373 0.570722 -0.250586
C25   C     C_R   0.828945 0.970195 0.649903 -0.109019
C26   C     C_R   0.937198 0.920972 0.342619 -0.160719
C27   C     C_R   0.952226 0.839237 0.339622 0.139267
C28   C     C_R   0.964795 0.672304 0.250267 -0.163836
C29   C     C_R   0.923672 0.830788 0.416058 -0.243377
C30   C     C_R   0.424476 0.411157 0.669067 -0.127972
C31   C     C_R   0.339623 0.405661 0.669159 0.049083
C32   C     C_R   0.334065 0.364347 0.590317 -0.232701
C33   C     C_R   0.409582 0.348409 0.513682 0.134901
C34   C     C_R   0.988264 0.758801 0.258184 0.016216
C35   C     C_R   0.493315 0.370685 0.514706 0.036791
C36   C     C_R   0.502527 0.397056 0.591036 0.014135
C37   C     C_R   0.400931 0.319441 0.437445 -0.187910
C38   C     C_R   0.473397 0.321282 0.364316 -0.201434
C39   C     C_R   0.555036 0.351531 0.366870 0.138226
C40   C     C_R   0.737861 0.481773 0.036546 -0.126385
C41   C     C_R   0.566675 0.371758 0.440401 0.044964
C42   C     C_R   0.649643 0.399913 0.441853 0.130344
C43   C     C_R   0.661450 0.415620 0.513652 -0.195089
C44   C     C_R   0.589085 0.412574 0.586992 -0.109035
C45   C     C_R   0.247840 0.572836 0.013930 -0.110854
C46   C     C_R   0.622663 0.368683 0.299746 -0.254510
C47   C     C_R   0.701775 0.406892 0.305112 0.112059
C48   C     C_R   0.717281 0.417021 0.373764 -0.266412
C49   C     C_R   0.640633 0.587282 0.042246 0.123970
C50   C     C_R   0.324752 0.581380 0.100781 0.125728
C51   C     C_R   0.401522 0.574671 0.176715 -0.219646
C52   C     C_R   0.045706 0.751661 0.175308 -0.102587
C53   C     C_R   0.323112 0.568992 0.168401 -0.168487
C54   C     C_R   0.399170 0.620453 0.056245 -0.237054
C55   C     C_R   0.477012 0.626719 0.064203 0.168399
C56   C     C_R   0.913572 0.267053 0.840782 -0.116992
C57   C     C_R   0.480355 0.596147 0.119496 0.184979
C58   C     C_R   0.562957 0.578211 0.109400 -0.269690
C59   C     C_R   0.636035 0.631146 0.997241 -0.155869
C60   C     C_R   0.554247 0.651325 0.008662 -0.189267
C61   C     C_R   0.826008 0.188808 0.161533 0.113593
C62   C     C_R   0.948122 0.866278 0.009096 0.126097
C63   C     C_R   0.873275 0.956011 0.985337 -0.209229
C64   C     C_R   0.840181 0.489429 0.241517 -0.133039
C65   C     C_R   0.911491 0.873936 0.960489 -0.156197
C66   C     C_R   0.947567 0.943493 0.082369 -0.266243
C67   C     C_R   0.171777 0.446728 0.753247 -0.119231
C68   C     C_R   0.908753 0.025998 0.108097 0.175594
C69   C     C_R   0.870410 0.032017 0.059610 0.178368
C70   C     C_R   0.828870 0.113688 0.087059 -0.274983
C71   C     C_R   0.864596 0.183284 0.209008 -0.142642
C72   C     C_R   0.905819 0.102245 0.182629 -0.209747
C73   C     C_R   0.957889 0.692155 0.939523 -0.128679
C74   C     C_R   0.979823 0.776889 0.988266 0.031778
C75   C     C_R   0.158333 0.454666 0.151266 0.079510
C76   C     C_R   0.214721 0.389006 0.134052 -0.184135
C77   C     C_R   0.189804 0.349594 0.190824 -0.119068
C78   C     C_R   0.044551 0.305694 0.055846 -0.123345
C79   C     C_R   0.108339 0.374812 0.264603 -0.065733
C80   C     C_R   0.051843 0.439746 0.281904 -0.123670
C81   C     C_R   0.076732 0.479611 0.225514 -0.165423
C82   C     C_2   0.897859 0.319111 0.647692 1.054785
C83   C     C_2   0.840037 0.240314 0.508830 1.058381
C84   C     C_2   0.792779 0.956859 0.729878 0.998223
C85   C     C_2   0.430147 0.429627 0.749076 0.967737
C86   C     C_2   0.119425 0.812274 0.154102 0.946372
C87   C     C_R   0.967728 0.238875 0.979232 -0.115225
H1    H     H_    0.065253 0.812215 0.053744 0.118134
H2    H     H_    0.900520 0.084395 0.369177 0.159539
H3    H     H_    0.952818 0.925660 0.283757 0.126763
H4    H     H_    0.932849 0.767385 0.414644 0.125891
H5    H     H_    0.853242 0.827549 0.567825 0.169676
H6    H     H_    0.270440 0.352975 0.587946 0.128634
H7    H     H_    0.336837 0.300906 0.435944 0.142210
H8    H     H_    0.464250 0.303936 0.307479 0.134829
H9    H     H_    0.609834 0.358465 0.246760 0.118029
H10   H     H_    0.820168 0.593156 0.918046 0.102360
H11   H     H_    0.779541 0.442647 0.376955 0.117527
H12   H     H_    0.863036 0.230770 0.873862 0.096161
H13   H     H_    0.725798 0.434002 0.514546 0.142665
H14   H     H_    0.601641 0.426903 0.641086 0.191381
H15   H     H_    0.566016 0.549281 0.147923 0.122847
H16   H     H_    0.694528 0.643589 0.947986 0.129171
H17   H     H_    0.401761 0.556118 0.223270 0.135601
H18   H     H_    0.551957 0.677749 0.967963 0.148024
H19   H     H_    0.263625 0.551205 0.212524 0.151453
H20   H     H_    0.401885 0.635932 0.006990 0.134736
H21   H     H_    0.798654 0.119599 0.051171 0.125199
H22   H     H_    0.922299 0.651135 0.300529 0.107206
H23   H     H_    0.150216 0.401309 0.704651 0.106616
H24   H     H_    0.862149 0.241909 0.266504 0.139634
H25   H     H_    0.844707 0.959644 0.947171 0.143531
H26   H     H_    0.934789 0.099005 0.220656 0.145853
H27   H     H_    0.911319 0.816285 0.903570 0.130445
H28   H     H_    0.974147 0.939009 0.121568 0.118869
H29   H     H_    0.688436 0.454820 0.079899 0.099605
H30   H     H_    0.868500 0.505013 0.285674 0.082603
H31   H     H_    0.927531 0.678627 0.897602 0.099361
H32   H     H_    0.282370 0.625596 0.994790 0.146038
H33   H     H_    0.277548 0.368220 0.076580 0.135999
H34   H     H_    0.079847 0.315643 0.092446 0.138137
H35   H     H_    0.233410 0.299131 0.177357 0.125830
H36   H     H_    0.088908 0.343920 0.308260 0.139076
H37   H     H_    0.988622 0.459020 0.338885 0.115024
H38   H     H_    0.032413 0.529425 0.239704 0.116773
H39   H     H_    0.796948 0.380481 0.766176 0.294924
H40   H     H_    0.855009 0.315191 0.446507 0.312740
H41   H     H_    0.710148 0.002407 0.856935 0.321157
H42   H     H_    0.387025 0.399248 0.849954 0.326157
H43   H     H_    0.237393 0.827729 0.064557 0.326337
H44   H     H_    0.933188 0.189682 0.943779 0.100741
H45   H     H_    0.303727 0.545255 0.848061 0.117823
H46   H     H_    0.001082 0.372282 0.717862 0.131285
H47   H     H_    0.850199 0.119209 0.768023 0.132958
H48   H     H_    0.722321 0.372199 0.136718 0.090943
N1    N     N_R   0.036080 0.671900 0.995420 -0.035893
N2    N     N_R   0.867430 0.509300 0.948100 -0.040888
N3    N     N_R   0.003360 0.617250 0.167070 -0.052851
N4    N     N_R   0.825450 0.461270 0.995400 -0.044124
N5    N     N_R   0.045340 0.665280 0.119770 -0.050291
N6    N     N_R   0.883740 0.497640 0.167070 -0.040790
N7    N     N_R   0.987050 0.628910 0.948110 -0.045006
N8    N     N_R   0.174550 0.538730 0.004600 -0.043081
N9    N     N_R   0.954660 0.334720 0.880230 -0.042073
N10   N     N_R   0.116260 0.502360 0.832930 -0.047946
N11   N     N_R   0.012950 0.371090 0.051890 -0.045092
N12   N     N_R   0.963920 0.328100 0.004580 -0.044300
N13   N     N_R   0.165290 0.545350 0.880240 -0.041652
N14   N     N_R   0.132570 0.490700 0.051900 -0.059173
N15   N     N_R   0.996640 0.382750 0.832930 -0.044794
N16   N     N_R   0.834710 0.454650 0.119760 -0.039681
Ni1   Ni    Ni4+2 0.104370 0.604370 0.000010 0.265353
Ni2   Ni    Ni4+2 0.895630 0.395630 0.999990 0.210748
Ni3   Ni    Ni4+2 0.991920 0.505780 0.891500 0.239954
Ni4   Ni    Ni4+2 0.008080 0.494220 0.108500 0.213216
O1    O     O_2   0.960278 0.328185 0.586424 -0.614380
O2    O     O_R   0.190005 0.781305 0.071340 -0.826320
O3    O     O_R   0.847088 0.395514 0.719185 -0.756289
O4    O     O_2   0.778379 0.289487 0.573980 -0.647955
O5    O     O_R   0.881029 0.258604 0.436454 -0.808315
O6    O     O_2   0.815880 0.890006 0.727523 -0.644301
O7    O     O_R   0.729923 0.019170 0.807401 -0.810832
O8    O     O_2   0.474818 0.490985 0.776721 -0.662754
O9    O     O_R   0.380136 0.379098 0.795226 -0.784969
O10   O     O_2   0.121258 0.887240 0.209142 -0.641444

loop_
_geom_bond_atom_site_label_1
_geom_bond_atom_site_label_2
_ccdc_geom_bond_type
N3    Ni4   S    
C61   C70   A    
C66   C68   A    
C63   C65   A    
C6    C45   A    
C27   C29   A    
C41   C42   A    
C14   C18   A    
C16   N2    A    
C75   C76   A    
C3    C6    A    
C39   C41   A    
C40   H29   S    
C7    C11   S    
N2    N4    A    
C55   C60   A    
C26   C27   A    
C76   H33   S    
C87   N12   A    
C54   H20   S    
H43   O2    S    
C1    C74   A    
C22   C29   A    
C30   C31   A    
C12   C64   A    
C16   H10   S    
C23   C49   S    
C64   N6    A    
N4    Ni2   S    
C10   C17   A    
C2    N13   A    
C23   C40   A    
C40   N4    A    
N9    Ni2   S    
C18   C19   A    
C65   H27   S    
C5    N15   A    
C87   H44   S    
C63   H25   S    
C78   H34   S    
N9    N15   A    
C77   H35   S    
C33   C35   A    
N11   Ni4   S    
C53   H19   S    
C83   O5    S    
C63   C69   A    
N6    Ni4   S    
C68   C69   A    
C71   H24   S    
C38   H8    S    
C67   N10   A    
C25   C84   S    
C2    H45   S    
C51   C57   A    
C4    C12   A    
C1    N1    A    
C3    C75   S    
N5    Ni1   S    
C82   O1    D    
C61   C71   A    
C1    H1    S    
C77   C79   A    
C32   H6    S    
C28   C34   A    
C59   C60   A    
C21   C22   A    
C86   O10   D    
C7    C56   A    
C12   C47   S    
C35   C41   A    
C24   H5    S    
N1    Ni1   S    
C73   N7    A    
H39   O3    S    
C27   C34   S    
C3    N14   A    
C50   C53   A    
C66   H28   S    
C62   C66   A    
N13   Ni1   S    
C28   N3    A    
C76   C77   A    
C5    C7    A    
C75   C81   A    
C42   C48   A    
C51   H17   S    
C79   H36   S    
C13   C82   S    
C33   C37   A    
C64   H30   S    
H42   O9    S    
C51   C53   A    
C35   C36   A    
C5    H46   S    
C43   C44   A    
C37   C38   A    
C19   H2    S    
C67   H23   S    
C47   C48   A    
N8    N14   A    
C68   C72   A    
H41   O7    S    
C18   C83   S    
C83   O4    D    
C84   O6    D    
C50   C54   A    
C24   C25   A    
C30   C85   S    
N1    N7    A    
C39   C46   A    
C58   H15   S    
N10   Ni3   S    
N8    Ni1   S    
C16   C23   A    
C4    H48   S    
C85   O8    D    
C22   C24   A    
C36   C44   A    
C42   C43   A    
C73   C74   A    
C29   H4    S    
N10   N13   A    
C84   O7    S    
N6    N16   A    
N11   N12   A    
C80   H37   S    
C15   C17   A    
C4    N16   A    
C54   C55   A    
C73   H31   S    
C6    C50   S    
C62   C65   A    
C81   H38   S    
C8    C31   S    
C31   C32   A    
C2    C8    A    
C10   H47   S    
C80   C81   A    
C44   H14   S    
N3    N5    A    
C28   H22   S    
C26   H3    S    
C48   H11   S    
C34   C52   A    
C49   C59   A    
C49   C58   A    
C30   C36   A    
C17   C25   A    
C32   C33   A    
C19   C20   A    
C55   C57   A    
N14   Ni4   S    
C59   H16   S    
C71   C72   A    
C43   H13   S    
C9    C87   A    
C11   C13   A    
C45   H32   S    
C57   C58   A    
C38   C39   A    
C20   C26   A    
C82   O3    S    
C72   H26   S    
C52   C86   S    
C52   N5    A    
C37   H7    S    
C9    C78   A    
N16   Ni2   S    
C69   C70   A    
N12   Ni2   S    
C86   O2    S    
C46   C47   A    
C10   C11   A    
C78   N11   A    
C79   C80   A    
C56   N9    A    
C15   C21   A    
C46   H9    S    
C20   C21   A    
C8    C67   A    
N15   Ni3   S    
C45   N8    A    
C85   O9    S    
C14   C15   A    
C62   C74   S    
C70   H21   S    
N7    Ni3   S    
C56   H12   S    
C13   C14   A    
N2    Ni3   S    
C60   H18   S    
H40   O5    S    
