data_mof_unit_2781.cif
_audit_creation_date              2012-12-10T20:49:27-0500
_audit_creation_method            fapswitch 2.2
_symmetry_space_group_name_H-M    P1
_symmetry_Int_Tables_number       1
_space_group_crystal_system       triclinic
_cell_length_a                    15.771308
_cell_length_b                    8.927462
_cell_length_c                    8.125234
_cell_angle_alpha                 89.993194
_cell_angle_beta                  92.146078
_cell_angle_gamma                 90.002078
_cell_volume                      1143.21226958

loop_
_atom_site_label
_atom_site_type_symbol
_atom_type_description
_atom_site_fract_x
_atom_site_fract_y
_atom_site_fract_z
_atom_type_partial_charge
C1    C     C_1   0.499985 0.065214 0.500009 -0.180501
C2    C     C_3   0.974770 0.636936 0.557315 0.334636
C3    C     C_1   0.248909 0.500917 0.488554 -0.178502
C4    C     C_1   0.751080 0.501102 0.511508 -0.179348
C5    C     C_3   0.036293 0.530295 0.651723 -0.113990
C6    C     C_3   0.963805 0.479502 0.350016 -0.099177
C7    C     C_3   0.083453 0.505079 0.490166 -0.022703
C8    C     C_3   0.916587 0.503750 0.511626 -0.026515
C9    C     C_1   0.173854 0.502501 0.484339 0.082706
C10   C     C_1   0.826138 0.502348 0.516227 0.067563
C11   C     C_3   0.919992 0.441981 0.184003 -0.354632
C12   C     C_1   0.499979 0.934780 0.499992 -0.181426
C13   C     C_3   0.872475 0.577505 0.109813 -0.368757
C14   C     C_3   0.818299 0.532884 0.958464 -0.762876
C15   C     C_3   0.080197 0.552891 0.820958 -0.357254
C16   C     C_3   0.129730 0.700828 0.832562 -0.336452
C17   C     C_3   0.196850 0.696678 0.972822 -0.782287
C18   C     C_R   0.499998 0.218064 0.500006 0.938467
C19   C     C_R   0.499983 0.781934 0.499993 0.936006
C20   C     C_R   0.337544 0.499856 0.496785 0.898317
C21   C     C_R   0.662454 0.500013 0.503216 0.900570
C22   C     C_3   0.978013 0.396925 0.604162 0.307915
C23   C     C_3   0.022243 0.612636 0.397448 0.325347
C24   C     C_3   0.025008 0.372625 0.444948 0.338700
H1    H     H_    0.002102 0.171686 0.373295 0.346386
H2    H     H_    0.968175 0.401600 0.098561 0.223168
H3    H     H_    0.874741 0.348717 0.203264 0.210202
H4    H     H_    0.167732 0.667154 0.090665 0.307787
H5    H     H_    0.246415 0.612576 0.946148 0.254819
H6    H     H_    0.227447 0.808273 0.985878 0.251087
H7    H     H_    0.161972 0.724405 0.716219 0.227593
H8    H     H_    0.084959 0.794217 0.854441 0.243423
H9    H     H_    0.031663 0.552803 0.915592 0.225292
H10   H     H_    0.123393 0.456255 0.844663 0.208985
H11   H     H_    0.993245 0.844841 0.606121 0.343886
H12   H     H_    0.006239 0.234931 0.750907 0.345779
H13   H     H_    0.000467 0.797615 0.283129 0.343340
H14   H     H_    0.858675 0.481890 0.864950 0.296826
H15   H     H_    0.768688 0.451435 0.992583 0.259049
H16   H     H_    0.786845 0.633621 0.904175 0.258666
H17   H     H_    0.830517 0.627699 0.201690 0.234974
H18   H     H_    0.918640 0.664050 0.073192 0.247436
N1    N     N_1   0.500010 0.500000 0.073640 -0.032261
N2    N     N_1   0.499990 0.500000 0.926360 -0.033009
O1    O     O_R   0.500000 0.285340 0.636850 -0.614026
O2    O     O_3   0.945187 0.774176 0.615035 -0.747751
O3    O     O_3   0.952889 0.282960 0.709826 -0.756525
O4    O     O_3   0.048436 0.726060 0.292177 -0.772768
O5    O     O_R   0.500000 0.714660 0.363150 -0.614940
O6    O     O_R   0.500000 0.285340 0.363150 -0.614430
O7    O     O_R   0.500000 0.714660 0.636850 -0.615207
O8    O     O_R   0.376770 0.500000 0.636850 -0.618745
O9    O     O_R   0.623230 0.500000 0.363150 -0.616949
O10   O     O_R   0.376780 0.500000 0.363100 -0.612223
O11   O     O_R   0.623220 0.500000 0.636900 -0.614344
O12   O     O_3   0.053650 0.234519 0.387895 -0.743358
Zn1   Zn    Zn3+2 0.499990 0.500000 0.682780 0.994754
Zn2   Zn    Zn3+2 0.500010 0.500000 0.317220 0.997273

loop_
_geom_bond_atom_site_label_1
_geom_bond_atom_site_label_2
_ccdc_geom_bond_type
C8    C22   S    
N1    N2    T    
C17   H6    S    
C16   H8    S    
C17   H5    S    
C19   O5    A    
C15   H10   S    
N1    Zn2   S    
H1    O12   S    
C11   H3    S    
N2    Zn1   S    
O9    Zn2   S    
C6    C24   S    
C17   H4    S    
C13   H17   S    
C22   O3    S    
C21   O11   A    
C3    C20   S    
C20   O8    A    
C13   C14   S    
C2    O2    S    
C16   H7    S    
C21   O9    A    
C4    C21   S    
C11   C13   S    
O1    Zn1   S    
C1    C18   S    
C1    C12   T    
C24   O12   S    
C7    C23   S    
C6    C23   S    
C12   C19   S    
C8    C10   S    
C13   H18   S    
C3    C9    T    
C5    C7    S    
O11   Zn1   S    
C22   C24   S    
C5    C15   S    
C2    C5    S    
C14   H14   S    
O8    Zn1   S    
O5    Zn2   S    
C4    C10   T    
C15   C16   S    
O6    Zn2   S    
C18   O1    A    
C19   O7    A    
O7    Zn1   S    
C2    C23   S    
C18   O6    A    
H12   O3    S    
C20   O10   A    
O10   Zn2   S    
C6    C11   S    
C7    C9    S    
C6    C8    S    
C23   O4    S    
C11   H2    S    
C14   H15   S    
H11   O2    S    
C14   H16   S    
C15   H9    S    
C2    C8    S    
C5    C22   S    
C7    C24   S    
C16   C17   S    
H13   O4    S    
