data_mof_unit_1293.cif
_audit_creation_date              2012-12-10T19:48:36-0500
_audit_creation_method            fapswitch 2.2
_symmetry_space_group_name_H-M    P1
_symmetry_Int_Tables_number       1
_space_group_crystal_system       triclinic
_cell_length_a                    10.861147
_cell_length_b                    10.611426
_cell_length_c                    9.446171
_cell_angle_alpha                 88.459387
_cell_angle_beta                  91.346167
_cell_angle_gamma                 88.699817
_cell_volume                      1087.70231477

loop_
_atom_site_label
_atom_site_type_symbol
_atom_type_description
_atom_site_fract_x
_atom_site_fract_y
_atom_site_fract_z
_atom_type_partial_charge
C1    C     C_R   0.498731 0.259466 0.501138 0.789876
C2    C     C_R   0.500711 0.740446 0.498780 0.781387
C3    C     C_R   0.871604 0.495609 0.504360 -0.081962
C4    C     C_R   0.128353 0.506725 0.496737 -0.090509
C5    C     C_R   0.944328 0.441359 0.617092 0.002628
C6    C     C_R   0.055506 0.563790 0.385989 0.012901
C7    C     C_3   0.613641 0.039121 0.526822 -0.206894
C8    C     C_3   0.384846 0.960282 0.472660 -0.173940
C9    C     C_3   0.574975 0.960820 0.398361 -0.137285
C10   C     C_3   0.423427 0.038788 0.601088 -0.161844
C11   C     C_3   0.500690 0.877369 0.497719 0.019690
C12   C     C_3   0.497899 0.122353 0.501818 -0.011647
C13   C     C_3   0.539366 0.953465 0.626523 -0.122798
C14   C     C_3   0.458981 0.046129 0.372912 -0.087177
C15   C     C_3   0.527320 0.608444 0.045859 0.119987
C16   C     C_3   0.472767 0.391582 0.954261 0.103596
C17   C     C_3   0.420223 0.581757 0.943879 -0.018711
C18   C     C_3   0.579722 0.418403 0.056147 -0.120634
C19   C     C_3   0.607453 0.527975 0.951235 -0.123260
C20   C     C_3   0.392499 0.472036 0.048863 -0.022536
C21   C     C_R   0.262441 0.505178 0.498263 0.796669
C22   C     C_R   0.737569 0.495749 0.501886 0.781018
C23   C     C_R   0.147389 0.849807 0.170506 0.079615
C24   C     C_R   0.829270 0.173351 0.846037 0.121243
C25   C     C_R   0.123787 0.769878 0.287366 -0.266676
C26   C     C_R   0.856642 0.247309 0.725836 -0.171196
C27   C     C_R   0.104662 0.640919 0.268953 0.146455
C28   C     C_R   0.894598 0.371842 0.739855 0.125103
C29   C     C_R   0.106835 0.592614 0.132568 -0.157756
C30   C     C_R   0.906111 0.421903 0.875220 -0.161165
C31   C     C_R   0.131626 0.671115 0.016319 -0.245870
C32   C     C_R   0.878450 0.349099 0.995065 -0.176921
C33   C     C_R   0.152873 0.798939 0.034917 -0.045675
C34   C     C_R   0.840259 0.225253 0.980934 -0.127690
C35   C     C_R   0.928183 0.555834 0.390480 -0.245543
C36   C     C_R   0.071740 0.447354 0.611198 -0.233717
Cu1   Cu    Cu3+1 0.500030 0.499990 0.643150 0.949258
Cu2   Cu    Cu3+1 0.499970 0.500010 0.356850 0.949680
H1    H     H_    0.170564 0.858381 0.942982 0.167208
H2    H     H_    0.820108 0.170023 0.075304 0.125242
H3    H     H_    0.357233 0.652840 0.890808 0.140985
H4    H     H_    0.643155 0.347940 0.109487 0.134738
H5    H     H_    0.695728 0.557225 0.905716 0.139555
H6    H     H_    0.304675 0.441824 0.094497 0.154112
H7    H     H_    0.114097 0.808617 0.391579 0.106231
H8    H     H_    0.854253 0.206874 0.621914 0.101575
H9    H     H_    0.087045 0.494531 0.116192 0.139820
H10   H     H_    0.937608 0.517028 0.887677 0.127381
H11   H     H_    0.132985 0.633056 0.911178 0.141929
H12   H     H_    0.886707 0.388578 0.099237 0.140316
H13   H     H_    0.872531 0.601132 0.305853 0.150333
H14   H     H_    0.127350 0.402434 0.696092 0.186270
H15   H     H_    0.637833 0.927032 0.315904 0.140492
H16   H     H_    0.360649 0.072825 0.683470 0.185638
H17   H     H_    0.707821 0.072999 0.546107 0.128895
H18   H     H_    0.291764 0.923363 0.453540 0.114031
H19   H     H_    0.571816 0.912433 0.730487 0.168346
H20   H     H_    0.425663 0.086483 0.268910 0.182185
N1    N     N_3   0.500090 0.499970 0.858290 -0.192927
N2    N     N_3   0.499910 0.500030 0.141710 -0.196211
O1    O     O_R   0.500060 0.316850 0.620870 -0.590774
O2    O     O_R   0.499940 0.683150 0.379130 -0.576991
O3    O     O_R   0.500000 0.316860 0.379090 -0.583860
O4    O     O_R   0.500000 0.683140 0.620910 -0.586318
O5    O     O_R   0.319670 0.500010 0.620890 -0.584318
O6    O     O_R   0.680330 0.499990 0.379110 -0.598756
O7    O     O_R   0.319620 0.500010 0.379110 -0.572240
O8    O     O_R   0.680380 0.499990 0.620890 -0.576524
C37   C     C_2   0.564184 0.734164 0.097687 0.382032
H21   H     H_    0.649318 0.742245 0.158734 0.044931
O9    O     O_2   0.499785 0.827798 0.070422 -0.563881
C38   C     C_2   0.442223 0.263530 0.903940 0.396790
H22   H     H_    0.514356 0.202272 0.864731 0.073252
O10   O     O_2   0.336832 0.226660 0.909092 -0.527012
C39   C     C_2   0.159452 0.986745 0.190310 0.334987
H23   H     H_    0.146463 0.026048 0.293896 0.046428
O11   O     O_2   0.182802 0.057692 0.091146 -0.497044
C40   C     C_2   0.793774 0.041254 0.828227 -0.068375
H24   H     H_    0.772315 0.980953 0.918527 -0.036592
O12   O     O_2   0.769584 0.973209 0.929646 0.010427

loop_
_geom_bond_atom_site_label_1
_geom_bond_atom_site_label_2
_ccdc_geom_bond_type
C4    C36   A    
C27   C29   A    
C15   N2    S    
C16   C38   S    
C7    H17   S    
C9    C14   S    
C5    C36   A    
C8    H18   S    
C15   C19   S    
C33   H1    S    
C29   H9    S    
C34   H2    S    
C30   H10   S    
C24   C26   A    
C18   H4    S    
C40   O12   D    
C13   H19   S    
Cu1   O8    S    
C17   C20   S    
C6    C35   A    
C15   C17   S    
C18   C19   S    
C37   O9    D    
C22   O6    A    
Cu2   O6    S    
C2    O4    A    
C23   C33   A    
Cu1   O5    S    
C31   C33   A    
C20   N2    S    
C36   H14   S    
C21   O7    A    
C1    C12   S    
C31   H11   S    
C15   C37   S    
C2    C11   S    
C1    O3    A    
C20   H6    S    
C19   H5    S    
C17   H3    S    
C7    C12   S    
C14   H20   S    
C38   O10   D    
C40   H24   S    
C19   N1    S    
C24   C34   A    
C16   N1    S    
C32   C34   A    
C39   H23   S    
Cu1   Cu2   S    
C5    C28   S    
C39   O11   D    
C6    C27   S    
C3    C35   A    
C16   C20   S    
C32   H12   S    
C16   C18   S    
C9    C11   S    
C22   O8    A    
Cu1   N1    S    
C10   C12   S    
C17   N1    S    
Cu2   N2    S    
C4    C6    A    
C12   C14   S    
C35   H13   S    
C9    H15   S    
C25   H7    S    
Cu1   O4    S    
Cu2   O3    S    
C24   C40   S    
C7    C9    S    
C8    C14   S    
C21   O5    A    
C23   C39   S    
C38   H22   S    
C3    C5    A    
C10   C13   S    
C1    O1    A    
Cu1   O1    S    
C25   C27   A    
C26   C28   A    
C28   C30   A    
C29   C31   A    
C30   C32   A    
C4    C21   S    
C11   C13   S    
C8    C11   S    
C23   C25   A    
C37   H21   S    
C10   H16   S    
C18   N2    S    
C26   H8    S    
C7    C13   S    
Cu2   O7    S    
C8    C10   S    
C3    C22   S    
C2    O2    A    
Cu2   O2    S    
