data_mof_unit_3836.cif
_audit_creation_date              2012-12-10T18:59:10-0500
_audit_creation_method            fapswitch 2.2
_symmetry_space_group_name_H-M    P1
_symmetry_Int_Tables_number       1
_space_group_crystal_system       triclinic
_cell_length_a                    9.814873
_cell_length_b                    10.720286
_cell_length_c                    16.926793
_cell_angle_alpha                 89.414019
_cell_angle_beta                  94.354097
_cell_angle_gamma                 90.01368
_cell_volume                      1775.77415802

loop_
_atom_site_label
_atom_site_type_symbol
_atom_type_description
_atom_site_fract_x
_atom_site_fract_y
_atom_site_fract_z
_atom_type_partial_charge
C1    C     C_R   0.499947 0.259792 0.500069 0.869951
C2    C     C_R   0.500052 0.740208 0.499918 0.869174
C3    C     C_R   0.376343 0.936298 0.485465 -0.196122
C4    C     C_R   0.623659 0.063698 0.514482 -0.196066
C5    C     C_R   0.500051 0.872609 0.499878 -0.012219
C6    C     C_R   0.499949 0.127388 0.500081 -0.012813
C7    C     C_R   0.065429 0.576422 0.449505 -0.076811
C8    C     C_R   0.934571 0.423578 0.550493 -0.076977
C9    C     C_R   0.921350 0.576400 0.449531 -0.075286
C10   C     C_R   0.078648 0.423600 0.550466 -0.075722
C11   C     C_R   0.517555 0.497110 0.653237 0.905185
C12   C     C_R   0.482464 0.504463 0.346800 0.904992
C13   C     C_R   0.527289 0.492446 0.739096 -0.089894
C14   C     C_R   0.472917 0.519439 0.261335 -0.090572
C15   C     C_R   0.407237 0.492008 0.778605 -0.235822
C16   C     C_R   0.593090 0.531742 0.222491 -0.235091
C17   C     C_R   0.414455 0.492468 0.860169 -0.244354
C18   C     C_R   0.586255 0.544998 0.141274 -0.243886
C19   C     C_R   0.542514 0.493171 0.903669 0.236839
C20   C     C_R   0.458532 0.545394 0.097454 0.233039
C21   C     C_R   0.663046 0.484605 0.864738 0.474923
C22   C     C_R   0.337568 0.543402 0.136345 0.473441
C23   C     C_R   0.655107 0.488094 0.782017 -0.339331
C24   C     C_R   0.345178 0.526784 0.218467 -0.335530
C25   C     C_R   0.376288 0.064080 0.485594 -0.195270
C26   C     C_R   0.623713 0.935917 0.514355 -0.194792
H1    H     H_    0.680986 0.551979 0.112589 0.179863
H2    H     H_    0.319736 0.493402 0.889105 0.181716
H3    H     H_    0.280169 0.887797 0.473686 0.153353
H4    H     H_    0.719834 0.112196 0.526259 0.153468
H5    H     H_    0.861281 0.637399 0.409240 0.123602
H6    H     H_    0.138715 0.362595 0.590754 0.124565
N1    N     N_2   0.553185 0.500294 0.986783 -0.163416
N2    N     N_2   0.448662 0.542581 0.014210 -0.165495
N3    N     N_R   0.857210 0.499970 0.500020 -0.077920
N4    N     N_R   0.142790 0.500030 0.499980 -0.078028
O1    O     O_R   0.614620 0.316750 0.500010 -0.626461
O2    O     O_R   0.385380 0.683250 0.499990 -0.626856
O3    O     O_R   0.385290 0.316780 0.500000 -0.627305
O4    O     O_R   0.614710 0.683220 0.500000 -0.627703
O5    O     O_R   0.627460 0.498830 0.616130 -0.624363
O6    O     O_R   0.372540 0.501170 0.383870 -0.624555
O7    O     O_R   0.398130 0.498850 0.616130 -0.624250
O8    O     O_R   0.601870 0.501150 0.383870 -0.623919
Zn1   Zn    Zn3+2 0.653130 0.499980 0.500000 0.945352
Zn2   Zn    Zn3+2 0.346870 0.500020 0.500000 0.945139
H7    H     H_    0.692879 0.529599 0.254579 0.175167
H8    H     H_    0.307312 0.493191 0.746657 0.176381
O9    O     O_3   0.788368 0.484422 0.908213 -0.611748
C27   C     C_3   0.850715 0.366634 0.901310 0.054433
H9    H     H_    0.877928 0.350824 0.839552 0.135895
H10   H     H_    0.782172 0.290183 0.919394 0.142743
C28   C     C_3   0.981719 0.361071 0.955365 -0.751134
H11   H     H_    0.958407 0.374248 0.017907 0.266054
H12   H     H_    0.031415 0.268790 0.950125 0.198840
H13   H     H_    0.053497 0.434933 0.938258 0.264076
O10   O     O_3   0.212373 0.544847 0.092862 -0.612059
C29   C     C_3   0.149014 0.661229 0.103236 0.054435
H14   H     H_    0.215297 0.739324 0.085070 0.143308
H15   H     H_    0.125566 0.673893 0.166000 0.134970
C30   C     C_3   0.015060 0.667388 0.051861 -0.755675
H16   H     H_    0.945138 0.592446 0.069612 0.260167
H17   H     H_    0.965179 0.759039 0.059302 0.198861
H18   H     H_    0.034459 0.656311 0.988531 0.268965
H19   H     H_    0.748432 0.488690 0.751723 0.172085
H20   H     H_    0.251633 0.518478 0.248207 0.173272
H21   H     H_    0.280080 0.112890 0.473916 0.157642
H22   H     H_    0.719922 0.887107 0.526034 0.157744
H23   H     H_    0.114946 0.637424 0.409196 0.118747
H24   H     H_    0.885054 0.362572 0.590799 0.119055

loop_
_geom_bond_atom_site_label_1
_geom_bond_atom_site_label_2
_ccdc_geom_bond_type
C7    H23   S    
C30   H18   S    
C27   H10   S    
C2    C5    S    
N4    Zn2   S    
C14   C16   A    
C10   H6    S    
C7    N4    A    
C2    O2    A    
C8    H24   S    
C25   H21   S    
C13   C15   A    
C24   H20   S    
C26   H22   S    
C7    C9    A    
C23   H19   S    
C29   C30   S    
C21   O9    S    
N1    N2    D    
C20   N2    S    
C12   O8    A    
O5    Zn1   S    
C28   H11   S    
C11   O7    A    
C11   C13   S    
C3    H3    S    
O10   C29   S    
O4    Zn1   S    
C12   O6    A    
C15   H8    S    
C22   O10   S    
O3    Zn2   S    
C16   H7    S    
C4    C6    A    
C19   C21   A    
C12   C14   S    
C11   O5    A    
C18   C20   A    
C28   H12   S    
C21   C23   A    
O6    Zn2   S    
C30   H16   S    
O7    Zn2   S    
C22   C24   A    
C4    C26   A    
O2    Zn2   S    
C6    C25   A    
C1    O3    A    
O1    Zn1   S    
C5    C26   A    
C27   C28   S    
C2    O4    A    
C3    C25   A    
O8    Zn1   S    
C13   C23   A    
C16   C18   A    
O9    C27   S    
C19   N1    S    
C28   H13   S    
C14   C24   A    
C30   H17   S    
C9    H5    S    
C17   C19   A    
C9    N3    A    
C10   N4    A    
C27   H9    S    
C29   H14   S    
C15   C17   A    
C17   H2    S    
C29   H15   S    
C8    C10   A    
C4    H4    S    
C18   H1    S    
C1    C6    S    
C20   C22   A    
C1    O1    A    
C3    C5    A    
C8    N3    A    
N3    Zn1   S    
