data_mof_unit_2906.cif
_audit_creation_date              2012-12-11T14:40:31-0500
_audit_creation_method            fapswitch 2.2
_symmetry_space_group_name_H-M    P1
_symmetry_Int_Tables_number       1
_space_group_crystal_system       triclinic
_cell_length_a                    19.682222
_cell_length_b                    10.884391
_cell_length_c                    19.442878
_cell_angle_alpha                 89.961532
_cell_angle_beta                  97.720735
_cell_angle_gamma                 90.268517
_cell_volume                      4127.42371189

loop_
_atom_site_label
_atom_site_type_symbol
_atom_type_description
_atom_site_fract_x
_atom_site_fract_y
_atom_site_fract_z
_atom_type_partial_charge
C1    C     C_R   0.726275 0.949700 0.360056 0.551800
C2    C     C_3   0.268572 0.341338 0.560096 0.052878
C3    C     C_3   0.897603 0.905774 0.006030 -0.295445
C4    C     C_3   0.232395 0.843394 0.440703 0.052390
C5    C     C_3   0.752921 0.900105 0.566820 0.058238
C6    C     C_3   0.769985 0.514637 0.467513 -0.153447
C7    C     C_3   0.242248 0.467758 0.535703 -0.114852
C8    C     C_3   0.210377 0.965920 0.468906 -0.117173
C9    C     C_3   0.782618 0.008221 0.530641 -0.133169
C10   C     C_3   0.818272 0.441421 0.521456 -0.110992
C11   C     C_3   0.191219 0.404335 0.480118 -0.108141
C12   C     C_3   0.281242 0.974568 0.513453 -0.113846
C13   C     C_R   0.272911 0.947336 0.641205 0.536787
C14   C     C_3   0.713504 0.015149 0.482252 -0.111725
C15   C     C_3   0.793834 0.319349 0.487268 -0.105415
C16   C     C_3   0.217536 0.277139 0.505196 -0.119613
C17   C     C_3   0.303113 0.851843 0.484751 -0.099388
C18   C     C_3   0.684349 0.906203 0.519592 -0.114810
C19   C     C_3   0.735583 0.309049 0.532774 -0.151734
C20   C     C_3   0.272168 0.280467 0.454914 -0.144535
C21   C     C_3   0.274147 0.781116 0.542967 -0.130474
C22   C     C_3   0.712225 0.815159 0.469688 -0.124361
C23   C     C_3   0.759997 0.429713 0.566256 0.063277
C24   C     C_R   0.225905 0.450328 0.360411 0.552777
C25   C     C_3   0.245979 0.407344 0.430764 0.054543
C26   C     C_3   0.252253 0.903539 0.571209 0.057132
C27   C     C_3   0.741432 0.923187 0.433075 0.055361
C28   C     C_3   0.536928 0.281091 0.969932 0.179678
C29   C     C_3   0.489075 0.255955 0.023218 0.185479
C30   C     C_3   0.036920 0.781094 0.969935 0.179830
C31   C     C_3   0.989071 0.755940 0.023221 0.185416
C32   C     C_3   0.592658 0.198130 0.008287 -0.165474
C33   C     C_3   0.457556 0.144466 0.982801 -0.119243
C34   C     C_3   0.092658 0.698146 0.008287 -0.165509
C35   C     C_R   0.774930 0.453621 0.638934 0.545112
C36   C     C_3   0.957560 0.644447 0.982802 -0.119413
C37   C     C_3   0.543686 0.173659 0.062563 0.026231
C38   C     C_3   0.505880 0.170809 0.928099 0.035101
C39   C     C_3   0.043689 0.673657 0.062563 0.025807
C40   C     C_3   0.005881 0.670809 0.928100 0.035667
C41   C     C_R   0.535357 0.179780 0.338116 0.552232
C42   C     C_R   0.465244 0.180007 0.662344 0.528640
C43   C     C_R   0.035124 0.679795 0.337922 0.545822
C44   C     C_R   0.964826 0.680121 0.662048 0.537529
C45   C     C_3   0.513080 0.060274 0.021818 -0.140831
C46   C     C_3   0.687207 0.382200 0.478514 -0.120468
C47   C     C_3   0.560841 0.085422 0.965721 -0.167494
C48   C     C_3   0.013092 0.560268 0.021817 -0.141148
C49   C     C_3   0.060849 0.585435 0.965719 -0.167086
C50   C     C_1   0.764134 0.426630 0.904844 -0.010351
C51   C     C_1   0.215562 0.480322 0.083941 -0.015351
C52   C     C_1   0.264134 0.926630 0.904845 -0.009811
C53   C     C_1   0.715560 0.980328 0.083941 -0.014890
C54   C     C_1   0.749888 0.410898 0.035697 -0.060315
C55   C     C_1   0.237047 0.446277 0.955271 -0.068275
C56   C     C_1   0.249886 0.910897 0.035698 -0.060532
C57   C     C_3   0.323702 0.344097 0.511487 -0.135345
C58   C     C_1   0.737045 0.946283 0.955271 -0.068122
C59   C     C_1   0.756353 0.417513 0.964799 -0.051706
C60   C     C_1   0.224977 0.466800 0.024372 -0.059101
C61   C     C_1   0.256352 0.917513 0.964800 -0.051368
C62   C     C_1   0.724973 0.966808 0.024372 -0.059392
C63   C     C_1   0.744047 0.397391 0.095891 -0.018017
C64   C     C_1   0.249141 0.417432 0.898260 -0.026299
C65   C     C_1   0.244046 0.897391 0.095893 -0.019598
C66   C     C_1   0.749141 0.917432 0.898262 -0.025325
C67   C     C_R   0.739206 0.362267 0.361992 0.550702
C68   C     C_3   0.202974 0.771893 0.497982 -0.147438
C69   C     C_R   0.275627 0.308150 0.632824 0.560645
C70   C     C_R   0.224856 0.809936 0.367593 0.563885
C71   C     C_R   0.759979 0.865982 0.638997 0.538004
C72   C     C_R   0.704181 0.998993 0.154618 0.539164
C73   C     C_R   0.278402 0.952908 0.836445 0.541099
C74   C     C_R   0.204181 0.498991 0.154618 0.541421
C75   C     C_R   0.778402 0.452906 0.836444 0.540295
C76   C     C_R   0.563585 0.182697 0.137083 0.539828
C77   C     C_R   0.472957 0.178757 0.857105 0.542846
C78   C     C_R   0.063586 0.682697 0.137084 0.540551
C79   C     C_3   0.781305 0.808604 0.517747 -0.110787
C80   C     C_R   0.972957 0.678757 0.857105 0.542358
C81   C     C_R   0.736138 0.361129 0.164740 0.532210
C82   C     C_R   0.262918 0.364176 0.834085 0.552418
C83   C     C_R   0.236139 0.861133 0.164744 0.542206
C84   C     C_R   0.762921 0.864165 0.834092 0.541378
C85   C     C_1   0.487388 0.171723 0.595610 -0.019115
C86   C     C_1   0.515081 0.171478 0.405692 -0.015777
C87   C     C_1   0.985910 0.672318 0.594857 -0.015551
C88   C     C_1   0.014040 0.671681 0.405120 -0.016531
C89   C     C_1   0.505758 0.167823 0.465455 -0.060910
C90   C     C_3   0.745802 0.393645 0.434059 0.063314
C91   C     C_1   0.497797 0.167864 0.536180 -0.064242
C92   C     C_1   0.004083 0.668421 0.464680 -0.061570
C93   C     C_1   0.995854 0.668744 0.535304 -0.061873
C94   C     C_3   0.711795 0.504490 0.513658 -0.118722
C95   C     C_3   0.297010 0.471950 0.485791 -0.116764
C96   C     C_3   0.181313 0.895728 0.527840 -0.122125
C97   C     C_3   0.810316 0.917601 0.479917 -0.124114
C98   C     C_3   0.572324 0.495860 0.988910 -0.278643
C99   C     C_3   0.397623 0.405821 0.006022 -0.295397
C100  C     C_3   0.072302 0.995869 0.988916 -0.278557
Cr1   Cr    Cr6+3 0.765830 0.160660 0.268180 1.021674
Cr2   Cr    Cr6+3 0.384070 0.324050 0.751550 1.026011
Cr3   Cr    Cr6+3 0.115930 0.824050 0.248450 1.021674
Cr4   Cr    Cr6+3 0.884070 0.824050 0.751550 1.028869
Cr5   Cr    Cr6+3 0.234170 0.160660 0.731820 1.016960
Cr6   Cr    Cr6+3 0.265830 0.660660 0.268180 1.017721
Cr7   Cr    Cr6+3 0.734170 0.660660 0.731820 1.022316
Cr8   Cr    Cr6+3 0.612110 0.009150 0.248770 1.023934
Cr9   Cr    Cr6+3 0.387890 0.009150 0.751230 1.021729
Cr10  Cr    Cr6+3 0.112110 0.509150 0.248770 1.016743
Cr11  Cr    Cr6+3 0.887890 0.509150 0.751230 1.025342
Cr12  Cr    Cr6+3 0.615930 0.324050 0.248450 1.021337
H1    H     H_    0.633297 0.358051 0.458570 0.132193
H2    H     H_    0.228789 0.539490 0.571903 0.120449
H3    H     H_    0.184035 0.039075 0.435800 0.126720
H4    H     H_    0.812037 0.083990 0.558940 0.114535
H5    H     H_    0.314547 0.057198 0.522008 0.108741
H6    H     H_    0.684225 0.098590 0.464055 0.117584
H7    H     H_    0.872346 0.465780 0.540717 0.133658
H8    H     H_    0.136523 0.429995 0.466323 0.128293
H9    H     H_    0.828366 0.244401 0.475076 0.135930
H10   H     H_    0.184120 0.199526 0.516516 0.125211
H11   H     H_    0.353473 0.834345 0.466926 0.136428
H12   H     H_    0.378217 0.319559 0.526467 0.126083
H13   H     H_    0.633069 0.903475 0.537382 0.126038
H14   H     H_    0.720565 0.230214 0.563645 0.104807
H15   H     H_    0.284176 0.205557 0.419825 0.120673
H16   H     H_    0.301798 0.708785 0.575625 0.121589
H17   H     H_    0.683482 0.738008 0.441960 0.120108
H18   H     H_    0.648058 0.219909 0.020005 0.109077
H19   H     H_    0.402034 0.122150 0.971545 0.117018
H20   H     H_    0.148056 0.719937 0.020005 0.108740
H21   H     H_    0.902040 0.622118 0.971547 0.116914
H22   H     H_    0.503608 0.969248 0.044587 0.143225
H23   H     H_    0.169797 0.689261 0.488766 0.104991
H24   H     H_    0.589217 0.015240 0.939772 0.136376
H25   H     H_    0.003628 0.469239 0.044585 0.143221
H26   H     H_    0.089230 0.515264 0.939769 0.136829
H27   H     H_    0.582884 0.390557 0.901886 0.253703
H28   H     H_    0.590763 0.576184 0.961275 0.140393
H29   H     H_    0.614027 0.464303 0.028831 0.157350
H30   H     H_    0.528606 0.526196 0.014982 0.185505
H31   H     H_    0.428867 0.313218 0.096810 0.275878
H32   H     H_    0.373690 0.480805 0.032897 0.155977
H33   H     H_    0.358158 0.337040 0.986153 0.143771
H34   H     H_    0.810932 0.725926 0.536541 0.119192
H35   H     H_    0.420122 0.446029 0.961692 0.195369
H36   H     H_    0.082864 0.890579 0.901889 0.253689
H37   H     H_    0.090727 0.076205 0.961281 0.140424
H38   H     H_    0.114014 0.964321 0.028831 0.157326
H39   H     H_    0.028583 0.026182 0.014996 0.185593
H40   H     H_    0.928865 0.813188 0.096819 0.275393
H41   H     H_    0.873688 0.980790 0.032899 0.155827
H42   H     H_    0.858128 0.836987 0.986190 0.144144
H43   H     H_    0.920090 0.945940 0.961679 0.195402
H44   H     H_    0.677731 0.578628 0.527793 0.132883
H45   H     H_    0.329382 0.552281 0.476143 0.124949
H46   H     H_    0.131913 0.913907 0.547485 0.122924
H47   H     H_    0.861369 0.920488 0.461665 0.121356
H48   H     H_    0.784386 0.594314 0.436868 0.107123
N1    N     N_2   0.551243 0.398711 0.939802 -0.499073
N2    N     N_2   0.449177 0.346734 0.054304 -0.498506
N3    N     N_2   0.051225 0.898720 0.939807 -0.499291
N4    N     N_2   0.949167 0.846706 0.054309 -0.498632
O1    O     O_R   0.783230 0.287800 0.346510 -0.519282
O2    O     O_R   0.454570 0.285140 0.836900 -0.498373
O3    O     O_R   0.045430 0.785140 0.163100 -0.494656
O4    O     O_R   0.954570 0.785140 0.836900 -0.499346
O5    O     O_R   0.677850 0.374730 0.185500 -0.514835
O6    O     O_R   0.322150 0.374730 0.814500 -0.492504
O7    O     O_R   0.177850 0.874730 0.185500 -0.509926
O8    O     O_R   0.822150 0.874730 0.814500 -0.497848
O9    O     O_3   0.664630 0.164620 0.255130 -0.298143
O10   O     O_3   0.335370 0.164620 0.744870 -0.276010
O11   O     O_3   0.164630 0.664620 0.255130 -0.319159
O12   O     O_R   0.216770 0.287800 0.653490 -0.514056
O13   O     O_3   0.835370 0.664620 0.744870 -0.254188
O14   O     O_R   0.760130 0.037060 0.338610 -0.497979
O15   O     O_R   0.239870 0.037060 0.661390 -0.524729
O16   O     O_R   0.260130 0.537060 0.338610 -0.514737
O17   O     O_R   0.739870 0.537060 0.661390 -0.507023
O18   O     O_R   0.666620 0.921370 0.332440 -0.510278
O19   O     O_R   0.333380 0.921370 0.667560 -0.512472
O20   O     O_R   0.166620 0.421370 0.332440 -0.511607
O21   O     O_R   0.833380 0.421370 0.667560 -0.520060
O22   O     O_R   0.557170 0.082420 0.312350 -0.487580
O23   O     O_R   0.283230 0.787800 0.346510 -0.517564
O24   O     O_R   0.442830 0.082420 0.687650 -0.496927
O25   O     O_R   0.057170 0.582420 0.312350 -0.494227
O26   O     O_R   0.942830 0.582420 0.687650 -0.501096
O27   O     O_R   0.548310 0.285980 0.316250 -0.507084
O28   O     O_R   0.451690 0.285980 0.683750 -0.520223
O29   O     O_R   0.048310 0.785980 0.316250 -0.508241
O30   O     O_R   0.951690 0.785980 0.683750 -0.510035
O31   O     O_R   0.680520 0.375500 0.327470 -0.501877
O32   O     O_R   0.319480 0.375500 0.672530 -0.499929
O33   O     O_R   0.180520 0.875500 0.327470 -0.495515
O34   O     O_R   0.716770 0.787800 0.653490 -0.521329
O35   O     O_R   0.819480 0.875500 0.672530 -0.500305
O36   O     O_R   0.780350 0.286970 0.193350 -0.508961
O37   O     O_R   0.219650 0.286970 0.806650 -0.502218
O38   O     O_R   0.280350 0.786970 0.193350 -0.504720
O39   O     O_R   0.719650 0.786970 0.806650 -0.506931
O40   O     O_R   0.757460 0.036290 0.196640 -0.488378
O41   O     O_R   0.242540 0.036290 0.803360 -0.497638
O42   O     O_R   0.257460 0.536290 0.196640 -0.486399
O43   O     O_R   0.742540 0.536290 0.803360 -0.496745
O44   O     O_R   0.663740 0.920540 0.179290 -0.506244
O45   O     O_R   0.554500 0.081650 0.170370 -0.513356
O46   O     O_R   0.336260 0.920540 0.820710 -0.504753
O47   O     O_R   0.163740 0.420540 0.179290 -0.502607
O48   O     O_R   0.836260 0.420540 0.820710 -0.505657
O49   O     O_R   0.445500 0.081650 0.829630 -0.499775
O50   O     O_R   0.054500 0.581650 0.170370 -0.511880
O51   O     O_R   0.945500 0.581650 0.829630 -0.500954
O52   O     O_R   0.545430 0.285140 0.163100 -0.494398

loop_
_geom_bond_atom_site_label_1
_geom_bond_atom_site_label_2
_ccdc_geom_bond_type
C76   O45   A    
Cr2   O6    S    
C96   H46   S    
C21   C26   S    
C82   O6    A    
C58   C62   S    
C47   H24   S    
C24   O20   A    
C33   C45   S    
C14   C18   S    
Cr1   O9    S    
C2    C7    S    
C8    C96   S    
C51   C74   S    
C4    C8    S    
C36   H21   S    
C78   O50   A    
C81   O36   A    
C4    C70   S    
Cr8   O45   S    
C85   C91   T    
Cr1   O36   S    
C77   O49   A    
C72   O44   A    
Cr12  O5    S    
Cr10  O11   S    
C7    C11   S    
C41   C86   S    
C78   O3    A    
C68   C96   S    
C48   H25   S    
Cr7   O17   S    
C43   C88   S    
C97   H47   S    
C7    H2    S    
Cr8   O22   S    
C28   C29   S    
Cr10  O50   S    
Cr11  O51   S    
Cr6   O23   S    
Cr9   O49   S    
C52   C61   T    
C18   H13   S    
C30   C31   S    
C65   C83   S    
Cr4   O4    S    
C20   C25   S    
C11   C25   S    
C2    C57   S    
C56   C65   T    
C29   C33   S    
C32   H18   S    
C3    H41   S    
Cr3   O33   S    
C16   H10   S    
Cr11  O48   S    
C1    O14   A    
C10   H7    S    
C8    H3    S    
C44   O26   A    
C75   O43   A    
C58   C66   T    
C88   C92   T    
C14   H6    S    
Cr5   O12   S    
C83   O7    A    
C12   C17   S    
C24   O16   A    
Cr2   O28   S    
Cr6   O11   S    
C40   C80   S    
Cr1   O14   S    
C69   O12   A    
C81   O5    A    
C14   C27   S    
C5    C79   S    
C2    C69   S    
C2    C16   S    
H31   N2    S    
Cr7   O43   S    
Cr8   O44   S    
C35   O17   A    
C72   O40   A    
C55   C60   S    
C33   H19   S    
Cr12  O9    S    
C99   H33   S    
Cr10  O20   S    
Cr2   O2    S    
C95   H45   S    
C49   H26   S    
C98   H30   S    
Cr3   O7    S    
H36   N3    S    
Cr6   O42   S    
C30   N3    S    
Cr5   O15   S    
C83   O38   A    
C67   O31   A    
C11   H8    S    
C28   C32   S    
Cr6   O16   S    
C17   H11   S    
C28   N1    S    
C80   O51   A    
C54   C59   S    
C45   C47   S    
C100  H39   S    
C26   C96   S    
C75   O48   A    
C19   C46   S    
Cr11  O21   S    
Cr9   O19   S    
C41   O27   A    
C34   C39   S    
C39   C78   S    
C79   H34   S    
H27   N1    S    
C24   C25   S    
C20   H15   S    
C52   C73   S    
C4    C68   S    
C30   C34   S    
Cr9   O10   S    
C5    C18   S    
C100  H38   S    
C77   O2    A    
C6    C90   S    
Cr1   O40   S    
C67   C90   S    
C17   C21   S    
C12   C26   S    
C99   H32   S    
C69   O32   A    
C15   C19   S    
C9    C14   S    
Cr12  O31   S    
Cr7   O39   S    
Cr6   O38   S    
C99   N2    S    
C53   C62   T    
C73   O46   A    
Cr5   O37   S    
Cr4   O13   S    
C46   C94   S    
C36   C40   S    
C8    C12   S    
C29   C37   S    
C55   C64   T    
Cr3   O11   S    
C45   H22   S    
C30   C40   S    
C56   C61   S    
C42   C85   S    
C16   C20   S    
C32   C37   S    
C21   H16   S    
Cr1   O1    S    
C64   C82   S    
Cr9   O24   S    
H40   N4    S    
C3    N4    S    
C4    C17   S    
C70   O23   A    
C84   O39   A    
C94   H44   S    
C48   C49   S    
C37   C76   S    
C63   C81   S    
C25   C95   S    
C70   O33   A    
C23   C35   S    
Cr5   O10   S    
C21   C68   S    
C57   C95   S    
C22   C27   S    
C10   C23   S    
Cr4   O35   S    
C13   C26   S    
C89   C91   S    
C3    H43   S    
C50   C59   T    
C37   C45   S    
Cr9   O46   S    
C44   C87   S    
Cr8   O9    S    
C98   N1    S    
C7    C95   S    
C19   C23   S    
C71   O34   A    
Cr11  O13   S    
C74   O42   A    
C42   O24   A    
C73   O41   A    
C31   N4    S    
C27   C97   S    
C34   C49   S    
C9    C97   S    
C15   H9    S    
C46   H1    S    
C18   C22   S    
C9    H4    S    
C29   N2    S    
C79   C97   S    
C68   H23   S    
Cr12  O27   S    
C5    C9    S    
C84   O8    A    
C86   C89   T    
Cr2   O32   S    
C22   C79   S    
C82   O37   A    
C6    H48   S    
C1    O18   A    
C71   O35   A    
C46   C90   S    
C38   C77   S    
Cr8   O18   S    
C100  H37   S    
Cr2   O10   S    
Cr10  O25   S    
C13   O19   A    
C43   O29   A    
C19   H14   S    
C44   O30   A    
C33   C38   S    
C23   C94   S    
Cr4   O8    S    
C74   O47   A    
C10   C15   S    
Cr10  O47   S    
C76   O52   A    
C20   C57   S    
C99   H35   S    
C98   H29   S    
C13   O15   A    
C35   O21   A    
C15   C90   S    
C67   O1    A    
C38   C47   S    
C3    H42   S    
C87   C93   T    
C92   C93   S    
C32   C47   S    
C31   C39   S    
C41   O22   A    
C36   C48   S    
C100  N3    S    
Cr12  O52   S    
Cr5   O41   S    
Cr3   O3    S    
C11   C16   S    
C6    C10   S    
C66   C84   S    
C12   H5    S    
C34   H20   S    
C42   O28   A    
C43   O25   A    
Cr11  O26   S    
C5    C71   S    
C54   C63   T    
C6    C94   S    
C98   H28   S    
C22   H17   S    
C1    C27   S    
Cr4   O30   S    
C31   C36   S    
C51   C60   T    
Cr3   O29   S    
C28   C38   S    
C50   C75   S    
C53   C72   S    
C80   O4    A    
Cr7   O13   S    
C40   C49   S    
Cr7   O34   S    
C39   C48   S    
C57   H12   S    
