data_mof_unit_1168.cif
_audit_creation_date              2012-12-10T21:07:41-0500
_audit_creation_method            fapswitch 2.2
_symmetry_space_group_name_H-M    P1
_symmetry_Int_Tables_number       1
_space_group_crystal_system       triclinic
_cell_length_a                    8.579863
_cell_length_b                    17.406935
_cell_length_c                    16.893122
_cell_angle_alpha                 90.462989
_cell_angle_beta                  99.171812
_cell_angle_gamma                 92.587184
_cell_volume                      2487.87885435

loop_
_atom_site_label
_atom_site_type_symbol
_atom_type_description
_atom_site_fract_x
_atom_site_fract_y
_atom_site_fract_z
_atom_type_partial_charge
C1    C     C_R   0.499332 0.352567 0.499454 0.862664
C2    C     C_R   0.496467 0.647078 0.500140 0.847437
C3    C     C_1   0.571824 0.967588 0.552135 -0.044047
C4    C     C_1   0.579633 0.035902 0.550538 -0.034623
C5    C     C_R   0.381014 0.455455 0.821527 -0.035394
C6    C     C_R   0.627093 0.539831 0.179072 -0.026042
C7    C     C_R   0.387333 0.455907 0.736903 0.508026
C8    C     C_R   0.616649 0.541667 0.263376 0.501313
C9    C     C_R   0.609730 0.544988 0.759099 0.157534
C10   C     C_R   0.389804 0.455128 0.240908 0.148982
C11   C     C_R   0.621017 0.537907 0.844209 0.076905
C12   C     C_R   0.397282 0.450626 0.156920 0.068054
C13   C     C_R   0.503103 0.494448 0.875822 0.000291
C14   C     C_R   0.513269 0.495354 0.125274 -0.002588
C15   C     C_1   0.506578 0.493373 0.964083 -0.010237
C16   C     C_1   0.512632 0.494741 0.037195 -0.016091
C17   C     C_R   0.200789 0.500558 0.478948 0.956952
C18   C     C_R   0.799392 0.501862 0.521139 0.950981
C19   C     C_2   0.035715 0.502731 0.467805 -0.380939
C20   C     C_2   0.964940 0.503190 0.532528 -0.391706
C21   C     C_R   0.431255 0.845456 0.575630 0.189959
C22   C     C_R   0.647512 0.152232 0.479271 0.178286
C23   C     C_R   0.398043 0.767026 0.552984 0.115977
C24   C     C_R   0.611936 0.229108 0.458421 0.090670
C25   C     C_R   0.495229 0.731248 0.503487 -0.170839
C26   C     C_R   0.505874 0.268159 0.500540 -0.174815
C27   C     C_R   0.605212 0.775728 0.466290 0.087933
C28   C     C_R   0.419828 0.226922 0.552786 0.124030
C29   C     C_R   0.631249 0.853159 0.487782 -0.206977
C30   C     C_R   0.460821 0.152870 0.573993 -0.212679
C31   C     C_R   0.550023 0.886585 0.542753 0.030414
C32   C     C_R   0.572113 0.116218 0.538322 0.030850
H1    H     H_    0.972706 0.503130 0.406681 0.206412
H2    H     H_    0.027834 0.503258 0.593766 0.204320
H3    H     H_    0.714778 0.889310 0.461580 0.173365
H4    H     H_    0.399361 0.121695 0.616062 0.157660
N1    N     N_R   0.500040 0.500030 0.707230 -0.137916
N2    N     N_R   0.499960 0.499970 0.292770 -0.136067
O1    O     O_R   0.500000 0.389130 0.566570 -0.576637
O2    O     O_R   0.500000 0.610870 0.433430 -0.587242
O3    O     O_R   0.499990 0.389100 0.433480 -0.642007
O4    O     O_R   0.500010 0.610900 0.566520 -0.641109
O5    O     O_R   0.271750 0.500010 0.550980 -0.561303
O6    O     O_R   0.728250 0.499990 0.449020 -0.544708
O7    O     O_R   0.271740 0.499980 0.417890 -0.637277
O8    O     O_R   0.728260 0.500020 0.582110 -0.656189
Zn1   Zn    Zn3+2 0.500010 0.500020 0.588860 0.957643
Zn2   Zn    Zn3+2 0.499990 0.499980 0.411140 0.955813
C33   C     C_3   0.345704 0.886122 0.635506 -0.419091
C34   C     C_3   0.449680 0.893834 0.717629 -0.883809
H5    H     H_    0.478352 0.836020 0.741495 0.261339
H6    H     H_    0.561182 0.927486 0.713773 0.266890
H7    H     H_    0.385696 0.923957 0.759965 0.249582
H8    H     H_    0.312442 0.944058 0.613546 0.203653
H9    H     H_    0.232926 0.856658 0.643823 0.217837
C35   C     C_3   0.765580 0.107901 0.440418 -0.409120
C36   C     C_3   0.683514 0.060277 0.367991 -0.886945
H10   H     H_    0.598153 0.016787 0.386315 0.267092
H11   H     H_    0.619142 0.097625 0.322167 0.253649
H12   H     H_    0.773089 0.029753 0.340627 0.249469
H13   H     H_    0.859314 0.146548 0.422355 0.208110
H14   H     H_    0.830521 0.068935 0.484511 0.206436
C37   C     C_3   0.254768 0.723316 0.577563 -0.412588
C38   C     C_3   0.101143 0.746553 0.526732 -0.902993
H15   H     H_    0.998974 0.717884 0.549345 0.254500
H16   H     H_    0.088349 0.809598 0.528442 0.256682
H17   H     H_    0.098673 0.727911 0.463467 0.270852
H18   H     H_    0.255659 0.660416 0.569644 0.235979
H19   H     H_    0.251532 0.731958 0.642412 0.202033
C39   C     C_3   0.680884 0.267610 0.389964 -0.393566
C40   C     C_3   0.827624 0.318915 0.420335 -0.812010
H20   H     H_    0.816059 0.349041 0.476962 0.259134
H21   H     H_    0.933514 0.284063 0.431306 0.236842
H22   H     H_    0.845691 0.362211 0.374445 0.246796
H23   H     H_    0.711568 0.225485 0.346225 0.200574
H24   H     H_    0.590341 0.300224 0.351925 0.219376
C41   C     C_3   0.692902 0.740086 0.404346 -0.321547
C42   C     C_3   0.796488 0.795059 0.362174 -0.949600
H25   H     H_    0.723989 0.839734 0.329705 0.265659
H26   H     H_    0.893572 0.822766 0.405629 0.266810
H27   H     H_    0.850665 0.762388 0.317704 0.254392
H28   H     H_    0.768076 0.694680 0.433490 0.233352
H29   H     H_    0.603287 0.713478 0.356085 0.246217
C43   C     C_3   0.279269 0.258495 0.584728 -0.341795
C44   C     C_3   0.129361 0.207055 0.561260 -0.945568
H30   H     H_    0.111952 0.193097 0.496138 0.259953
H31   H     H_    0.136334 0.152771 0.595363 0.258405
H32   H     H_    0.025318 0.237299 0.574974 0.265248
H33   H     H_    0.307300 0.262945 0.651107 0.215028
H34   H     H_    0.250539 0.316085 0.560724 0.244334
C45   C     C_3   0.242585 0.416481 0.853704 -0.406081
C46   C     C_3   0.275850 0.333413 0.876222 -0.867633
H35   H     H_    0.385143 0.331376 0.921066 0.273656
H36   H     H_    0.175504 0.307365 0.902443 0.250234
H37   H     H_    0.290808 0.298932 0.822623 0.247597
H38   H     H_    0.217293 0.448363 0.906920 0.208772
H39   H     H_    0.131428 0.418643 0.810176 0.200105
C47   C     C_3   0.763154 0.581270 0.146857 -0.408501
C48   C     C_3   0.722947 0.663342 0.123189 -0.888520
H40   H     H_    0.617203 0.662805 0.075708 0.263190
H41   H     H_    0.698816 0.696948 0.175673 0.257443
H42   H     H_    0.823887 0.692077 0.099624 0.249919
H43   H     H_    0.874182 0.581395 0.190700 0.202896
H44   H     H_    0.792179 0.550194 0.093888 0.223829
O9    O     O_3   0.278255 0.414982 0.681909 -0.769506
H45   H     H_    0.223439 0.374328 0.708785 0.317663
O10   O     O_3   0.724048 0.583583 0.318292 -0.771905
H46   H     H_    0.778397 0.624234 0.291218 0.321424
C49   C     C_3   0.713125 0.606491 0.726929 -0.344432
C50   C     C_3   0.653623 0.686841 0.738206 -0.916674
H47   H     H_    0.655372 0.701461 0.802323 0.247912
H48   H     H_    0.729153 0.730415 0.712546 0.254635
H49   H     H_    0.530429 0.690125 0.706660 0.275079
H50   H     H_    0.838942 0.602830 0.754204 0.176673
H51   H     H_    0.715871 0.599830 0.663425 0.265616
C51   C     C_3   0.256242 0.410614 0.271730 -0.331451
C52   C     C_3   0.102362 0.453602 0.256007 -0.880785
H52   H     H_    0.120270 0.512885 0.281432 0.275995
H53   H     H_    0.058130 0.458468 0.191061 0.235647
H54   H     H_    0.009898 0.422344 0.283808 0.240412
H55   H     H_    0.237449 0.351933 0.244999 0.173756
H56   H     H_    0.284700 0.397911 0.335271 0.250178
C53   C     C_3   0.759662 0.574969 0.902455 -0.377881
C54   C     C_3   0.882124 0.515888 0.930362 -0.910263
H57   H     H_    0.829436 0.467981 0.961842 0.265175
H58   H     H_    0.928664 0.492245 0.878006 0.257039
H59   H     H_    0.981891 0.543730 0.972316 0.245198
H60   H     H_    0.821197 0.623885 0.877582 0.212479
H61   H     H_    0.717421 0.600588 0.955010 0.211788
C55   C     C_3   0.291337 0.393101 0.101210 -0.379333
C56   C     C_3   0.374247 0.317974 0.095309 -0.887873
H62   H     H_    0.485575 0.328402 0.070547 0.263853
H63   H     H_    0.402429 0.291980 0.155422 0.250392
H64   H     H_    0.295818 0.276659 0.055186 0.250565
H65   H     H_    0.175359 0.379900 0.119441 0.208427
H66   H     H_    0.258892 0.416838 0.040610 0.210670

loop_
_geom_bond_atom_site_label_1
_geom_bond_atom_site_label_2
_ccdc_geom_bond_type
O6    Zn2   S    
C28   C43   S    
C19   C20   D    
C56   H64   S    
C21   C33   S    
C36   H10   S    
C24   C39   S    
C53   C54   S    
C41   C42   S    
C51   C52   S    
C21   C31   A    
C22   C32   A    
C6    C47   S    
C54   H58   S    
C24   C26   A    
C8    N2    A    
C44   H30   S    
C42   H26   S    
C44   H32   S    
C27   C29   A    
C41   H29   S    
C47   H43   S    
C35   C36   S    
C18   C20   S    
C50   H47   S    
C45   H38   S    
C37   H18   S    
C37   H19   S    
C34   H6    S    
O10   H46   S    
C7    O9    S    
C39   C40   S    
N1    Zn1   S    
C33   H8    S    
N2    Zn2   S    
C35   H14   S    
C20   H2    S    
C23   C37   S    
C53   H61   S    
C43   H34   S    
C18   O8    A    
C9    N1    A    
C10   C12   A    
C44   H31   S    
C9    C49   S    
C55   H66   S    
C34   H7    S    
C51   H55   S    
C38   H17   S    
C43   C44   S    
C19   H1    S    
C52   H54   S    
C45   C46   S    
C5    C7    A    
C1    O1    A    
C42   H25   S    
C36   H12   S    
C22   C35   S    
C27   C41   S    
C33   H9    S    
C46   H37   S    
C38   H16   S    
C17   O5    A    
C18   O6    A    
C6    C14   A    
C48   H40   S    
C13   C15   S    
C46   H36   S    
C34   H5    S    
C7    N1    A    
C5    C45   S    
C45   H39   S    
C3    C31   S    
C9    C11   A    
C50   H49   S    
C4    C32   S    
C12   C55   S    
C49   H50   S    
C54   H59   S    
C1    O3    A    
C48   H41   S    
C55   H65   S    
C12   C14   A    
C47   C48   S    
C21   C23   A    
C39   H24   S    
C1    C26   S    
C14   C16   S    
C43   H33   S    
C3    C4    T    
C8    O10   S    
C10   C51   S    
O1    Zn1   S    
C51   H56   S    
O7    Zn2   S    
O2    Zn2   S    
O8    Zn1   S    
C5    C13   A    
C11   C53   S    
C17   O7    A    
C56   H63   S    
C40   H22   S    
C6    C8    A    
C25   C27   A    
O9    H45   S    
C29   H3    S    
C26   C28   A    
C30   H4    S    
C10   N2    A    
C38   H15   S    
C52   H53   S    
C55   C56   S    
C40   H20   S    
C29   C31   A    
C49   C50   S    
C30   C32   A    
C11   C13   A    
C42   H27   S    
C53   H60   S    
C41   H28   S    
C2    O4    A    
C47   H44   S    
C15   C16   T    
C28   C30   A    
C46   H35   S    
C17   C19   S    
O3    Zn2   S    
C2    C25   S    
C22   C24   A    
O4    Zn1   S    
C23   C25   A    
C50   H48   S    
C36   H11   S    
C49   H51   S    
C37   C38   S    
C2    O2    A    
C48   H42   S    
C33   C34   S    
C40   H21   S    
C39   H23   S    
C35   H13   S    
C52   H52   S    
O5    Zn1   S    
C56   H62   S    
C54   H57   S    
