data_mof_unit_3458.cif
_audit_creation_date              2012-12-10T19:38:47-0500
_audit_creation_method            fapswitch 2.2
_symmetry_space_group_name_H-M    P1
_symmetry_Int_Tables_number       1
_space_group_crystal_system       triclinic
_cell_length_a                    10.743157
_cell_length_b                    15.837797
_cell_length_c                    17.026182
_cell_angle_alpha                 93.418094
_cell_angle_beta                  92.298682
_cell_angle_gamma                 91.401339
_cell_volume                      2888.44233307

loop_
_atom_site_label
_atom_site_type_symbol
_atom_type_description
_atom_site_fract_x
_atom_site_fract_y
_atom_site_fract_z
_atom_type_partial_charge
C1    C     C_R   0.516924 0.491929 0.349706 0.854664
C2    C     C_R   0.558261 0.247061 0.544584 0.042516
C3    C     C_R   0.452799 0.842065 0.447793 -0.189694
C4    C     C_R   0.546473 0.157969 0.552485 -0.189556
C5    C     C_R   0.537914 0.890647 0.497912 0.290785
C6    C     C_R   0.461574 0.109424 0.502190 0.291133
C7    C     C_R   0.611673 0.849016 0.551145 -0.297463
C8    C     C_R   0.388314 0.151052 0.448693 -0.328756
C9    C     C_R   0.595954 0.761552 0.560687 0.218375
C10   C     C_R   0.404364 0.238481 0.439060 0.216399
C11   C     C_R   0.260108 0.500515 0.506249 0.822936
C12   C     C_R   0.483129 0.508072 0.650306 0.853896
C13   C     C_R   0.739949 0.499471 0.493940 0.822727
C14   C     C_3   0.035526 0.424646 0.523974 -0.021531
C15   C     C_3   0.964559 0.575278 0.476520 -0.016345
C16   C     C_3   0.960512 0.437986 0.446818 -0.026710
C17   C     C_3   0.039664 0.561951 0.553636 -0.027411
C18   C     C_3   0.876678 0.499901 0.491350 -0.083699
C19   C     C_3   0.123420 0.500022 0.509070 -0.082476
C20   C     C_3   0.950311 0.486560 0.568976 -0.260753
C21   C     C_3   0.049721 0.513463 0.431471 -0.254616
C22   C     C_R   0.548665 0.496837 0.265035 -0.180418
C23   C     C_R   0.535010 0.518607 0.102183 0.270159
C24   C     C_R   0.451470 0.503173 0.734996 -0.180824
C25   C     C_R   0.569582 0.578642 0.235709 -0.091853
C26   C     C_R   0.430446 0.421370 0.764314 -0.093636
C27   C     C_R   0.552902 0.589576 0.154584 -0.114934
C28   C     C_R   0.447227 0.410402 0.845432 -0.114399
C29   C     C_R   0.924717 0.376155 0.378299 0.128639
C30   C     C_R   0.901000 0.406827 0.303421 -0.153255
C31   C     C_R   0.890396 0.351004 0.236545 -0.122079
C32   C     C_R   0.898933 0.263964 0.244089 -0.064327
C33   C     C_R   0.916109 0.232628 0.318626 -0.157086
C34   C     C_R   0.465301 0.481345 0.897845 0.269942
C35   C     C_R   0.928140 0.288336 0.385543 -0.089327
C36   C     C_R   0.075947 0.623595 0.622220 0.126957
C37   C     C_R   0.099967 0.592678 0.696969 -0.151928
C38   C     C_R   0.110742 0.648294 0.763986 -0.122425
C39   C     C_R   0.102245 0.735376 0.756694 -0.064368
C40   C     C_R   0.085005 0.766963 0.682265 -0.156015
C41   C     C_R   0.072760 0.711459 0.615212 -0.091582
C42   C     C_R   0.646598 0.734790 0.638316 0.134675
C43   C     C_R   0.609685 0.779756 0.707291 -0.174035
C44   C     C_R   0.662086 0.763759 0.781305 -0.073006
C45   C     C_R   0.543693 0.437121 0.130522 -0.211238
C46   C     C_R   0.748055 0.700032 0.788290 -0.115731
C47   C     C_R   0.788430 0.656888 0.720779 -0.184801
C48   C     C_R   0.744217 0.678032 0.646377 -0.076854
C49   C     C_R   0.354270 0.265156 0.361195 0.143184
C50   C     C_R   0.391250 0.219706 0.292482 -0.173929
C51   C     C_R   0.339170 0.235284 0.218282 -0.074380
C52   C     C_R   0.253398 0.299051 0.210786 -0.114565
C53   C     C_R   0.213060 0.342814 0.277980 -0.187385
C54   C     C_R   0.257118 0.322268 0.352599 -0.078591
C55   C     C_2   0.068356 0.342833 0.559496 0.936384
C56   C     C_R   0.456747 0.562847 0.869529 -0.211294
C57   C     C_2   0.931433 0.656919 0.441015 0.933848
C58   C     C_2   0.366829 0.352383 0.713024 0.932659
C59   C     C_2   0.633074 0.647671 0.287003 0.926198
C60   C     C_2   0.444229 0.325162 0.877038 0.919754
C61   C     C_2   0.555824 0.674811 0.122962 0.916928
C62   C     C_2   0.595482 0.340237 0.235445 0.866502
C63   C     C_2   0.405193 0.659857 0.764682 0.866519
C64   C     C_2   0.659097 0.293174 0.591815 0.970412
C65   C     C_2   0.340415 0.706787 0.408501 0.968933
C66   C     C_2   0.618379 0.116189 0.615223 0.916112
C67   C     C_R   0.556428 0.425146 0.211509 -0.082403
C68   C     C_2   0.380374 0.883820 0.385264 0.917154
C69   C     C_R   0.443962 0.574863 0.788555 -0.081919
C70   C     C_R   0.441317 0.752942 0.455625 0.045244
Cu1   Cu    Cu3+1 0.493870 0.415220 0.496180 1.014546
Cu2   Cu    Cu3+1 0.506130 0.584780 0.503820 1.018282
H1    H     H_    0.675154 0.886910 0.590888 0.174870
H2    H     H_    0.920584 0.165105 0.324561 0.152681
H3    H     H_    0.941128 0.262351 0.442295 0.175045
H4    H     H_    0.105064 0.525304 0.703887 0.157153
H5    H     H_    0.125961 0.623851 0.821510 0.145185
H6    H     H_    0.110962 0.778395 0.808546 0.153827
H7    H     H_    0.080662 0.834522 0.676520 0.153929
H8    H     H_    0.059805 0.737642 0.558548 0.176584
H9    H     H_    0.540277 0.828032 0.703766 0.158912
H10   H     H_    0.633076 0.799168 0.833455 0.179326
H11   H     H_    0.785360 0.685371 0.845735 0.157055
H12   H     H_    0.324982 0.113166 0.408848 0.178778
H13   H     H_    0.857089 0.608777 0.726029 0.147016
H14   H     H_    0.792114 0.652939 0.597042 0.180832
H15   H     H_    0.460450 0.171331 0.296359 0.160236
H16   H     H_    0.368248 0.199474 0.166373 0.179252
H17   H     H_    0.216267 0.313308 0.153186 0.157737
H18   H     H_    0.144515 0.390971 0.272342 0.147310
H19   H     H_    0.209375 0.348261 0.401613 0.188604
H20   H     H_    0.164196 0.234935 0.552417 0.339492
H21   H     H_    0.953580 0.733601 0.351883 0.353899
H22   H     H_    0.349576 0.228410 0.678425 0.331978
H23   H     H_    0.906138 0.475355 0.625493 0.161853
H24   H     H_    0.650055 0.771637 0.321642 0.337628
H25   H     H_    0.522656 0.211015 0.880721 0.347235
H26   H     H_    0.477272 0.788915 0.119238 0.346769
H27   H     H_    0.659386 0.267124 0.320669 0.332591
H28   H     H_    0.341439 0.733123 0.679537 0.332144
H29   H     H_    0.719734 0.347253 0.697017 0.336648
H30   H     H_    0.279615 0.652561 0.303395 0.336364
H31   H     H_    0.784648 0.098705 0.670392 0.342459
H32   H     H_    0.213684 0.901218 0.330581 0.338275
H33   H     H_    0.093842 0.524725 0.374952 0.166341
H34   H     H_    0.544262 0.382732 0.088876 0.212107
H35   H     H_    0.456343 0.617231 0.911190 0.212116
H36   H     H_    0.895835 0.474164 0.296312 0.158022
H37   H     H_    0.875295 0.375254 0.178930 0.145288
H38   H     H_    0.890368 0.220788 0.192342 0.153654
N1    N     N_2   0.517661 0.532035 0.020749 -0.213898
N2    N     N_2   0.482690 0.467890 0.979276 -0.214167
N3    N     N_R   0.515330 0.712130 0.509560 -0.218809
N4    N     N_R   0.484670 0.287870 0.490440 -0.217932
N5    N     N_2   0.550245 0.981198 0.498277 -0.185414
N6    N     N_2   0.449158 0.018881 0.501840 -0.187286
O1    O     O_R   0.494270 0.420530 0.382500 -0.549315
O2    O     O_R   0.149674 0.287453 0.522415 -0.787686
O3    O     O_2   0.860484 0.705348 0.473685 -0.617832
O4    O     O_R   0.982073 0.677083 0.369918 -0.715425
O5    O     O_2   0.282788 0.370342 0.667139 -0.607078
O6    O     O_R   0.400373 0.268003 0.717022 -0.695633
O7    O     O_2   0.717235 0.629788 0.332836 -0.608204
O8    O     O_R   0.599258 0.732005 0.283078 -0.697242
O9    O     O_2   0.366163 0.307249 0.924106 -0.586721
O10   O     O_R   0.533520 0.266600 0.854865 -0.683990
O11   O     O_2   0.633898 0.692754 0.075910 -0.588900
O12   O     O_R   0.505730 0.579470 0.617500 -0.548813
O13   O     O_R   0.466455 0.733330 0.145102 -0.684789
O14   O     O_2   0.596927 0.280894 0.186059 -0.623904
O15   O     O_R   0.640316 0.328293 0.311972 -0.729266
O16   O     O_2   0.404068 0.719194 0.814093 -0.624242
O17   O     O_R   0.360263 0.671910 0.688198 -0.729216
O18   O     O_2   0.762274 0.299230 0.564650 -0.572939
O19   O     O_R   0.642075 0.319117 0.670363 -0.721638
O20   O     O_2   0.237274 0.700820 0.435735 -0.575429
O21   O     O_R   0.357337 0.680688 0.329978 -0.721618
O22   O     O_2   0.564829 0.067784 0.656825 -0.565983
O23   O     O_R   0.504620 0.563720 0.388950 -0.577647
O24   O     O_R   0.746890 0.131117 0.626128 -0.729317
O25   O     O_2   0.433541 0.932227 0.343483 -0.564601
O26   O     O_R   0.251819 0.868846 0.374751 -0.739093
O27   O     O_R   0.495380 0.436280 0.611050 -0.579439
O28   O     O_R   0.311680 0.428420 0.496760 -0.579283
O29   O     O_R   0.688320 0.571580 0.503240 -0.581566
O30   O     O_R   0.322030 0.571610 0.503210 -0.559591
O31   O     O_R   0.677970 0.428390 0.496790 -0.559246
O32   O     O_2   0.023424 0.324907 0.621414 -0.534901

loop_
_geom_bond_atom_site_label_1
_geom_bond_atom_site_label_2
_ccdc_geom_bond_type
C15   C18   S    
Cu1   O31   S    
C34   C56   A    
C16   C21   S    
C23   C45   A    
C34   N2    S    
C62   O14   D    
C3    C68   S    
C13   O29   A    
C41   H8    S    
C36   C41   A    
C7    H1    S    
C53   C54   A    
C45   H34   S    
C35   H3    S    
C9    C42   S    
C37   C38   A    
C32   H38   S    
C13   C18   S    
Cu2   O12   S    
C63   O17   S    
C36   C37   A    
C19   C21   S    
C24   C26   A    
C44   H10   S    
C30   C31   A    
Cu2   O29   S    
C17   C20   S    
C15   C17   S    
H20   O2    S    
C27   C61   S    
C17   C19   S    
Cu2   O23   S    
C63   C69   S    
C2    C64   S    
C22   C25   A    
C45   C67   A    
C68   O26   S    
C17   C36   S    
C23   C27   A    
C11   O28   A    
C1    O23   A    
C61   O13   S    
C57   O3    D    
C65   O21   S    
C28   C60   S    
C14   C55   S    
C64   O19   S    
C28   C34   A    
C1    C22   S    
C49   C54   A    
C5    N5    S    
C15   C57   S    
C52   H17   S    
C14   C19   S    
H32   O26   S    
C44   C46   A    
C24   C69   A    
H29   O19   S    
C70   N3    A    
C59   O7    D    
C64   O18   D    
C58   O6    S    
H24   O8    S    
C51   C52   A    
C39   H6    S    
C14   C20   S    
C3    C70   A    
C4    C6    A    
C39   C40   A    
C5    C7    A    
Cu1   O1    S    
C42   C48   A    
C16   C29   S    
Cu2   N3    S    
Cu1   N4    S    
H30   O21   S    
C2    C4    A    
C43   C44   A    
C56   H35   S    
C29   C30   A    
C47   H13   S    
C47   C48   A    
C66   O22   D    
C11   C19   S    
C50   C51   A    
C31   H37   S    
C40   H7    S    
C66   O24   S    
C68   O25   D    
C61   O11   D    
C1    O1    A    
C63   O16   D    
C26   C58   S    
C6    N6    S    
C50   H15   S    
C57   O4    S    
C62   C67   S    
C16   C18   S    
C40   C41   A    
H21   O4    S    
C20   H23   S    
C49   C50   A    
H28   O17   S    
C43   H9    S    
C48   H14   S    
C42   C43   A    
C13   O31   A    
H22   O6    S    
C52   C53   A    
Cu1   O27   S    
C59   O8    S    
C7    C9    A    
C12   C24   S    
C46   C47   A    
C60   O9    D    
C58   O5    D    
N1    N2    D    
C30   H36   S    
C14   C16   S    
C8    H12   S    
C62   O15   S    
C37   H4    S    
C31   C32   A    
H25   O10   S    
C3    C5    A    
C10   N4    A    
C51   H16   S    
C6    C8    A    
C11   O30   A    
C12   O12   A    
C38   H5    S    
C25   C27   A    
C23   N1    S    
C29   C35   A    
C26   C28   A    
C12   O27   A    
H27   O15   S    
C9    N3    A    
C32   C33   A    
C60   O10   S    
C54   H19   S    
H31   O24   S    
C4    C66   S    
C2    N4    A    
C55   O32   D    
C38   C39   A    
Cu2   O30   S    
H26   O13   S    
C33   C35   A    
C18   C20   S    
C22   C67   A    
C65   O20   D    
C46   H11   S    
C33   H2    S    
C15   C21   S    
Cu1   Cu2   S    
C8    C10   A    
C56   C69   A    
C53   H18   S    
C25   C59   S    
C65   C70   S    
C10   C49   S    
C21   H33   S    
N5    N6    D    
Cu1   O28   S    
C55   O2    S    
