data_mof_unit_148.cif
_audit_creation_date              2012-12-10T18:34:32-0500
_audit_creation_method            fapswitch 2.2
_symmetry_space_group_name_H-M    P1
_symmetry_Int_Tables_number       1
_space_group_crystal_system       triclinic
_cell_length_a                    15.009218
_cell_length_b                    15.373944
_cell_length_c                    15.706531
_cell_angle_alpha                 89.634149
_cell_angle_beta                  105.32038
_cell_angle_gamma                 82.311515
_cell_volume                      3460.77301477

loop_
_atom_site_label
_atom_site_type_symbol
_atom_type_description
_atom_site_fract_x
_atom_site_fract_y
_atom_site_fract_z
_atom_type_partial_charge
C1    C     C_R   0.441727 0.662553 0.485162 0.852071
C2    C     C_R   0.557959 0.337545 0.509134 0.857300
C3    C     C_R   0.280891 0.874969 0.408665 -0.201504
C4    C     C_R   0.710711 0.128403 0.484072 -0.212726
C5    C     C_R   0.310948 0.786897 0.435857 -0.198083
C6    C     C_R   0.684591 0.215218 0.502934 -0.204776
C7    C     C_R   0.471162 0.811310 0.456601 -0.262259
C8    C     C_R   0.523536 0.189929 0.469052 -0.268007
C9    C     C_R   0.442695 0.898867 0.427131 0.090711
C10   C     C_R   0.547425 0.104123 0.446666 0.084811
C11   C     C_R   0.346209 0.931617 0.405985 0.165407
C12   C     C_R   0.642970 0.072044 0.458013 0.182066
C13   C     C_R   0.508748 0.956178 0.425963 0.077501
C14   C     C_R   0.479036 0.047454 0.421248 0.057492
C15   C     C_R   0.382215 0.078581 0.394411 -0.227573
C16   C     C_R   0.603752 0.925737 0.432406 -0.245704
C17   C     C_R   0.316761 0.020895 0.385165 -0.227712
C18   C     C_R   0.669471 0.983580 0.446016 -0.255692
C19   C     C_R   0.836231 0.652485 0.613054 0.401581
C20   C     C_R   0.162172 0.350388 0.382572 0.399842
C21   C     C_R   0.748761 0.625123 0.595784 -0.114189
C22   C     C_R   0.251180 0.374918 0.404103 -0.119190
C23   C     C_R   0.502102 0.499161 0.662295 0.904935
C24   C     C_R   0.498034 0.500502 0.337789 0.898729
C25   C     C_R   0.796449 0.505672 0.515814 0.002578
C26   C     C_R   0.202884 0.495302 0.482580 -0.001169
C27   C     C_R   0.884478 0.533054 0.525050 -0.048535
C28   C     C_R   0.114645 0.468194 0.472805 -0.048718
C29   C     C_R   0.905963 0.603362 0.581139 -0.012549
C30   C     C_R   0.093093 0.398188 0.416317 0.001072
C31   C     C_R   0.952553 0.490660 0.484580 -0.044541
C32   C     C_R   0.046534 0.510480 0.513308 -0.044380
C33   C     C_R   0.069668 0.570738 0.582124 0.451454
C34   C     C_R   0.929474 0.430229 0.415908 0.448010
C35   C     C_R   0.997544 0.620283 0.609721 -0.301560
C36   C     C_R   0.001553 0.381093 0.387980 -0.298191
C37   C     C_3   0.419167 0.535013 0.004929 0.530370
C38   C     C_3   0.584460 0.456997 0.996469 0.530551
C39   C     C_3   0.489553 0.580675 0.971954 -0.089319
C40   C     C_3   0.513995 0.411408 0.029647 -0.090535
C41   C     C_1   0.506717 0.497824 0.752285 -0.188260
C42   C     C_1   0.494543 0.499108 0.248203 -0.186377
C43   C     C_3   0.434036 0.453526 0.950389 -0.386116
C44   C     C_3   0.569535 0.538499 0.051021 -0.384496
C45   C     C_3   0.505845 0.499189 0.918224 0.027511
C46   C     C_3   0.497682 0.493026 0.083150 0.024951
C47   C     C_1   0.508349 0.497761 0.828020 -0.006643
C48   C     C_1   0.494106 0.496607 0.172887 -0.011850
C49   C     C_R   0.406560 0.755223 0.461037 -0.055924
C50   C     C_R   0.590684 0.245747 0.496605 -0.057532
H1    H     H_    0.220701 0.555526 0.512250 0.185734
H2    H     H_    0.778497 0.445641 0.485825 0.185542
H3    H     H_    0.306632 0.337252 0.382289 0.139728
H4    H     H_    0.694471 0.660732 0.620781 0.152856
H5    H     H_    0.624586 0.572621 0.093545 0.166225
H6    H     H_    0.378903 0.419469 0.907910 0.166476
H7    H     H_    0.243155 0.046854 0.366273 0.165782
H8    H     H_    0.741884 0.958138 0.452019 0.140719
H9    H     H_    0.452411 0.213339 0.468523 0.164284
H10   H     H_    0.544419 0.786451 0.479628 0.154252
H11   H     H_    0.737483 0.258106 0.522420 0.156039
H12   H     H_    0.259774 0.743974 0.437675 0.152691
H13   H     H_    0.206894 0.899162 0.391363 0.136181
H14   H     H_    0.783806 0.104912 0.491350 0.134634
H15   H     H_    0.355529 0.147326 0.379232 0.160533
H16   H     H_    0.628650 0.857545 0.425883 0.141449
H17   H     H_    0.013529 0.667886 0.659789 0.183453
H18   H     H_    0.985445 0.333963 0.337481 0.177333
N1    N     N_R   0.731710 0.552730 0.549140 -0.136439
N2    N     N_R   0.268290 0.447270 0.450860 -0.132993
O1    O     O_R   0.383110 0.605620 0.475230 -0.628344
O2    O     O_R   0.616890 0.394380 0.524770 -0.626797
O3    O     O_R   0.531900 0.639510 0.506760 -0.623656
O4    O     O_R   0.468100 0.360490 0.493240 -0.618175
O5    O     O_R   0.425620 0.483070 0.607460 -0.592801
O6    O     O_R   0.574380 0.516930 0.392540 -0.599346
O7    O     O_R   0.574400 0.516960 0.638990 -0.600276
O8    O     O_R   0.425600 0.483040 0.361010 -0.609734
Zn1   Zn    Zn3+2 0.400660 0.477370 0.478940 0.947067
Zn2   Zn    Zn3+2 0.599340 0.522630 0.521060 0.946817
C51   C     C_R   0.474829 0.677857 0.948644 0.138643
C52   C     C_R   0.457559 0.737412 0.011849 -0.106302
C53   C     C_R   0.442790 0.827894 0.992385 -0.157013
C54   C     C_R   0.445300 0.859774 0.909716 -0.108265
C55   C     C_R   0.462782 0.801172 0.846537 -0.142365
C56   C     C_R   0.477702 0.710609 0.865813 -0.171199
H19   H     H_    0.455278 0.713668 0.076217 0.151822
H20   H     H_    0.429382 0.873286 0.041410 0.134077
H21   H     H_    0.433856 0.929843 0.894672 0.127675
H22   H     H_    0.464853 0.825918 0.782509 0.135020
H23   H     H_    0.491446 0.667289 0.815770 0.140067
C57   C     C_R   0.528426 0.314576 0.054713 0.137033
C58   C     C_R   0.547254 0.253603 0.993297 -0.108146
C59   C     C_R   0.561956 0.163456 0.014641 -0.157854
C60   C     C_R   0.557785 0.133333 0.097403 -0.107190
C61   C     C_R   0.538638 0.193336 0.158804 -0.142743
C62   C     C_R   0.523749 0.283541 0.137623 -0.177869
H24   H     H_    0.550876 0.275976 0.928917 0.152202
H25   H     H_    0.576631 0.116947 0.966999 0.133243
H26   H     H_    0.569208 0.063536 0.113887 0.129011
H27   H     H_    0.535249 0.169965 0.222910 0.140983
H28   H     H_    0.508576 0.327915 0.186315 0.140886
O9    O     O_3   0.855181 0.723436 0.665307 -0.614054
C63   C     C_3   0.813813 0.801562 0.614294 0.079409
H29   H     H_    0.736303 0.806940 0.596078 0.140466
H30   H     H_    0.837800 0.804541 0.553043 0.131959
C64   C     C_3   0.841954 0.880063 0.668206 -0.803525
H31   H     H_    0.919018 0.877375 0.686412 0.247238
H32   H     H_    0.809610 0.941961 0.628884 0.209041
H33   H     H_    0.818058 0.879707 0.729350 0.261624
O10   O     O_3   0.144338 0.276158 0.335023 -0.622805
C65   C     C_3   0.143746 0.293115 0.246399 0.069993
H34   H     H_    0.215201 0.299256 0.241239 0.142938
H35   H     H_    0.095589 0.354140 0.217968 0.143052
C66   C     C_3   0.109934 0.216857 0.191685 -0.819848
H36   H     H_    0.038261 0.209402 0.194855 0.248902
H37   H     H_    0.108968 0.229383 0.121716 0.213057
H38   H     H_    0.157325 0.155050 0.217340 0.254911
O11   O     O_3   0.162454 0.569037 0.630847 -0.615474
C67   C     C_3   0.184449 0.653207 0.657685 0.059404
H39   H     H_    0.163203 0.669389 0.718996 0.153752
H40   H     H_    0.150894 0.705166 0.604833 0.131205
C68   C     C_3   0.289451 0.652546 0.679646 -0.841843
H41   H     H_    0.314451 0.640563 0.619791 0.258591
H42   H     H_    0.307235 0.717079 0.704885 0.209474
H43   H     H_    0.325061 0.600459 0.731201 0.258877
O12   O     O_3   0.836758 0.431568 0.367183 -0.619990
C69   C     C_3   0.814811 0.346816 0.342522 0.056155
H44   H     H_    0.847020 0.296392 0.397187 0.136883
H45   H     H_    0.837394 0.328064 0.282450 0.150232
C70   C     C_3   0.709675 0.348132 0.318585 -0.836966
H46   H     H_    0.675728 0.397291 0.263696 0.255380
H47   H     H_    0.692160 0.282355 0.297260 0.215491
H48   H     H_    0.682628 0.364917 0.376424 0.262561
O13   O     O_3   0.333365 0.576550 0.015788 -0.609456
C71   C     C_3   0.268460 0.594280 0.932320 0.098028
H49   H     H_    0.245570 0.532242 0.904070 0.156410
H50   H     H_    0.297883 0.627953 0.885193 0.143601
C72   C     C_3   0.183300 0.654238 0.942933 -0.794434
H51   H     H_    0.203930 0.717379 0.969896 0.254894
H52   H     H_    0.131219 0.667813 0.877750 0.206722
H53   H     H_    0.151056 0.622355 0.988682 0.260443
O14   O     O_3   0.670335 0.415577 0.985603 -0.606324
C73   C     C_3   0.735113 0.397458 0.069113 0.107288
H54   H     H_    0.706157 0.361653 0.115118 0.143140
H55   H     H_    0.756417 0.459469 0.098813 0.154534
C74   C     C_3   0.821692 0.339975 0.058171 -0.813289
H56   H     H_    0.853427 0.373976 0.013403 0.263064
H57   H     H_    0.873592 0.326209 0.123447 0.196637
H58   H     H_    0.802875 0.276760 0.029932 0.256868

loop_
_geom_bond_atom_site_label_1
_geom_bond_atom_site_label_2
_ccdc_geom_bond_type
C58   C59   A    
C27   C29   A    
C24   C42   S    
C38   O14   S    
C60   C61   A    
C70   H48   S    
C69   H44   S    
C63   H30   S    
C51   C52   A    
C68   H41   S    
C20   C30   A    
C55   C56   A    
C40   C46   S    
C1    O1    A    
C53   C54   A    
C6    H11   S    
C74   H57   S    
C56   H23   S    
C73   C74   S    
C8    H9    S    
C21   H4    S    
C72   H53   S    
C68   H42   S    
C52   H19   S    
C15   H15   S    
C15   C17   A    
C9    C13   A    
C63   H29   S    
C38   C45   S    
C2    C50   S    
C19   O9    S    
C18   H8    S    
C40   C43   S    
C74   H56   S    
C67   H40   S    
C34   O12   S    
C66   H37   S    
C64   H31   S    
C37   O13   S    
C4    C12   A    
C62   H28   S    
C2    O4    A    
C67   C68   S    
C39   C45   S    
C53   H20   S    
C61   H27   S    
C64   H32   S    
C5    C49   A    
C59   C60   A    
C71   C72   S    
C2    O2    A    
C28   C32   A    
O1    Zn1   S    
C65   H34   S    
C44   C46   S    
C57   C62   A    
C22   H3    S    
C45   C47   S    
C55   H22   S    
C46   C48   S    
C27   C31   A    
O6    Zn2   S    
O13   C71   S    
C74   H58   S    
C54   C55   A    
C7    C49   A    
C73   H55   S    
C10   C14   A    
C60   H26   S    
C24   O6    A    
C68   H43   S    
C70   H47   S    
C23   O7    A    
O2    Zn2   S    
C21   N1    A    
C37   C43   S    
C38   C44   S    
C20   O10   S    
C43   C45   S    
C31   C32   A    
C35   H17   S    
O11   C67   S    
C66   H38   S    
C61   C62   A    
C41   C47   T    
C31   C34   A    
C16   C18   A    
C42   C48   T    
C6    C50   A    
C9    C11   A    
C39   C51   S    
C10   C12   A    
C65   H35   S    
C71   H50   S    
C20   C22   A    
C33   O11   S    
O4    Zn1   S    
C26   N2    A    
C64   H33   S    
C4    C6    A    
C25   N1    A    
C54   H21   S    
O12   C69   S    
C19   C29   A    
C69   C70   S    
C8    C50   A    
C7    H10   S    
C67   H39   S    
O7    Zn2   S    
C24   O8    A    
C7    C9    A    
C4    H14   S    
C11   C17   A    
O10   C65   S    
C19   C21   A    
N2    Zn1   S    
O8    Zn1   S    
C51   C56   A    
C23   O5    A    
C71   H49   S    
C3    C5    A    
C69   H45   S    
C72   H51   S    
C36   H18   S    
C39   C44   S    
C3    H13   S    
C25   C27   A    
C29   C35   A    
C26   C28   A    
C23   C41   S    
C30   C36   A    
C73   H54   S    
C1    O3    A    
C32   C33   A    
C28   C30   A    
C25   H2    S    
C37   C39   S    
C26   H1    S    
C38   C40   S    
C72   H52   S    
C44   H5    S    
C66   H36   S    
C1    C49   S    
C59   H25   S    
C57   C58   A    
C33   C35   A    
O3    Zn2   S    
C5    H12   S    
C34   C36   A    
C65   C66   S    
C70   H46   S    
C40   C57   S    
C3    C11   A    
C43   H6    S    
C16   H16   S    
C8    C10   A    
C52   C53   A    
C13   C16   A    
C12   C18   A    
O9    C63   S    
C14   C15   A    
N1    Zn2   S    
C37   C46   S    
C13   C14   A    
O5    Zn1   S    
C58   H24   S    
C22   N2    A    
C63   C64   S    
O14   C73   S    
C17   H7    S    
