data_mof_unit_4454.cif
_audit_creation_date              2012-12-10T16:55:48-0500
_audit_creation_method            fapswitch 2.2
_symmetry_space_group_name_H-M    P1
_symmetry_Int_Tables_number       1
_space_group_crystal_system       triclinic
_cell_length_a                    7.812145
_cell_length_b                    8.565531
_cell_length_c                    10.485236
_cell_angle_alpha                 91.634218
_cell_angle_beta                  84.745261
_cell_angle_gamma                 93.693635
_cell_volume                      697.04075846

loop_
_atom_site_label
_atom_site_type_symbol
_atom_type_description
_atom_site_fract_x
_atom_site_fract_y
_atom_site_fract_z
_atom_type_partial_charge
C1    C     C_R   0.545661 0.794595 0.496762 0.938816
C2    C     C_3   0.499447 0.501456 0.877264 -0.198258
C3    C     C_3   0.393622 0.379720 0.046167 -0.289801
C4    C     C_3   0.606378 0.620280 0.953833 -0.289800
C5    C     C_2   0.569639 0.958168 0.494880 -0.300479
C6    C     C_2   0.430361 0.041831 0.505120 -0.300479
C7    C     C_R   0.454338 0.205404 0.503238 0.938816
C8    C     C_R   0.500279 0.500677 0.742373 0.933164
C9    C     C_R   0.499721 0.499323 0.257627 0.933164
C10   C     C_3   0.337651 0.517633 0.970516 -0.265490
C11   C     C_3   0.662349 0.482367 0.029484 -0.265490
C12   C     C_3   0.445830 0.634219 0.048900 0.723182
C13   C     C_3   0.554170 0.365781 0.951100 0.723182
C14   C     C_3   0.500553 0.498544 0.122736 -0.198258
F1    F     F_    0.390062 0.772200 0.105003 -0.631926
F2    F     F_    0.609938 0.227800 0.894997 -0.631926
F3    F     F_    0.029878 0.356326 0.385546 -0.562412
F4    F     F_    0.970122 0.643674 0.614454 -0.562412
H1    H     H_    0.206006 0.534051 0.943343 0.209456
H2    H     H_    0.793994 0.465949 0.056656 0.209456
H3    H     H_    0.309180 0.281317 0.087801 0.218235
H4    H     H_    0.690820 0.718683 0.912199 0.218235
H5    H     H_    0.701210 0.009192 0.485092 0.207485
H6    H     H_    0.298790 0.990808 0.514908 0.207485
N1    N     N_2   0.950320 0.457950 0.465730 0.260019
N2    N     N_2   0.049680 0.542050 0.534270 0.260019
O1    O     O_R   0.389250 0.738570 0.508410 -0.606625
O2    O     O_R   0.610750 0.261430 0.491590 -0.606625
O3    O     O_R   0.678390 0.711620 0.486450 -0.587052
O4    O     O_R   0.321610 0.288380 0.513550 -0.587052
O5    O     O_R   0.355460 0.513510 0.697030 -0.621300
O6    O     O_R   0.644540 0.486490 0.302970 -0.621300
O7    O     O_R   0.644600 0.486560 0.675070 -0.567420
O8    O     O_R   0.355400 0.513440 0.324930 -0.567420
Zn1   Zn    Zn3+2 0.306940 0.517990 0.514670 1.140405
Zn2   Zn    Zn3+2 0.693060 0.482010 0.485330 1.140405

loop_
_geom_bond_atom_site_label_1
_geom_bond_atom_site_label_2
_ccdc_geom_bond_type
C2    C4    S    
C9    C14   S    
C6    C7    S    
C4    C12   S    
C4    H4    S    
C3    C13   S    
C12   F1    S    
C10   H1    S    
C6    H6    S    
F4    N2    S    
C1    O3    A    
F3    N1    S    
C7    O4    A    
C4    C11   S    
C11   C13   S    
O3    Zn2   S    
C9    O8    A    
C3    C14   S    
C10   C12   S    
O4    Zn1   S    
C1    C5    S    
O6    Zn2   S    
C12   C14   S    
C8    O7    A    
C5    C6    D    
C11   C14   S    
O5    Zn1   S    
C11   H2    S    
C3    H3    S    
N1    Zn2   S    
C2    C10   S    
N2    Zn1   S    
O7    Zn2   S    
O2    Zn2   S    
C1    O1    A    
O8    Zn1   S    
C13   F2    S    
C3    C10   S    
C2    C13   S    
C9    O6    A    
O1    Zn1   S    
N1    N2    D    
C8    O5    A    
C2    C8    S    
C7    O2    A    
C5    H5    S    
