data_mof_unit_4841.cif
_audit_creation_date              2012-12-10T17:14:33-0500
_audit_creation_method            fapswitch 2.2
_symmetry_space_group_name_H-M    P1
_symmetry_Int_Tables_number       1
_space_group_crystal_system       triclinic
_cell_length_a                    15.641826
_cell_length_b                    15.049624
_cell_length_c                    10.152632
_cell_angle_alpha                 90.000134
_cell_angle_beta                  81.761791
_cell_angle_gamma                 89.999933
_cell_volume                      2365.30381175

loop_
_atom_site_label
_atom_site_type_symbol
_atom_type_description
_atom_site_fract_x
_atom_site_fract_y
_atom_site_fract_z
_atom_type_partial_charge
C1    C     C_R   0.390472 0.122781 0.552870 0.899291
C2    C     C_2   0.509893 0.020443 0.070618 0.360401
C3    C     C_2   0.990107 0.520442 0.929382 0.360400
C4    C     C_2   0.009893 0.520443 0.070618 0.360403
C5    C     C_2   0.318061 0.819796 0.590222 -0.441088
C6    C     C_2   0.675483 0.189008 0.415574 -0.427538
C7    C     C_2   0.681939 0.819796 0.409777 -0.441089
C8    C     C_2   0.324517 0.189009 0.584426 -0.427539
C9    C     C_2   0.818060 0.319796 0.590222 -0.441088
C10   C     C_2   0.175484 0.689007 0.415573 -0.427537
C11   C     C_2   0.181939 0.319796 0.409777 -0.441089
C12   C     C_R   0.610999 0.878972 0.445952 0.906057
C13   C     C_2   0.824516 0.689008 0.584427 -0.427538
C14   C     C_2   0.293363 0.765827 0.497862 0.230361
C15   C     C_2   0.703497 0.234355 0.514897 0.217548
C16   C     C_2   0.706637 0.765827 0.502138 0.230361
C17   C     C_2   0.296504 0.234355 0.485104 0.217549
C18   C     C_2   0.793363 0.265827 0.497862 0.230361
C19   C     C_2   0.203497 0.734355 0.514895 0.217548
C20   C     C_2   0.206637 0.265827 0.502138 0.230362
C21   C     C_2   0.796503 0.734356 0.485105 0.217548
C22   C     C_3   0.662962 0.211839 0.757329 -0.704218
C23   C     C_R   0.609528 0.122781 0.447130 0.899289
C24   C     C_3   0.355058 0.770854 0.259501 -0.772378
C25   C     C_3   0.337040 0.211841 0.242672 -0.704217
C26   C     C_3   0.644941 0.770854 0.740498 -0.772378
C27   C     C_3   0.162960 0.711841 0.757328 -0.704215
C28   C     C_3   0.855058 0.270853 0.259502 -0.772381
C29   C     C_3   0.837043 0.711843 0.242673 -0.704213
C30   C     C_3   0.144942 0.270855 0.740499 -0.772380
C31   C     C_3   0.658294 0.005610 0.059725 0.105663
C32   C     C_3   0.728275 0.022551 0.146368 -0.794249
C33   C     C_3   0.341706 0.005611 0.940276 0.105662
C34   C     C_R   0.389001 0.878972 0.554048 0.906057
C35   C     C_3   0.271725 0.022551 0.853631 -0.794246
C36   C     C_3   0.158294 0.505607 0.059727 0.105666
C37   C     C_3   0.228275 0.522548 0.146370 -0.794251
C38   C     C_3   0.841707 0.505605 0.940269 0.105668
C39   C     C_3   0.771726 0.522548 0.853627 -0.794255
C40   C     C_R   0.890472 0.622781 0.552870 0.899290
C41   C     C_R   0.110999 0.378972 0.445952 0.906058
C42   C     C_R   0.109528 0.622780 0.447130 0.899288
C43   C     C_R   0.889001 0.378972 0.554048 0.906058
C44   C     C_2   0.490107 0.020443 0.929382 0.360404
H1    H     H_    0.401425 0.959518 0.148291 0.084631
H2    H     H_    0.776736 0.336036 0.681894 0.164558
H3    H     H_    0.788754 0.686384 0.683307 0.174284
H4    H     H_    0.223264 0.336035 0.318105 0.164559
H5    H     H_    0.581363 0.260447 0.626131 0.224632
H6    H     H_    0.608141 0.168195 0.796929 0.264232
H7    H     H_    0.669159 0.263566 0.833263 0.218948
H8    H     H_    0.723025 0.171325 0.741861 0.229981
H9    H     H_    0.416494 0.721517 0.414345 0.214031
H10   H     H_    0.417295 0.805189 0.226486 0.241764
H11   H     H_    0.301373 0.819148 0.257977 0.238595
H12   H     H_    0.598575 0.959518 0.851708 0.084631
H13   H     H_    0.348428 0.716878 0.187291 0.220353
H14   H     H_    0.418638 0.260449 0.373872 0.224630
H15   H     H_    0.391862 0.168197 0.203073 0.264232
H16   H     H_    0.330844 0.263567 0.166738 0.218948
H17   H     H_    0.276978 0.171326 0.258138 0.229981
H18   H     H_    0.583506 0.721516 0.585653 0.214031
H19   H     H_    0.582705 0.805189 0.773513 0.241764
H20   H     H_    0.698626 0.819149 0.742023 0.238594
H21   H     H_    0.651572 0.716878 0.812708 0.220353
H22   H     H_    0.081362 0.760449 0.626127 0.224630
H23   H     H_    0.901424 0.459519 0.148292 0.084632
H24   H     H_    0.108138 0.668198 0.796926 0.264232
H25   H     H_    0.169156 0.763568 0.833262 0.218948
H26   H     H_    0.223022 0.671326 0.741862 0.229982
H27   H     H_    0.916493 0.221516 0.414347 0.214031
H28   H     H_    0.917295 0.305188 0.226487 0.241764
H29   H     H_    0.801374 0.319148 0.257978 0.238595
H30   H     H_    0.848428 0.216877 0.187292 0.220353
H31   H     H_    0.918638 0.760451 0.373876 0.224629
H32   H     H_    0.891865 0.668199 0.203075 0.264233
H33   H     H_    0.830846 0.763569 0.166739 0.218948
H34   H     H_    0.098576 0.459519 0.851707 0.084632
H35   H     H_    0.776981 0.671327 0.258137 0.229982
H36   H     H_    0.083507 0.221517 0.585654 0.214031
H37   H     H_    0.082706 0.305190 0.773514 0.241763
H38   H     H_    0.198627 0.319150 0.742022 0.238594
H39   H     H_    0.151573 0.216879 0.812709 0.220353
H40   H     H_    0.687693 0.024542 0.957556 0.128205
H41   H     H_    0.642647 0.933184 0.064991 0.112351
H42   H     H_    0.705118 0.006318 0.251738 0.258072
H43   H     H_    0.785181 0.980021 0.112257 0.192742
H44   H     H_    0.748917 0.093014 0.137341 0.236112
H45   H     H_    0.711244 0.186386 0.316693 0.174283
H46   H     H_    0.312307 0.024543 0.042444 0.128205
H47   H     H_    0.357353 0.933184 0.935010 0.112350
H48   H     H_    0.294883 0.006318 0.748261 0.258072
H49   H     H_    0.214819 0.980022 0.887743 0.192741
H50   H     H_    0.251085 0.093015 0.862657 0.236113
H51   H     H_    0.187693 0.524536 0.957558 0.128204
H52   H     H_    0.142645 0.433181 0.064995 0.112352
H53   H     H_    0.205117 0.506321 0.251741 0.258074
H54   H     H_    0.285178 0.480015 0.112264 0.192742
H55   H     H_    0.248919 0.593010 0.137337 0.236111
H56   H     H_    0.276736 0.836035 0.681894 0.164558
H57   H     H_    0.812307 0.524531 0.042439 0.128203
H58   H     H_    0.857357 0.433179 0.934997 0.112354
H59   H     H_    0.794884 0.506320 0.748256 0.258073
H60   H     H_    0.714822 0.480015 0.887732 0.192742
H61   H     H_    0.751082 0.593009 0.862661 0.236113
H62   H     H_    0.288756 0.186386 0.683307 0.174283
H63   H     H_    0.723264 0.836035 0.318106 0.164558
H64   H     H_    0.211246 0.686383 0.316693 0.174284
N1    N     N_2   0.549450 0.000000 0.831550 -0.228322
N2    N     N_2   0.855360 0.232771 0.390814 -0.299595
N3    N     N_2   0.854011 0.754029 0.364978 -0.309643
N4    N     N_2   0.144640 0.232772 0.609187 -0.299595
N5    N     N_2   0.450550 1.000000 0.168450 -0.228321
N6    N     N_2   0.049450 0.500000 0.831550 -0.228321
N7    N     N_2   0.950550 0.500000 0.168450 -0.228320
N8    N     N_2   0.645990 0.254026 0.635026 -0.309641
N9    N     N_2   0.355360 0.732771 0.390813 -0.299596
N10   N     N_2   0.354011 0.254028 0.364976 -0.309642
N11   N     N_2   0.644640 0.732771 0.609187 -0.299596
N12   N     N_2   0.145990 0.754028 0.635023 -0.309642
O1    O     O_R   0.398960 0.091100 0.433300 -0.589406
O2    O     O_R   0.569290 0.908910 0.353790 -0.614537
O3    O     O_R   0.569290 0.091090 0.353790 -0.543202
O4    O     O_R   0.430710 0.908910 0.646210 -0.614538
O5    O     O_R   0.930710 0.591090 0.646210 -0.543204
O6    O     O_R   0.069290 0.408910 0.353790 -0.614538
O7    O     O_R   0.069290 0.591090 0.353790 -0.543203
O8    O     O_R   0.930710 0.408910 0.646210 -0.614539
O9    O     O_3   0.585375 0.060121 0.099949 -0.566646
O10   O     O_3   0.414626 0.060121 0.900051 -0.566647
O11   O     O_3   0.085375 0.560119 0.099948 -0.566648
O12   O     O_R   0.601040 0.908900 0.566700 -0.587727
O13   O     O_3   0.914625 0.560119 0.900053 -0.566648
O14   O     O_R   0.601040 0.091100 0.566700 -0.589406
O15   O     O_R   0.398960 0.908900 0.433300 -0.587727
O16   O     O_R   0.898960 0.591100 0.433300 -0.589406
O17   O     O_R   0.101040 0.408900 0.566700 -0.587727
O18   O     O_R   0.101040 0.591100 0.566700 -0.589406
O19   O     O_R   0.898960 0.408900 0.433300 -0.587728
O20   O     O_R   0.430710 0.091090 0.646210 -0.543203
Zn1   Zn    Zn3+2 0.478810 0.000000 0.357840 0.955739
Zn2   Zn    Zn3+2 0.521190 0.000000 0.642160 0.955739
Zn3   Zn    Zn3+2 0.978810 0.500000 0.357840 0.955739
Zn4   Zn    Zn3+2 0.021190 0.500000 0.642160 0.955738

loop_
_geom_bond_atom_site_label_1
_geom_bond_atom_site_label_2
_ccdc_geom_bond_type
C33   O10   S    
C15   C18   S    
C16   C21   S    
C31   H41   S    
C10   C42   S    
C1    C8    S    
C4    N7    D    
C10   H64   S    
C28   H30   S    
C25   N10   S    
C2    O9    S    
C37   H53   S    
C39   H60   S    
C29   H32   S    
H34   N6    S    
C27   N12   S    
C24   H11   S    
C40   O16   A    
C24   N9    S    
C36   C37   S    
O20   Zn2   S    
O16   Zn3   S    
C33   H47   S    
C38   C39   S    
C2    N5    D    
H9    N9    S    
C42   O18   A    
C6    C23   S    
O5    Zn4   S    
C24   H10   S    
C32   H44   S    
H27   N2    S    
O6    Zn3   S    
H14   N10   S    
C17   C20   S    
C38   O13   S    
C30   H39   S    
C26   H20   S    
C13   C40   S    
H23   N7    S    
C27   H24   S    
C6    C15   D    
C20   N4    S    
O19   Zn3   S    
C2    C44   S    
C24   H13   S    
C43   O19   A    
N1    Zn2   S    
C25   H16   S    
C41   O17   A    
C27   H25   S    
C22   H6    S    
C44   N1    D    
C22   N8    S    
C9    H2    S    
H22   N12   S    
O4    Zn2   S    
C11   H4    S    
C28   H28   S    
C28   H29   S    
C25   H17   S    
C37   H54   S    
C21   N3    S    
C4    O11   S    
C35   H49   S    
O12   Zn2   S    
C7    C12   S    
N7    Zn3   S    
C11   C20   D    
C9    C43   S    
O1    Zn1   S    
C26   N11   S    
C36   O11   S    
C13   H3    S    
C14   C19   S    
C23   O3    A    
C28   N2    S    
C32   H43   S    
H36   N4    S    
C31   H40   S    
C30   N4    S    
C3    O13   S    
N6    Zn4   S    
C30   H38   S    
C26   H19   S    
O14   Zn2   S    
C36   H52   S    
C31   C32   S    
C29   H35   S    
C5    H56   S    
C10   C19   D    
C14   N9    S    
C32   H42   S    
C5    C34   S    
O3    Zn1   S    
C5    C14   D    
C13   C21   D    
O7    Zn3   S    
O8    Zn4   S    
H18   N11   S    
C27   H26   S    
C42   O7    A    
C17   N10   S    
C7    C16   D    
O17   Zn4   S    
C19   N12   S    
C7    H63   S    
C16   N11   S    
C3    C4    S    
H12   N1    S    
C37   H55   S    
C22   H8    S    
C35   H50   S    
C39   H61   S    
C29   H33   S    
C34   O4    A    
C12   O12   A    
C23   O14   A    
C26   H21   S    
C41   O6    A    
C29   N3    S    
C18   N2    S    
C3    N6    D    
C8    H62   S    
C43   O8    A    
C39   H59   S    
C38   H57   S    
C6    H45   S    
H31   N3    S    
C8    C17   D    
C30   H37   S    
C31   O9    S    
O18   Zn4   S    
C33   H46   S    
C35   H48   S    
C36   H51   S    
C34   O15   A    
C40   O5    A    
C33   C35   S    
N5    Zn1   S    
C11   C41   S    
C1    O1    A    
H1    N5    S    
C9    C18   D    
O15   Zn1   S    
H5    N8    S    
C12   O2    A    
C38   H58   S    
C15   N8    S    
C1    O20   A    
C25   H15   S    
O2    Zn1   S    
C44   O10   S    
C22   H7    S    
