data_mof_unit_1595.cif
_audit_creation_date              2012-10-26T17:11:27-0400
_audit_creation_method            fapswitch 2.2
_symmetry_space_group_name_H-M    P1
_symmetry_Int_Tables_number       1
_space_group_crystal_system       triclinic
_cell_length_a                    27.919244
_cell_length_b                    18.669818
_cell_length_c                    16.885549
_cell_angle_alpha                 90.224984
_cell_angle_beta                  62.724137
_cell_angle_gamma                 90.389661
_cell_volume                      7822.72048468

loop_
_atom_site_label
_atom_site_type_symbol
_atom_type_description
_atom_site_fract_x
_atom_site_fract_y
_atom_site_fract_z
_atom_type_partial_charge
C1    C     C_R   0.295129 0.728805 0.329401 0.830070
C2    C     C_R   0.704908 0.271265 0.670580 0.831911
C3    C     C_R   0.704661 0.729254 0.670800 0.841960
C4    C     C_R   0.295242 0.270950 0.329282 0.833228
C5    C     C_R   0.795126 0.228800 0.329402 0.830002
C6    C     C_R   0.204907 0.771263 0.670580 0.831979
C7    C     C_R   0.204592 0.229389 0.670769 0.843105
C8    C     C_R   0.795089 0.771256 0.329303 0.832674
C9    C     C_R   0.399143 0.000063 0.499781 -0.033326
C10   C     C_R   0.585495 0.999487 0.552165 -0.029810
C11   C     C_R   0.899230 0.500063 0.499486 -0.033271
C12   C     C_R   0.085552 0.499491 0.551949 -0.029840
C13   C     C_R   0.581671 0.869791 0.553215 0.119544
C14   C     C_R   0.374785 0.116806 0.572394 0.096440
C15   C     C_R   0.421910 0.879527 0.437008 0.111207
C16   C     C_R   0.571385 0.124309 0.597607 0.101773
C17   C     C_R   0.081717 0.369796 0.552998 0.118868
C18   C     C_R   0.874881 0.616792 0.572103 0.094305
C19   C     C_R   0.921960 0.379506 0.436780 0.111192
C20   C     C_R   0.071435 0.624310 0.597395 0.102066
C21   C     C_R   0.220365 0.769292 0.955231 0.103850
C22   C     C_R   0.780077 0.231532 0.044423 0.104555
C23   C     C_R   0.780253 0.767767 0.044020 0.103549
C24   C     C_R   0.220149 0.233441 0.954426 0.107931
C25   C     C_R   0.720355 0.269284 0.955244 0.104482
C26   C     C_R   0.280079 0.731549 0.044429 0.103934
C27   C     C_R   0.279397 0.268213 0.045403 0.105630
C28   C     C_R   0.718752 0.734749 0.956335 0.105096
C29   C     C_R   0.270226 0.802418 0.932949 -0.183195
C30   C     C_R   0.730271 0.198308 0.066574 -0.185074
C31   C     C_R   0.782251 0.698893 0.009483 -0.186220
C32   C     C_R   0.270722 0.202279 0.929033 -0.184721
C33   C     C_R   0.770167 0.302510 0.933076 -0.184946
C34   C     C_R   0.230223 0.698426 0.066695 -0.183432
C35   C     C_R   0.228900 0.299536 0.070590 -0.183576
C36   C     C_R   0.716788 0.803650 0.990808 -0.185234
C37   C     C_R   0.300060 0.783439 0.977140 -0.181441
C38   C     C_R   0.700436 0.217287 0.022397 -0.181322
C39   C     C_R   0.751509 0.682409 0.965920 -0.183499
C40   C     C_R   0.300389 0.219888 0.974101 -0.183128
C41   C     C_R   0.800005 0.283529 0.977262 -0.182136
C42   C     C_R   0.200392 0.717403 0.022512 -0.180703
C43   C     C_R   0.199214 0.281885 0.025572 -0.183108
C44   C     C_R   0.747570 0.820152 0.034318 -0.179963
C45   C     C_R   0.145212 0.830726 0.943935 -0.229334
C46   C     C_R   0.855081 0.169783 0.055828 -0.231690
C47   C     C_R   0.855307 0.829224 0.055651 -0.235051
C48   C     C_R   0.145031 0.170902 0.943790 -0.232907
C49   C     C_R   0.645207 0.330721 0.943942 -0.230726
C50   C     C_R   0.355083 0.669793 0.055829 -0.230350
C51   C     C_R   0.354904 0.329523 0.056099 -0.233878
C52   C     C_R   0.644321 0.671732 0.944446 -0.234675
C53   C     C_R   0.118494 0.852457 0.895017 -0.060905
C54   C     C_R   0.881615 0.147712 0.104903 -0.060718
C55   C     C_R   0.881882 0.851582 0.104617 -0.059858
C56   C     C_R   0.118373 0.148173 0.895036 -0.061148
C57   C     C_R   0.618491 0.352454 0.895020 -0.060911
C58   C     C_R   0.381616 0.647715 0.104904 -0.060727
C59   C     C_R   0.381678 0.351826 0.104825 -0.059970
C60   C     C_R   0.618053 0.648605 0.895302 -0.061185
C61   C     C_R   0.137289 0.829791 0.807040 -0.280838
C62   C     C_R   0.862728 0.170207 0.192963 -0.280584
C63   C     C_R   0.863142 0.829042 0.192537 -0.282069
C64   C     C_R   0.137112 0.170388 0.806985 -0.280396
C65   C     C_R   0.637288 0.329789 0.807043 -0.281227
C66   C     C_R   0.362729 0.670207 0.192965 -0.280195
C67   C     C_R   0.362951 0.329468 0.192813 -0.281833
C68   C     C_R   0.636872 0.670876 0.807261 -0.280546
C69   C     C_R   0.182699 0.786305 0.766679 -0.059599
C70   C     C_R   0.817436 0.213910 0.233238 -0.061213
C71   C     C_R   0.817335 0.785762 0.233151 -0.066161
C72   C     C_R   0.182099 0.215143 0.766853 -0.054002
C73   C     C_R   0.682700 0.286307 0.766680 -0.059770
C74   C     C_R   0.317442 0.713921 0.233237 -0.061084
C75   C     C_R   0.317531 0.285500 0.233232 -0.065014
C76   C     C_R   0.682046 0.715328 0.767097 -0.055377
C77   C     C_R   0.208760 0.762668 0.816908 0.134495
C78   C     C_R   0.791595 0.237936 0.182835 0.134413
C79   C     C_R   0.791035 0.761807 0.182992 0.136905
C80   C     C_R   0.207585 0.240785 0.817360 0.136817
C81   C     C_R   0.708763 0.262675 0.816910 0.134575
C82   C     C_R   0.291609 0.737962 0.182831 0.134321
C83   C     C_R   0.291433 0.261027 0.183108 0.135285
C84   C     C_R   0.707398 0.741084 0.817907 0.138320
C85   C     C_R   0.195740 0.632021 0.530583 0.838865
C86   C     C_R   0.803550 0.368440 0.472490 0.839095
C87   C     C_R   0.798808 0.630877 0.487832 0.855723
C88   C     C_R   0.196629 0.368348 0.527410 0.835733
C89   C     C_R   0.695734 0.132025 0.530603 0.838964
C90   C     C_R   0.303542 0.868447 0.472531 0.839090
C91   C     C_R   0.298786 0.130882 0.487907 0.856461
C92   C     C_R   0.696625 0.868348 0.527428 0.835656
C93   C     C_R   0.190505 0.786846 0.905060 0.016989
C94   C     C_R   0.809906 0.213880 0.094615 0.017156
C95   C     C_R   0.810197 0.784629 0.094211 0.019045
C96   C     C_R   0.189880 0.216040 0.904979 0.017432
C97   C     C_R   0.690499 0.286841 0.905069 0.016879
C98   C     C_R   0.309911 0.713897 0.094615 0.017239
C99   C     C_R   0.309563 0.285297 0.095157 0.018987
C100  C     C_R   0.688719 0.717637 0.906355 0.018160
C101  C     C_R   0.926347 0.903185 0.066587 0.815951
C102  C     C_R   0.073821 0.096621 0.933264 0.816927
C103  C     C_R   0.073801 0.903471 0.933185 0.814365
C104  C     C_R   0.926220 0.096560 0.066798 0.814303
C105  C     C_R   0.426263 0.403282 0.066653 0.815960
C106  C     C_R   0.573729 0.596735 0.933330 0.816874
C107  C     C_R   0.573800 0.403470 0.933185 0.813866
C108  C     C_R   0.426220 0.596560 0.066798 0.814759
C109  C     C_R   0.021729 0.623282 0.592557 0.055767
C110  C     C_R   0.963290 0.376161 0.462946 0.053569
C111  C     C_R   0.923758 0.619796 0.578526 0.056226
C112  C     C_R   0.044230 0.371260 0.519069 0.043541
C113  C     C_R   0.521632 0.123251 0.592909 0.056331
C114  C     C_R   0.463206 0.876160 0.463244 0.053435
C115  C     C_R   0.423631 0.119760 0.578941 0.056553
C116  C     C_R   0.544147 0.871248 0.519362 0.043963
C117  C     C_R   0.985597 0.681079 0.622425 -0.205337
C118  C     C_R   0.991475 0.312326 0.456425 -0.204578
C119  C     C_R   0.937123 0.678781 0.617135 -0.205016
C120  C     C_R   0.029269 0.309035 0.488831 -0.203431
C121  C     C_R   0.485460 0.181005 0.622907 -0.206905
C122  C     C_R   0.491381 0.812319 0.456737 -0.202965
C123  C     C_R   0.436969 0.178699 0.617660 -0.208602
C124  C     C_R   0.529175 0.809022 0.489143 -0.201410
C125  C     C_R   0.959233 0.561387 0.548718 0.024850
C126  C     C_R   0.019935 0.436511 0.518443 0.023153
C127  C     C_R   0.006998 0.562192 0.559045 0.023873
C128  C     C_R   0.976209 0.437738 0.498108 0.021956
C129  C     C_R   0.459116 0.061360 0.549103 0.024825
C130  C     C_R   0.519842 0.936497 0.518761 0.023252
C131  C     C_R   0.506894 0.062167 0.559400 0.024037
C132  C     C_R   0.476112 0.937727 0.498438 0.022126
C133  C     C_R   0.445271 0.000162 0.514264 -0.058739
C134  C     C_R   0.537381 0.999632 0.543492 -0.060287
C135  C     C_R   0.945374 0.500174 0.513921 -0.058721
C136  C     C_R   0.037467 0.499645 0.543192 -0.060188
C137  C     C_R   0.385218 0.937735 0.465848 0.061493
C138  C     C_R   0.606984 0.064643 0.565725 0.063513
C139  C     C_R   0.610788 0.933520 0.550125 0.056664
C140  C     C_R   0.366110 0.061566 0.521583 0.059310
C141  C     C_R   0.885275 0.437723 0.465624 0.061313
C142  C     C_R   0.107025 0.564639 0.565566 0.063555
C143  C     C_R   0.110827 0.433522 0.549958 0.056084
C144  C     C_R   0.866192 0.561557 0.521319 0.059670
C145  C     C_R   0.334379 0.935883 0.464249 -0.086566
C146  C     C_R   0.661940 0.065458 0.550980 -0.089556
C147  C     C_R   0.663447 0.934181 0.544883 -0.097262
C148  C     C_R   0.324549 0.063678 0.494271 -0.091801
C149  C     C_R   0.834409 0.435868 0.464113 -0.086597
C150  C     C_R   0.161958 0.565451 0.550917 -0.089626
C151  C     C_R   0.163461 0.434180 0.544817 -0.097191
C152  C     C_R   0.824595 0.563667 0.494104 -0.091646
C153  C     C_R   0.307859 0.000159 0.470511 -0.306309
C154  C     C_R   0.688091 0.000060 0.543543 -0.304285
C155  C     C_R   0.807888 0.500147 0.470381 -0.307275
C156  C     C_R   0.188098 0.500054 0.543522 -0.303466
Cu1   Cu    Cu3+1 0.209920 0.785290 0.495070 0.951981
Cu2   Cu    Cu3+1 0.790080 0.214710 0.504930 0.948545
Cu3   Cu    Cu3+1 0.790080 0.785290 0.504930 0.945924
Cu4   Cu    Cu3+1 0.209920 0.214710 0.495070 0.946624
Cu5   Cu    Cu3+1 0.709920 0.285290 0.495070 0.951554
Cu6   Cu    Cu3+1 0.290080 0.714710 0.504930 0.949093
Cu7   Cu    Cu3+1 0.290080 0.285290 0.504930 0.946265
Cu8   Cu    Cu3+1 0.709920 0.714710 0.495070 0.947632
Cu9   Cu    Cu3+1 0.495240 0.500000 0.924150 0.933163
Cu10  Cu    Cu3+1 0.504760 0.500000 0.075850 0.936390
Cu11  Cu    Cu3+1 0.995240 0.000000 0.924150 0.932683
Cu12  Cu    Cu3+1 0.004760 0.000000 0.075850 0.936691
H1    H     H_    0.548355 0.758257 0.486281 0.135022
H2    H     H_    0.410803 0.224545 0.642700 0.132315
H3    H     H_    0.482670 0.763475 0.431159 0.134119
H4    H     H_    0.493872 0.228500 0.651333 0.135121
H5    H     H_    0.048450 0.258271 0.485975 0.134615
H6    H     H_    0.910988 0.724665 0.642064 0.133455
H7    H     H_    0.982765 0.263479 0.430849 0.133951
H8    H     H_    0.994021 0.728598 0.650793 0.135469
H9    H     H_    0.272437 0.000263 0.459825 0.192545
H10   H     H_    0.729422 0.000470 0.532864 0.192728
H11   H     H_    0.772442 0.500250 0.459760 0.192265
H12   H     H_    0.229415 0.500463 0.532916 0.192875
H13   H     H_    0.162135 0.691175 0.039934 0.137422
H14   H     H_    0.838229 0.309821 0.959923 0.136628
H15   H     H_    0.745502 0.873405 0.061373 0.137430
H16   H     H_    0.160298 0.306368 0.045459 0.136190
H17   H     H_    0.662219 0.190979 0.039726 0.137129
H18   H     H_    0.338324 0.809650 0.959708 0.137035
H19   H     H_    0.339308 0.195406 0.954188 0.136906
H20   H     H_    0.753608 0.629159 0.938832 0.137111
H21   H     H_    0.286069 0.842589 0.880961 0.135274
H22   H     H_    0.714470 0.158047 0.118456 0.134181
H23   H     H_    0.807368 0.658075 0.016672 0.133714
H24   H     H_    0.287143 0.164562 0.874190 0.129122
H25   H     H_    0.785970 0.342759 0.881180 0.134579
H26   H     H_    0.214382 0.658243 0.118669 0.134672
H27   H     H_    0.212515 0.337351 0.125325 0.134059
H28   H     H_    0.691609 0.844439 0.983747 0.132720
H29   H     H_    0.131917 0.849424 0.011589 0.164212
H30   H     H_    0.868414 0.151172 0.988130 0.163287
H31   H     H_    0.868715 0.847729 0.987959 0.162865
H32   H     H_    0.132063 0.152023 0.011210 0.163395
H33   H     H_    0.631909 0.349416 0.011597 0.163937
H34   H     H_    0.368415 0.651181 0.988132 0.163580
H35   H     H_    0.368082 0.348232 0.988552 0.162540
H36   H     H_    0.631141 0.653011 0.011991 0.163928
H37   H     H_    0.117473 0.848121 0.768739 0.183809
H38   H     H_    0.882374 0.151570 0.231395 0.184186
H39   H     H_    0.883076 0.847713 0.230796 0.185712
H40   H     H_    0.117601 0.150818 0.768457 0.185132
H41   H     H_    0.617471 0.348117 0.768742 0.183755
H42   H     H_    0.382370 0.651560 0.231400 0.184282
H43   H     H_    0.382771 0.348440 0.231123 0.185788
H44   H     H_    0.617460 0.651224 0.768615 0.185153
O1    O     O_R   0.255040 0.869590 0.478480 -0.591296
O2    O     O_R   0.744960 0.130410 0.521520 -0.592502
O3    O     O_R   0.744960 0.869590 0.521520 -0.593313
O4    O     O_R   0.255040 0.130410 0.478480 -0.594835
O5    O     O_R   0.755040 0.369590 0.478480 -0.591516
O6    O     O_R   0.244960 0.630410 0.521520 -0.592306
O7    O     O_R   0.244960 0.369590 0.521520 -0.592420
O8    O     O_R   0.755040 0.630410 0.478480 -0.595761
O9    O     O_R   0.182050 0.796550 0.624440 -0.599238
O10   O     O_R   0.817950 0.203450 0.375560 -0.600857
O11   O     O_R   0.817950 0.796550 0.375560 -0.598436
O12   O     O_R   0.182050 0.203450 0.624440 -0.603268
O13   O     O_R   0.682050 0.296550 0.624440 -0.599187
O14   O     O_R   0.317950 0.703450 0.375560 -0.600847
O15   O     O_R   0.317950 0.296550 0.375560 -0.598559
O16   O     O_R   0.682050 0.703450 0.624440 -0.603032
O17   O     O_R   0.250530 0.763330 0.367210 -0.550824
O18   O     O_R   0.749470 0.236670 0.632790 -0.552350
O19   O     O_R   0.749470 0.763330 0.632790 -0.556741
O20   O     O_R   0.250530 0.236670 0.367210 -0.550785
O21   O     O_R   0.750530 0.263330 0.367210 -0.550900
O22   O     O_R   0.249470 0.736670 0.632790 -0.552264
O23   O     O_R   0.249470 0.263330 0.632790 -0.557688
O24   O     O_R   0.750530 0.736670 0.367210 -0.548992
O25   O     O_R   0.177260 0.690030 0.513710 -0.571320
O26   O     O_R   0.822740 0.309970 0.486290 -0.576218
O27   O     O_R   0.822740 0.690030 0.486290 -0.578980
O28   O     O_R   0.177260 0.309970 0.513710 -0.573374
O29   O     O_R   0.677260 0.190030 0.513710 -0.571110
O30   O     O_R   0.322740 0.809970 0.486290 -0.576351
O31   O     O_R   0.322740 0.190030 0.486290 -0.579070
O32   O     O_R   0.677260 0.809970 0.513710 -0.572118
O33   O     O_R   0.051640 0.926880 0.885090 -0.589925
O34   O     O_R   0.948360 0.073120 0.114910 -0.589173
O35   O     O_R   0.948360 0.926880 0.114910 -0.588214
O36   O     O_R   0.051640 0.073120 0.885090 -0.588991
O37   O     O_R   0.551640 0.426880 0.885090 -0.590044
O38   O     O_R   0.448360 0.573120 0.114910 -0.589034
O39   O     O_R   0.448360 0.426880 0.114910 -0.588238
O40   O     O_R   0.551640 0.573120 0.885090 -0.589002
O41   O     O_R   0.940620 0.926560 0.986760 -0.594031
O42   O     O_R   0.059380 0.073440 0.013240 -0.592783
O43   O     O_R   0.059380 0.926560 0.013240 -0.592029
O44   O     O_R   0.940620 0.073440 0.986760 -0.592957
O45   O     O_R   0.440620 0.426560 0.986760 -0.593703
O46   O     O_R   0.559380 0.573440 0.013240 -0.593022
O47   O     O_R   0.559380 0.426560 0.013240 -0.592318
O48   O     O_R   0.440620 0.573440 0.986760 -0.592639
N1    N     N_3   0.578099 0.812938 0.613034 -0.560682
H45   H     H_    0.584041 0.763601 0.580586 0.226477
H46   H     H_    0.539079 0.812610 0.665996 0.207752
N2    N     N_3   0.330734 0.161817 0.628832 -0.572457
H47   H     H_    0.342110 0.215416 0.613679 0.245163
H48   H     H_    0.322204 0.152574 0.695040 0.200214
N3    N     N_3   0.421900 0.830503 0.371073 -0.580305
H49   H     H_    0.417289 0.778061 0.394886 0.232119
H50   H     H_    0.459225 0.834335 0.314342 0.211268
N4    N     N_3   0.582068 0.180181 0.646200 -0.576688
H51   H     H_    0.551177 0.180238 0.711715 0.207433
H52   H     H_    0.582239 0.229552 0.617068 0.231945
N5    N     N_3   0.078088 0.312954 0.612865 -0.560026
H53   H     H_    0.084036 0.263609 0.580430 0.226239
H54   H     H_    0.039053 0.312648 0.665782 0.207980
N6    N     N_3   0.830785 0.661647 0.628761 -0.570888
H55   H     H_    0.842060 0.715291 0.613770 0.247145
H56   H     H_    0.822334 0.652261 0.694909 0.207058
N7    N     N_3   0.921893 0.330431 0.370935 -0.580785
H57   H     H_    0.917278 0.278009 0.394810 0.232181
H58   H     H_    0.959201 0.334219 0.314162 0.209778
N8    N     N_3   0.082059 0.680138 0.646113 -0.576469
H59   H     H_    0.051115 0.680176 0.711584 0.208424
H60   H     H_    0.082281 0.729533 0.616994 0.231825
N9    N     N_3   0.253254 0.713896 0.778837 -0.564377
H61   H     H_    0.244376 0.668946 0.820035 0.220381
H62   H     H_    0.287662 0.739030 0.775546 0.220003
N10   N     N_3   0.747264 0.286964 0.220806 -0.564922
H63   H     H_    0.712821 0.262126 0.223847 0.220573
H64   H     H_    0.756373 0.331975 0.179655 0.219391
N11   N     N_3   0.744030 0.716717 0.222920 -0.565347
H65   H     H_    0.751890 0.668663 0.187342 0.214397
H66   H     H_    0.711959 0.742408 0.219203 0.223567
N12   N     N_3   0.250472 0.292664 0.780485 -0.572359
H67   H     H_    0.285568 0.270588 0.777336 0.209266
H68   H     H_    0.239915 0.337297 0.822586 0.220823
N13   N     N_3   0.753275 0.213933 0.778829 -0.564795
H69   H     H_    0.744402 0.168965 0.819998 0.219467
H70   H     H_    0.787667 0.239080 0.775588 0.220128
N14   N     N_3   0.247301 0.787027 0.220789 -0.564493
H71   H     H_    0.212839 0.762210 0.223876 0.220405
H72   H     H_    0.256421 0.832021 0.179610 0.220356
N15   N     N_3   0.247203 0.211193 0.220965 -0.566101
H73   H     H_    0.256058 0.166584 0.179053 0.220191
H74   H     H_    0.212492 0.235557 0.225400 0.218447
N16   N     N_3   0.752699 0.789167 0.779163 -0.574442
H75   H     H_    0.785440 0.766388 0.783749 0.213084
H76   H     H_    0.742666 0.837113 0.815104 0.215100

loop_
_geom_bond_atom_site_label_1
_geom_bond_atom_site_label_2
_ccdc_geom_bond_type
Cu5   O5    S    
C22   C94   S    
N11   H65   S    
C34   C42   A    
C16   C113  A    
C110  C118  A    
N15   H74   S    
C40   H19   S    
C27   C99   S    
N8    H59   S    
C13   C139  A    
C117  C119  A    
C82   N14   S    
C46   H30   S    
C30   C38   A    
C106  O40   A    
C109  C127  A    
C111  C125  A    
C67   H43   S    
Cu5   O29   S    
C34   H26   S    
C143  C151  A    
C126  C136  A    
C19   C141  A    
C92   C147  S    
C82   C98   A    
C130  C134  A    
Cu7   O15   S    
C73   C81   A    
C153  H9    S    
C50   H34   S    
C42   H13   S    
C115  C123  A    
C84   C100  A    
Cu4   Cu7   S    
C87   O27   A    
C127  C136  A    
C128  C135  A    
C112  C120  A    
C27   C35   A    
C21   C29   A    
C108  O38   A    
Cu3   O19   S    
C101  O41   A    
C24   C32   A    
C5    C70   S    
N15   H73   S    
C146  C154  A    
Cu12  O42   S    
N16   H75   S    
C8    O11   A    
C14   N2    S    
Cu2   O26   S    
C129  C133  A    
Cu4   O12   S    
C63   C71   A    
N4    H52   S    
C41   H14   S    
C36   C44   A    
C148  C153  A    
C4    O20   A    
N14   H71   S    
C137  C145  A    
C8    C71   S    
C48   C96   A    
C16   C138  A    
C77   N9    S    
C17   N5    S    
C83   N15   S    
C88   O7    A    
C24   C96   S    
C149  C155  A    
N9    H62   S    
C156  H12   S    
C21   C93   S    
C78   C94   A    
C86   O26   A    
C23   C95   S    
N7    H58   S    
C118  C120  A    
C121  C123  A    
C25   C33   A    
C49   C97   A    
C21   C42   A    
Cu5   O21   S    
C125  C127  A    
C24   C43   A    
C10   C138  A    
C3    O16   A    
C62   H38   S    
C110  C128  A    
C89   O2    A    
C15   C137  A    
Cu7   O7    S    
C1    O14   A    
C6    C69   S    
Cu11  O41   S    
C69   C77   A    
C45   C93   A    
Cu4   O4    S    
C71   C79   A    
Cu1   O17   S    
C62   C70   A    
C103  O33   A    
C155  H11   S    
C1    C74   S    
N11   H66   S    
C119  H6    S    
N1    H45   S    
C9    C140  A    
C45   H29   S    
Cu11  O36   S    
C66   C74   A    
C49   C57   A    
C92   O3    A    
C111  C119  A    
C4    O15   A    
C52   C60   A    
C59   C67   A    
C53   C61   A    
Cu9   O45   S    
N2    H47   S    
C55   C63   A    
C56   C64   A    
Cu7   O31   S    
C66   H42   S    
C35   C43   A    
C58   C108  S    
C5    O10   A    
C6    O22   A    
C45   C53   A    
Cu1   O9    S    
N13   H70   S    
C47   H31   S    
C78   N10   S    
Cu6   O14   S    
C18   N6    S    
C49   H33   S    
C50   C98   A    
Cu3   O3    S    
C3    O19   A    
C7    C72   S    
C23   C31   A    
C52   C100  A    
N10   H64   S    
C85   O6    A    
C36   H28   S    
C25   C38   A    
C46   C94   A    
C27   C40   A    
C116  C130  A    
C87   O8    A    
C11   C141  A    
C44   H15   S    
C60   C68   A    
C2    C73   S    
C39   H20   S    
C25   C97   S    
C14   C140  A    
C104  O34   A    
C87   C152  S    
C90   O30   A    
C88   C151  S    
C67   C75   A    
C122  C124  A    
C68   H44   S    
C60   C106  S    
C126  C128  A    
C22   C30   A    
N6    H56   S    
C16   N4    S    
N3    H49   S    
Cu2   O2    S    
N8    H60   S    
C12   C143  A    
C56   C102  S    
C72   C80   A    
C84   N16   S    
C125  C135  A    
C138  C146  A    
Cu1   Cu6   S    
N5    H54   S    
C30   H22   S    
C123  H2    S    
Cu7   O23   S    
C2    O18   A    
Cu12  O35   S    
C113  C121  A    
N6    H55   S    
C122  H3    S    
C12   C136  A    
Cu3   Cu8   S    
C63   H39   S    
C9    C133  A    
C19   N7    S    
Cu6   O6    S    
Cu8   O24   S    
Cu9   O40   S    
C103  O43   A    
C131  C134  A    
C76   C84   A    
C109  C117  A    
C59   C105  S    
C48   H32   S    
Cu10  O46   S    
C54   C104  S    
C90   C145  S    
C15   N3    S    
N12   H67   S    
C22   C41   A    
C14   C115  A    
C88   O28   A    
C31   H23   S    
C32   H24   S    
C85   C150  S    
C4    C75   S    
Cu2   Cu5   S    
C9    C137  A    
C124  H1    S    
N14   H72   S    
N16   H76   S    
N7    H57   S    
Cu6   O30   S    
C113  C131  A    
C112  C126  A    
C35   H27   S    
C33   H25   S    
C83   C99   A    
C140  C148  A    
C20   N8    S    
C74   C82   A    
C51   H35   S    
C7    O23   A    
C50   C58   A    
Cu11  Cu12  S    
C54   C62   A    
C28   C39   A    
C23   C44   A    
C52   H36   S    
C130  C132  A    
C79   C95   A    
C91   O4    A    
C11   C135  A    
C37   H18   S    
C152  C155  A    
C46   C54   A    
Cu10  O38   S    
C151  C156  A    
C18   C111  A    
C8    O24   A    
Cu1   O25   S    
C154  H10   S    
C68   C76   A    
C10   C139  A    
Cu8   O32   S    
C105  O45   A    
Cu11  O44   S    
C116  C124  A    
C57   C65   A    
C26   C37   A    
Cu10  O39   S    
C17   C143  A    
C33   C41   A    
C142  C150  A    
C18   C144  A    
N10   H63   S    
C7    O12   A    
N3    H50   S    
C75   C83   A    
C53   C103  S    
C77   C93   A    
C12   C142  A    
C85   O25   A    
C13   C116  A    
Cu6   O22   S    
C28   C36   A    
N2    H48   S    
C29   C37   A    
Cu3   O27   S    
N4    H51   S    
C102  O42   A    
C90   O1    A    
C144  C152  A    
C2    O13   A    
C79   N11   S    
Cu12  O34   S    
Cu9   Cu10  S    
C70   C78   A    
N13   H69   S    
Cu2   O18   S    
C141  C149  A    
C64   H40   S    
C139  C147  A    
N9    H61   S    
Cu9   O37   S    
C107  O47   A    
C43   H16   S    
C65   C73   A    
C147  C154  A    
C58   C66   A    
C132  C133  A    
C80   C96   A    
C11   C144  A    
C65   H41   S    
C6    O9    A    
C145  C153  A    
Cu8   O8    S    
C32   C40   A    
Cu2   O10   S    
C5    O21   A    
C91   C148  S    
C26   C34   A    
Cu5   O13   S    
C51   C99   A    
C89   C146  S    
C107  O37   A    
C20   C142  A    
C102  O36   A    
C105  O39   A    
C86   C149  S    
N1    H46   S    
Cu11  O33   S    
Cu12  O43   S    
C86   O5    A    
C81   N13   S    
C121  H4    S    
Cu4   O20   S    
N5    H53   S    
C15   C114  A    
Cu8   O16   S    
C3    C76   S    
C26   C98   S    
C117  H8    S    
C80   N12   S    
C57   C107  S    
C91   O31   A    
C118  H7    S    
C89   O29   A    
C108  O48   A    
C51   C59   A    
C17   C112  A    
C47   C55   A    
C115  C129  A    
C19   C110  A    
C61   C69   A    
C48   C56   A    
Cu4   O28   S    
C114  C132  A    
C10   C134  A    
C38   H17   S    
C55   C101  S    
Cu1   O1    S    
C104  O44   A    
Cu9   O48   S    
Cu10  O47   S    
N12   H68   S    
C92   O32   A    
C28   C100  S    
C81   C97   A    
Cu3   O11   S    
C31   C39   A    
C29   H21   S    
C64   C72   A    
C20   C109  A    
C114  C122  A    
C1    O17   A    
C120  H5    S    
C61   H37   S    
C106  O46   A    
C47   C95   A    
C150  C156  A    
C13   N1    S    
C129  C131  A    
C101  O35   A    
