data_mof_unit_9.cif
_audit_creation_date              2012-12-11T14:21:10-0500
_audit_creation_method            fapswitch 2.2
_symmetry_space_group_name_H-M    P1
_symmetry_Int_Tables_number       1
_space_group_crystal_system       triclinic
_cell_length_a                    11.514733
_cell_length_b                    11.613772
_cell_length_c                    19.363484
_cell_angle_alpha                 90.584232
_cell_angle_beta                  89.362927
_cell_angle_gamma                 59.423201
_cell_volume                      2228.88233917

loop_
_atom_site_label
_atom_site_type_symbol
_atom_type_description
_atom_site_fract_x
_atom_site_fract_y
_atom_site_fract_z
_atom_type_partial_charge
C1    C     C_R   0.640849 0.118470 0.598741 0.552234
C2    C     C_1   0.652697 0.681236 0.663257 0.003851
C3    C     C_1   0.151707 0.185903 0.864205 0.007150
C4    C     C_1   0.234927 0.141562 0.736292 -0.031382
C5    C     C_1   0.195010 0.160687 0.806030 -0.027394
C6    C     C_1   0.264654 0.130467 0.676078 0.002193
C7    C     C_1   0.677929 0.190130 0.861357 0.005301
C8    C     C_1   0.657463 0.168693 0.728985 -0.032498
C9    C     C_1   0.664667 0.180793 0.800629 -0.030900
C10   C     C_1   0.652289 0.151652 0.668215 0.001377
C11   C     C_R   0.695819 0.574902 0.209732 -0.003238
C12   C     C_R   0.614163 0.742803 0.597556 0.534156
C13   C     C_R   0.580835 0.596425 0.250047 0.024395
C14   C     C_R   0.595182 0.584175 0.321999 0.039208
C15   C     C_R   0.799156 0.590937 0.315625 -0.157561
C16   C     C_R   0.809981 0.556712 0.245222 -0.152746
C17   C     C_R   0.449694 0.639312 0.224932 -0.101039
C18   C     C_R   0.347727 0.650457 0.269264 -0.151447
C19   C     C_R   0.376599 0.606867 0.336855 -0.118733
C20   C     C_R   0.502690 0.567646 0.362450 -0.079610
C21   C     C_R   0.682511 0.620086 0.352428 -0.004852
C22   C     C_R   0.170104 0.178146 0.186174 0.012472
C23   C     C_R   0.300400 0.119186 0.604718 0.561336
C24   C     C_R   0.200418 0.264241 0.222225 0.005972
C25   C     C_R   0.179252 0.277371 0.293936 0.030013
C26   C     C_R   0.184655 0.065407 0.294015 -0.179873
C27   C     C_R   0.172266 0.070778 0.222145 -0.004125
C28   C     C_R   0.236785 0.347811 0.187756 -0.077718
C29   C     C_R   0.223792 0.459808 0.221170 -0.129630
C30   C     C_R   0.177713 0.487368 0.289502 -0.152733
C31   C     C_R   0.154362 0.398142 0.325578 -0.088875
C32   C     C_R   0.186969 0.168452 0.330976 -0.017797
C33   C     C_R   0.647239 0.173444 0.182953 -0.009296
C34   C     C_R   0.620727 0.080133 0.393851 0.558652
C35   C     C_R   0.706621 0.038296 0.200728 0.035116
C36   C     C_R   0.713522 0.004888 0.271181 0.019051
C37   C     C_R   0.552461 0.239859 0.297641 -0.130846
C38   C     C_R   0.563922 0.272991 0.230436 -0.155463
C39   C     C_R   0.769360 0.935882 0.149776 -0.068234
C40   C     C_R   0.860663 0.806385 0.168502 -0.096957
C41   C     C_R   0.883549 0.777210 0.237789 -0.144121
C42   C     C_R   0.805295 0.871422 0.288744 -0.111105
C43   C     C_R   0.632569 0.107437 0.320454 -0.002526
C44   C     C_R   0.085857 0.228980 0.929880 0.540995
C45   C     C_R   0.625685 0.723115 0.408658 0.537147
C46   C     C_R   0.710697 0.544634 0.922474 0.562312
C47   C     C_R   0.707567 0.205939 0.930667 0.533828
C48   C     C_R   0.090511 0.230766 0.122739 0.545259
C49   C     C_R   0.707528 0.551161 0.133922 0.565359
C50   C     C_R   0.702103 0.208664 0.123784 0.524394
C51   C     C_R   0.242086 0.142332 0.401311 0.548144
C52   C     C_1   0.701943 0.577791 0.851204 0.001658
C53   C     C_1   0.675237 0.641469 0.721369 -0.027898
C54   C     C_1   0.692357 0.605034 0.791075 -0.029912
Cr1   Cr    Cr6+3 0.404720 0.198220 0.499960 1.012171
Cr2   Cr    Cr6+3 0.698290 0.897110 0.500380 1.007675
Cr3   Cr    Cr6+3 0.396970 0.904720 0.499610 1.022899
Cr4   Cr    Cr6+3 0.926180 0.151990 0.028120 1.064357
Cr5   Cr    Cr6+3 0.921330 0.451820 0.027470 1.013261
Cr6   Cr    Cr6+3 0.626260 0.446870 0.028710 1.023814
H1    H     H_    0.877030 0.601435 0.340297 0.110399
H2    H     H_    0.242035 0.528106 0.192215 0.112876
H3    H     H_    0.154015 0.580554 0.314103 0.095500
H4    H     H_    0.113062 0.426628 0.377534 0.134775
H5    H     H_    0.486601 0.320612 0.332790 0.159043
H6    H     H_    0.753536 0.957254 0.095243 0.132468
H7    H     H_    0.514056 0.377090 0.216717 0.147318
H8    H     H_    0.916078 0.729512 0.129450 0.133432
H9    H     H_    0.958544 0.679005 0.251973 0.114176
H10   H     H_    0.822786 0.837129 0.340910 0.158458
H11   H     H_    0.417732 0.675615 0.173839 0.196490
H12   H     H_    0.903200 0.527039 0.217323 0.149831
H13   H     H_    0.246061 0.692862 0.251043 0.101128
H14   H     H_    0.299575 0.612428 0.371403 0.106545
H15   H     H_    0.520534 0.544061 0.416729 0.124743
H16   H     H_    0.195553 0.979069 0.320912 0.133543
H17   H     H_    0.268574 0.330309 0.133913 0.134580
O1    O     O_R   0.267740 0.231960 0.575440 -0.502378
O2    O     O_R   0.685970 0.784660 0.430010 -0.525933
O3    O     O_R   0.502530 0.767000 0.423990 -0.508557
O4    O     O_R   0.288330 0.026350 0.429250 -0.486366
O5    O     O_3   0.499990 0.000020 0.499980 -0.284489
O6    O     O_R   0.821500 0.119340 0.952830 -0.504138
O7    O     O_R   0.037130 0.162530 0.957360 -0.481506
O8    O     O_R   0.056440 0.344740 0.951340 -0.515288
O9    O     O_R   0.797900 0.560360 0.957470 -0.479982
O10   O     O_R   0.596130 0.579390 0.952730 -0.482579
O11   O     O_R   0.639060 0.321160 0.958670 -0.513182
O12   O     O_R   0.527280 0.186640 0.570530 -0.505966
O13   O     O_R   0.821240 0.124200 0.104370 -0.509659
O14   O     O_R   0.036890 0.167040 0.097840 -0.447692
O15   O     O_R   0.056180 0.349610 0.102880 -0.546023
O16   O     O_R   0.797660 0.564870 0.097950 -0.492229
O17   O     O_R   0.595880 0.584250 0.104270 -0.510771
O18   O     O_R   0.638830 0.325670 0.099150 -0.522833
O19   O     O_3   0.824590 0.350230 0.028100 -0.298283
O20   O     O_R   0.728090 0.003450 0.576380 -0.496082
O21   O     O_R   0.682970 0.789190 0.570490 -0.497405
O22   O     O_R   0.499290 0.771880 0.575530 -0.515647
O23   O     O_R   0.285330 0.030870 0.569730 -0.485302
O24   O     O_R   0.270980 0.227080 0.423890 -0.527718
O25   O     O_R   0.530280 0.182120 0.430050 -0.501296
O26   O     O_R   0.731330 0.998570 0.424830 -0.522594
C55   C     C_2   0.166130 0.960250 0.187096 0.250667
H18   H     H_    0.118760 0.912137 0.213241 0.087899
O27   O     O_2   0.217911 0.918903 0.130012 -0.497214

loop_
_geom_bond_atom_site_label_1
_geom_bond_atom_site_label_2
_ccdc_geom_bond_type
C25   C31   A    
C22   C48   S    
C26   C32   A    
C41   C42   A    
C36   C42   A    
C35   C36   A    
C16   H12   S    
Cr2   O21   S    
C2    C12   S    
C55   O27   D    
Cr6   O11   S    
C53   C54   S    
Cr1   O25   S    
C26   C27   A    
C29   C30   A    
Cr2   O2    S    
C14   C21   A    
C28   C29   A    
C30   C31   A    
C50   O18   A    
C15   C16   A    
Cr3   O22   S    
C46   C52   S    
C27   C55   S    
C42   H10   S    
C18   C19   A    
Cr4   O19   S    
C12   O22   A    
C50   O13   A    
C19   C20   A    
C8    C9    S    
C48   O14   A    
C37   H5    S    
C26   H16   S    
C47   O6    A    
C49   O17   A    
Cr4   O14   S    
C51   O4    A    
C12   O21   A    
C25   C32   A    
C23   O23   A    
C30   H3    S    
Cr3   O3    S    
Cr2   O20   S    
C55   H18   S    
Cr6   O10   S    
C52   C54   T    
C21   C45   S    
C3    C44   S    
C34   C43   S    
C14   C20   A    
C24   C25   A    
C4    C6    T    
C1    O20   A    
C39   C40   A    
Cr1   O1    S    
C3    C5    T    
C33   C50   S    
Cr3   O23   S    
C20   H15   S    
C7    C47   S    
C37   C43   A    
C35   C39   A    
Cr5   O8    S    
C32   C51   S    
C37   C38   A    
C11   C49   S    
Cr4   O7    S    
C11   C16   A    
C17   C18   A    
C15   H1    S    
C45   O2    A    
C34   O25   A    
Cr1   O5    S    
C28   H17   S    
Cr4   O13   S    
Cr6   O19   S    
C40   C41   A    
C17   H11   S    
C18   H13   S    
C22   C27   A    
C40   H8    S    
C39   H6    S    
C22   C24   A    
Cr5   O19   S    
C44   O8    A    
C41   H9    S    
C46   O10   A    
C7    C9    T    
C29   H2    S    
C1    O12   A    
C31   H4    S    
C19   H14   S    
C1    C10   S    
C24   C28   A    
Cr2   O26   S    
C4    C5    S    
C44   O7    A    
C2    C53   T    
Cr2   O5    S    
C51   O24   A    
Cr1   O24   S    
C33   C38   A    
C13   C17   A    
C47   O11   A    
Cr5   O9    S    
Cr1   O12   S    
Cr4   O6    S    
C11   C13   A    
C6    C23   S    
C34   O26   A    
C33   C35   A    
C45   O3    A    
Cr3   O4    S    
Cr5   O15   S    
C23   O1    A    
Cr6   O18   S    
C15   C21   A    
C38   H7    S    
C8    C10   T    
C48   O15   A    
Cr3   O5    S    
C36   C43   A    
Cr5   O16   S    
C49   O16   A    
C13   C14   A    
C46   O9    A    
Cr6   O17   S    
