data_mof_unit_3262.cif
_audit_creation_date              2012-10-26T20:20:48-0400
_audit_creation_method            fapswitch 2.2
_symmetry_space_group_name_H-M    P1
_symmetry_Int_Tables_number       1
_space_group_crystal_system       triclinic
_cell_length_a                    8.776887
_cell_length_b                    10.794825
_cell_length_c                    9.527618
_cell_angle_alpha                 89.640508
_cell_angle_beta                  97.283797
_cell_angle_gamma                 90.627279
_cell_volume                      895.344817381

loop_
_atom_site_label
_atom_site_type_symbol
_atom_type_description
_atom_site_fract_x
_atom_site_fract_y
_atom_site_fract_z
_atom_type_partial_charge
C1    C     C_R   0.499609 0.262492 0.500292 0.609952
C2    C     C_R   0.606648 0.065118 0.595495 0.060696
C3    C     C_R   0.498847 0.871536 0.498667 0.037496
C4    C     C_R   0.498705 0.128701 0.500850 0.057427
C5    C     C_R   0.405743 0.421613 0.064491 -0.037468
C6    C     C_R   0.594238 0.578402 0.935510 -0.037083
C7    C     C_R   0.402940 0.421902 0.913561 0.392400
C8    C     C_R   0.597034 0.578117 0.086439 0.387254
C9    C     C_3   0.176446 0.302279 0.879114 -0.134058
C10   C     C_3   0.823517 0.697749 0.120901 -0.132432
C11   C     C_R   0.498984 0.737582 0.499458 0.576312
C12   C     C_R   0.204506 0.497970 0.464760 0.563334
C13   C     C_R   0.795496 0.502106 0.535234 0.582799
C14   C     C_2   0.040461 0.481665 0.448119 0.094168
C15   C     C_2   0.959541 0.518488 0.551842 0.096080
C16   C     C_R   0.390432 0.065046 0.405816 0.095450
C17   C     C_R   0.606881 0.935334 0.594308 0.072432
C18   C     C_R   0.390017 0.935903 0.404420 0.058735
Cu1   Cu    Cu3+1 0.500000 0.500020 0.640660 1.033461
Cu2   Cu    Cu3+1 0.500000 0.499980 0.359340 1.011459
H1    H     H_    0.334155 0.358586 0.116287 0.126368
H2    H     H_    0.706758 0.889649 0.791634 0.223872
H3    H     H_    0.328314 0.823985 0.235486 0.261358
H4    H     H_    0.216223 0.809377 0.368358 0.226812
H5    H     H_    0.827894 0.110574 0.667814 0.218340
H6    H     H_    0.706500 0.108238 0.793476 0.236500
H7    H     H_    0.118784 0.379890 0.927032 0.089484
H8    H     H_    0.201905 0.225334 0.956196 0.104504
H9    H     H_    0.094333 0.265887 0.790438 0.150787
H10   H     H_    0.798074 0.774719 0.043850 0.104010
H11   H     H_    0.881158 0.620149 0.072943 0.088391
H12   H     H_    0.665824 0.641433 0.883719 0.126225
H13   H     H_    0.905646 0.734093 0.209595 0.153182
H14   H     H_    0.993195 0.463531 0.235180 0.229382
H15   H     H_    0.020160 0.328553 0.324921 0.223838
H16   H     H_    0.979789 0.671637 0.674975 0.221293
H17   H     H_    0.006868 0.536688 0.764768 0.231352
H18   H     H_    0.289922 0.108767 0.208756 0.243818
H19   H     H_    0.169037 0.105127 0.334122 0.242040
H20   H     H_    0.828332 0.893321 0.666151 0.220264
N1    N     N_R   0.500040 0.500030 0.852080 -0.240151
N2    N     N_R   0.499960 0.499970 0.147920 -0.242332
N3    N     N_3   0.969402 0.415688 0.325668 -0.611996
N4    N     N_3   0.030598 0.584519 0.674252 -0.617379
N5    N     N_3   0.278554 0.132529 0.313115 -0.626758
N6    N     N_3   0.718348 0.867306 0.686975 -0.634233
N7    N     N_3   0.274865 0.872237 0.310087 -0.648562
N8    N     N_3   0.717784 0.133451 0.689186 -0.619473
O1    O     O_R   0.499990 0.319660 0.618740 -0.435695
O2    O     O_3   0.688447 0.658916 0.175321 -0.519625
O3    O     O_R   0.500010 0.680340 0.381260 -0.473659
O4    O     O_R   0.499990 0.319630 0.381170 -0.500095
O5    O     O_R   0.500010 0.680370 0.618830 -0.492679
O6    O     O_R   0.274840 0.500010 0.591370 -0.433381
O7    O     O_R   0.725160 0.499990 0.408630 -0.429219
O8    O     O_R   0.274830 0.499980 0.353800 -0.540103
O9    O     O_R   0.725170 0.500020 0.646200 -0.526827
O10   O     O_3   0.311504 0.341118 0.824677 -0.518068

loop_
_geom_bond_atom_site_label_1
_geom_bond_atom_site_label_2
_ccdc_geom_bond_type
C16   N5    S    
C4    C16   A    
Cu2   N2    S    
C5    N2    A    
H19   N5    S    
C9    H9    S    
C10   H13   S    
H15   N3    S    
Cu1   O1    S    
C7    O10   S    
C2    C4    A    
Cu1   Cu2   S    
C11   O5    A    
H6    N8    S    
Cu2   O8    S    
C1    C4    S    
C18   N7    S    
Cu1   O5    S    
H17   N4    S    
C13   C15   S    
Cu2   O4    S    
Cu1   O9    S    
C2    C17   A    
H20   N6    S    
H5    N8    S    
C6    H12   S    
C12   O8    A    
Cu2   O7    S    
Cu1   O6    S    
H2    N6    S    
C12   C14   S    
C15   N4    S    
C3    C17   A    
Cu2   O3    S    
C7    N1    A    
C11   O3    A    
C1    O4    A    
H16   N4    S    
C3    C11   S    
H3    N7    S    
C10   O2    S    
C8    O2    S    
C13   O9    A    
C5    H1    S    
C17   N6    S    
C9    H7    S    
C3    C18   A    
C16   C18   A    
C9    O10   S    
C5    C7    A    
C10   H10   S    
C14   C15   D    
H18   N5    S    
C6    C8    A    
C2    N8    S    
H4    N7    S    
C1    O1    A    
C10   H11   S    
C12   O6    A    
H14   N3    S    
Cu1   N1    S    
C9    H8    S    
C8    N2    A    
C14   N3    S    
C13   O7    A    
C6    N1    A    
