data_mof_unit_2961.cif
_audit_creation_date              2012-12-11T14:04:13-0500
_audit_creation_method            fapswitch 2.2
_symmetry_space_group_name_H-M    P1
_symmetry_Int_Tables_number       1
_space_group_crystal_system       triclinic
_cell_length_a                    18.953211
_cell_length_b                    10.945892
_cell_length_c                    18.845388
_cell_angle_alpha                 90.100368
_cell_angle_beta                  89.983313
_cell_angle_gamma                 90.18207
_cell_volume                      3909.63453998

loop_
_atom_site_label
_atom_site_type_symbol
_atom_type_description
_atom_site_fract_x
_atom_site_fract_y
_atom_site_fract_z
_atom_type_partial_charge
Br1   Br    Br    0.237924 0.083414 0.555168 -0.583481
Br2   Br    Br    0.725437 0.103388 0.410589 -0.573965
Br3   Br    Br    0.718368 0.589506 0.557235 -0.571828
Br4   Br    Br    0.212590 0.596301 0.407189 -0.643491
C1    C     C_R   0.223009 0.525509 0.640217 0.554447
C2    C     C_R   0.997488 0.657060 0.572785 -0.027814
C3    C     C_R   0.446664 0.155180 0.438297 -0.018207
C4    C     C_R   0.498789 0.154033 0.575948 -0.004314
C5    C     C_R   0.997235 0.894755 0.431754 -0.065051
C6    C     C_R   0.968716 0.875786 0.576374 -0.082278
C7    C     C_R   0.436228 0.385683 0.450781 -0.095905
C8    C     C_R   0.449287 0.360448 0.596127 -0.077224
C9    C     C_R   0.978450 0.998166 0.470622 -0.102533
C10   C     C_R   0.962364 0.988012 0.542375 -0.109562
C11   C     C_R   0.426603 0.486252 0.495109 -0.123040
C12   C     C_R   0.761285 0.469278 0.354405 0.574723
C13   C     C_R   0.431195 0.473055 0.567890 -0.111667
C14   C     C_R   0.988900 0.770363 0.538296 0.005019
C15   C     C_R   0.998225 0.777997 0.463775 0.011935
C16   C     C_R   0.464331 0.259579 0.551271 0.012596
C17   C     C_R   0.448864 0.267012 0.478418 -0.004517
C18   C     C_R   0.003759 0.548933 0.530915 0.010135
C19   C     C_R   0.022633 0.559338 0.459286 0.026030
C20   C     C_R   0.503149 0.046541 0.532981 0.023576
C21   C     C_R   0.462090 0.042252 0.472731 0.033620
C22   C     C_R   0.994708 0.429658 0.558793 -0.078409
C23   C     C_R   0.724125 0.023430 0.639686 0.552752
C24   C     C_R   0.050156 0.456134 0.423494 -0.053491
C25   C     C_R   0.546411 0.941918 0.546999 -0.074529
C26   C     C_R   0.446317 0.924917 0.444441 -0.071833
C27   C     C_R   0.019523 0.327759 0.522141 -0.119262
C28   C     C_R   0.049946 0.341680 0.455575 -0.109099
C29   C     C_R   0.536628 0.831310 0.512424 -0.107297
C30   C     C_R   0.483834 0.821462 0.462940 -0.125002
C31   C     C_2   0.257118 0.935951 0.914606 -0.101704
C32   C     C_2   0.776303 0.850334 0.065215 -0.094132
C33   C     C_2   0.723421 0.348865 0.934855 -0.097968
C34   C     C_R   0.259458 0.966187 0.352708 0.568884
C35   C     C_2   0.242786 0.435482 0.085486 -0.103334
C36   C     C_2   0.271468 0.986020 0.067036 -0.098332
C37   C     C_2   0.755299 0.890192 0.912438 -0.103866
C38   C     C_2   0.743954 0.390326 0.087656 -0.096751
C39   C     C_2   0.230151 0.483344 0.932808 -0.109818
C40   C     C_R   0.227602 0.874790 0.648078 0.587476
C41   C     C_R   0.770514 0.882365 0.347148 0.605040
C42   C     C_R   0.728039 0.376895 0.648798 0.587581
C43   C     C_R   0.270086 0.382343 0.346842 0.586041
C44   C     C_2   0.235719 0.058076 0.022358 -0.162900
C45   C     C_2   0.274980 0.827213 0.533679 -0.119584
C46   C     C_2   0.817817 0.901187 0.945425 -0.144767
C47   C     C_2   0.682071 0.405086 0.054036 -0.147756
C48   C     C_2   0.263727 0.557952 0.978142 -0.160196
C49   C     C_2   0.220075 0.021592 0.949142 -0.146688
C50   C     C_2   0.829422 0.861873 0.018875 -0.162592
C51   C     C_2   0.670348 0.369428 0.980033 -0.166805
C52   C     C_2   0.279593 0.521909 0.051257 -0.141201
C53   C     C_2   0.043828 0.656773 0.932973 -0.099638
C54   C     C_2   0.015642 0.663105 0.086555 -0.104446
C55   C     C_2   0.541645 0.155091 0.932732 -0.111419
C56   C     C_2   0.773582 0.870390 0.470082 -0.092516
C57   C     C_2   0.515934 0.164116 0.086590 -0.101263
C58   C     C_2   0.035686 0.562516 0.051125 -0.147230
C59   C     C_2   0.058576 0.564303 0.976865 -0.164401
C60   C     C_2   0.538633 0.064579 0.051872 -0.145318
C61   C     C_2   0.563039 0.068566 0.978015 -0.164335
C62   C     C_R   0.027518 0.653865 0.645654 0.535218
C63   C     C_R   0.973491 0.656398 0.353313 0.537099
C64   C     C_R   0.531712 0.152981 0.644699 0.538725
C65   C     C_R   0.435331 0.150440 0.361206 0.561549
C66   C     C_R   0.224840 0.516817 0.858708 0.550563
C67   C     C_2   0.794912 0.362806 0.540337 -0.139941
C68   C     C_R   0.760110 0.462728 0.150512 0.553451
C69   C     C_R   0.739697 0.962905 0.849663 0.552082
C70   C     C_R   0.275601 0.017742 0.141569 0.573724
C71   C     C_R   0.228464 0.876172 0.851832 0.545661
C72   C     C_R   0.790970 0.826604 0.139376 0.566976
C73   C     C_R   0.709031 0.326811 0.860447 0.549777
C74   C     C_R   0.271480 0.376186 0.148209 0.552608
C75   C     C_R   0.061839 0.648122 0.858357 0.550127
C76   C     C_R   0.972709 0.652552 0.150365 0.547749
C77   C     C_R   0.561396 0.147954 0.858521 0.547579
C78   C     C_2   0.263836 0.366407 0.469695 -0.090414
C79   C     C_R   0.472680 0.152661 0.150269 0.565010
C80   C     C_2   0.250099 0.913986 0.578349 0.151760
C81   C     C_2   0.750390 0.933133 0.413515 0.159171
C82   C     C_2   0.753531 0.430420 0.583044 0.146140
C83   C     C_2   0.246859 0.432432 0.412335 0.140960
C84   C     C_2   0.240927 0.909889 0.419912 -0.038025
C85   C     C_2   0.727042 0.992389 0.566070 -0.076865
C86   C     C_2   0.750119 0.414823 0.423598 -0.023319
C87   C     C_2   0.222167 0.495836 0.566292 -0.080528
C88   C     C_2   0.286227 0.845250 0.457913 -0.113590
C89   C     C_R   0.008172 0.669184 0.423547 -0.007933
C90   C     C_2   0.776017 0.916933 0.541990 -0.088406
C91   C     C_2   0.805577 0.392850 0.465889 -0.104930
C92   C     C_2   0.264825 0.409862 0.542316 -0.085379
Cr1   Cr    Cr6+3 0.113970 0.508630 0.747920 1.033068
Cr2   Cr    Cr6+3 0.887700 0.820070 0.250200 1.026170
Cr3   Cr    Cr6+3 0.612300 0.320070 0.749800 1.035440
Cr4   Cr    Cr6+3 0.387700 0.320070 0.250200 1.014555
Cr5   Cr    Cr6+3 0.886030 0.508630 0.252080 1.030198
Cr6   Cr    Cr6+3 0.613970 0.008630 0.747920 1.027292
Cr7   Cr    Cr6+3 0.386030 0.008630 0.252080 1.020521
Cr8   Cr    Cr6+3 0.269200 0.666740 0.749850 1.012815
Cr9   Cr    Cr6+3 0.730800 0.666740 0.250150 1.047670
Cr10  Cr    Cr6+3 0.769200 0.166740 0.749850 1.009426
Cr11  Cr    Cr6+3 0.230800 0.166740 0.250150 1.016309
Cr12  Cr    Cr6+3 0.112300 0.820070 0.749800 1.027631
H1    H     H_    0.327209 0.793387 0.431917 0.143306
H2    H     H_    0.712881 0.835574 0.934669 0.100689
H3    H     H_    0.785675 0.334100 0.065827 0.105999
H4    H     H_    0.207879 0.396454 0.949221 0.100369
H5    H     H_    0.306648 0.901775 0.935318 0.101687
H6    H     H_    0.721559 0.859630 0.049373 0.105853
H7    H     H_    0.778041 0.347754 0.951880 0.115321
H8    H     H_    0.193437 0.400381 0.064390 0.090966
H9    H     H_    0.029723 0.472771 0.074957 0.154376
H10   H     H_    0.082196 0.481374 0.956054 0.134083
H11   H     H_    0.534588 0.974816 0.076057 0.157441
H12   H     H_    0.814883 0.878242 0.577811 0.162045
H13   H     H_    0.593828 0.991755 0.958687 0.136286
H14   H     H_    0.024571 0.753955 0.065478 0.099326
H15   H     H_    0.018539 0.739795 0.951228 0.106075
H16   H     H_    0.523559 0.254972 0.064858 0.097488
H17   H     H_    0.509280 0.231341 0.949687 0.109195
H18   H     H_    0.285575 0.735559 0.552805 0.138090
H19   H     H_    0.798103 0.781429 0.462376 0.142554
H20   H     H_    0.817502 0.277237 0.558458 0.138544
H21   H     H_    0.288423 0.277617 0.461998 0.145295
H22   H     H_    0.191320 0.938163 0.443770 0.164405
H23   H     H_    0.859419 0.396677 0.446165 0.158860
H24   H     H_    0.683145 0.020130 0.533645 0.126194
H25   H     H_    0.696556 0.408278 0.443955 0.163599
H26   H     H_    0.177776 0.528113 0.535724 0.150188
H27   H     H_    0.975693 0.086181 0.444739 0.116078
H28   H     H_    0.945251 0.067235 0.572066 0.112829
H29   H     H_    0.412712 0.573712 0.472848 0.121172
H30   H     H_    0.420865 0.550067 0.602436 0.140641
H31   H     H_    0.012087 0.907650 0.376874 0.138133
H32   H     H_    0.954963 0.871151 0.632047 0.133909
H33   H     H_    0.434700 0.407307 0.395903 0.188793
H34   H     H_    0.300119 0.363438 0.578720 0.180366
H35   H     H_    0.450182 0.353488 0.653260 0.148690
H36   H     H_    0.071025 0.463886 0.370164 0.159797
H37   H     H_    0.969199 0.414408 0.609413 0.143796
H38   H     H_    0.409129 0.912368 0.403355 0.162091
H39   H     H_    0.589281 0.940992 0.583387 0.165879
H40   H     H_    0.016363 0.238428 0.546109 0.123897
H41   H     H_    0.070813 0.263191 0.427657 0.130890
H42   H     H_    0.569410 0.753335 0.524792 0.166977
H43   H     H_    0.474877 0.736262 0.435383 0.108077
H44   H     H_    0.210419 0.140373 0.042178 0.136669
H45   H     H_    0.172848 0.060170 0.925562 0.157292
H46   H     H_    0.861168 0.949664 0.920214 0.158149
H47   H     H_    0.639514 0.455658 0.079020 0.155596
H48   H     H_    0.286912 0.642722 0.959028 0.136918
H49   H     H_    0.883661 0.854679 0.037146 0.134904
H50   H     H_    0.616514 0.372831 0.960460 0.134696
H51   H     H_    0.326507 0.561803 0.075098 0.157054
H52   H     H_    0.296258 0.901808 0.049926 0.103383
O1    O     O_R   0.043230 0.549300 0.667990 -0.525334
O2    O     O_R   0.832470 0.905110 0.169660 -0.498048
O3    O     O_R   0.667530 0.405110 0.830340 -0.497249
O4    O     O_R   0.332470 0.405110 0.169660 -0.507429
O5    O     O_R   0.054010 0.748440 0.822860 -0.495511
O6    O     O_R   0.945990 0.748440 0.177140 -0.518680
O7    O     O_R   0.554010 0.248440 0.822860 -0.508289
O8    O     O_R   0.445990 0.248440 0.177140 -0.493070
O9    O     O_3   0.165160 0.665150 0.749190 -0.318227
O10   O     O_3   0.834840 0.665150 0.250810 -0.276360
O11   O     O_3   0.665160 0.165150 0.749190 -0.316218
O12   O     O_R   0.956770 0.549300 0.332010 -0.521358
O13   O     O_3   0.334840 0.165150 0.250810 -0.294558
O14   O     O_R   0.178620 0.457600 0.674100 -0.461631
O15   O     O_R   0.821380 0.457600 0.325900 -0.493844
O16   O     O_R   0.678620 0.957600 0.674100 -0.491909
O17   O     O_R   0.321380 0.957600 0.325900 -0.531295
O18   O     O_R   0.284680 0.542100 0.669460 -0.518290
O19   O     O_R   0.715320 0.542100 0.330540 -0.499583
O20   O     O_R   0.784680 0.042100 0.669460 -0.514047
O21   O     O_R   0.215320 0.042100 0.330540 -0.506911
O22   O     O_R   0.262860 0.790390 0.676650 -0.535735
O23   O     O_R   0.543230 0.049300 0.667990 -0.533388
O24   O     O_R   0.737140 0.790390 0.323350 -0.493154
O25   O     O_R   0.762860 0.290390 0.676650 -0.535449
O26   O     O_R   0.237140 0.290390 0.323350 -0.504853
O27   O     O_R   0.167460 0.907030 0.670940 -0.470237
O28   O     O_R   0.832540 0.907030 0.329060 -0.499358
O29   O     O_R   0.667460 0.407030 0.670940 -0.461747
O30   O     O_R   0.332540 0.407030 0.329060 -0.537330
O31   O     O_R   0.053950 0.750220 0.675100 -0.496116
O32   O     O_R   0.946050 0.750220 0.324900 -0.509727
O33   O     O_R   0.553950 0.250220 0.675100 -0.503049
O34   O     O_R   0.456770 0.049300 0.332010 -0.506277
O35   O     O_R   0.446050 0.250220 0.324900 -0.509906
O36   O     O_R   0.043300 0.547370 0.827390 -0.502624
O37   O     O_R   0.956700 0.547370 0.172610 -0.512074
O38   O     O_R   0.543300 0.047370 0.827390 -0.487595
O39   O     O_R   0.456700 0.047370 0.172610 -0.512381
O40   O     O_R   0.178690 0.455820 0.821860 -0.502097
O41   O     O_R   0.821310 0.455820 0.178140 -0.494710
O42   O     O_R   0.678690 0.955820 0.821860 -0.509155
O43   O     O_R   0.321310 0.955820 0.178140 -0.492521
O44   O     O_R   0.284750 0.540170 0.828860 -0.484596
O45   O     O_R   0.262920 0.788600 0.824420 -0.517567
O46   O     O_R   0.715250 0.540170 0.171140 -0.521948
O47   O     O_R   0.784750 0.040170 0.828860 -0.514600
O48   O     O_R   0.215250 0.040170 0.171140 -0.500661
O49   O     O_R   0.737080 0.788600 0.175580 -0.496492
O50   O     O_R   0.762920 0.288600 0.824420 -0.490700
O51   O     O_R   0.237080 0.288600 0.175580 -0.521055
O52   O     O_R   0.167530 0.905110 0.830340 -0.514754

loop_
_geom_bond_atom_site_label_1
_geom_bond_atom_site_label_2
_ccdc_geom_bond_type
C72   O49   A    
C73   O3    A    
Cr8   O22   S    
Cr12  O5    S    
C64   O23   A    
C54   C58   D    
C4    C20   A    
C31   C49   D    
Cr6   O11   S    
Cr10  O11   S    
C53   C75   S    
Cr12  O27   S    
C72   O2    A    
C84   H22   S    
C33   C51   D    
C32   H6    S    
Cr9   O49   S    
C86   C91   D    
Br4   C83   S    
C70   O48   A    
Br1   C80   S    
C49   H45   S    
C45   H18   S    
Cr11  O26   S    
C31   C71   S    
C2    C62   S    
C46   C50   S    
C85   H24   S    
Cr11  O21   S    
C57   H16   S    
Cr6   O23   S    
Cr8   O44   S    
C45   C80   D    
C46   H46   S    
C52   H51   S    
C29   H42   S    
Cr6   O38   S    
C74   O4    A    
C67   C91   S    
Cr5   O37   S    
C39   C48   D    
C12   C86   S    
Cr3   O11   S    
C70   O43   A    
Cr6   O16   S    
C78   C83   D    
C2    C18   A    
C25   C29   A    
C65   O35   A    
Cr1   O9    S    
Cr5   O12   S    
C36   C44   D    
C14   C15   A    
C1    O14   A    
C76   O6    A    
C85   C90   D    
C5    C9    A    
C20   C25   A    
C58   H9    S    
Cr2   O28   S    
C32   C72   S    
Cr2   O2    S    
C87   C92   D    
C90   H12   S    
C23   C85   S    
C5    C15   A    
C51   H50   S    
Cr8   O18   S    
C28   H41   S    
C84   C88   D    
C8    C13   A    
Cr12  O31   S    
C26   H38   S    
C64   O33   A    
C24   H36   S    
Cr7   O34   S    
C61   H13   S    
C15   C89   A    
C12   O19   A    
C54   C76   S    
C38   C47   D    
C69   O47   A    
C34   O21   A    
C22   C27   A    
Cr9   O24   S    
C34   O17   A    
C9    C10   A    
Br3   C82   S    
C91   H23   S    
C9    H27   S    
Cr1   O40   S    
C6    H32   S    
Cr9   O19   S    
Cr10  O20   S    
Cr12  O52   S    
C92   H34   S    
C53   C59   D    
Cr3   O7    S    
C66   O44   A    
C44   C49   S    
C2    C14   A    
C71   O52   A    
C54   H14   S    
C78   C92   S    
Cr9   O10   S    
C26   C30   A    
C35   C74   S    
Cr9   O46   S    
C20   C21   A    
Cr2   O6    S    
Cr2   O32   S    
C6    C10   A    
C77   O38   A    
Cr3   O29   S    
C86   H25   S    
C63   O32   A    
C68   O46   A    
Br2   C81   S    
Cr11  O13   S    
Cr8   O45   S    
C33   C73   S    
C7    C17   A    
C75   O5    A    
C75   O36   A    
C19   C89   A    
C62   O1    A    
C34   C84   S    
C43   O26   A    
C43   C83   S    
C57   C60   D    
C41   C81   S    
C38   H3    S    
C3    C65   S    
C58   C59   S    
C53   H15   S    
C67   C82   D    
C7    H33   S    
C25   H39   S    
C27   C28   A    
C24   C28   A    
C56   C81   D    
C47   H47   S    
C62   O31   A    
C8    C16   A    
C38   C68   S    
C29   C30   A    
C77   O7    A    
Cr5   O10   S    
Cr4   O4    S    
C35   C52   D    
Cr7   O39   S    
C19   C24   A    
C23   O20   A    
C78   H21   S    
C60   H11   S    
Cr11  O48   S    
C13   H30   S    
C73   O50   A    
Cr3   O3    S    
C27   H40   S    
C12   O15   A    
C4    C16   A    
C4    C64   S    
C39   C66   S    
C7    C11   A    
C37   H2    S    
C44   H44   S    
C57   C79   S    
C67   H20   S    
Cr5   O15   S    
C48   H48   S    
C39   H4    S    
C42   O29   A    
C79   O39   A    
C40   O22   A    
C37   C46   D    
Cr10  O47   S    
Cr1   O36   S    
C69   O42   A    
Cr4   O35   S    
C21   C26   A    
C11   C13   A    
C66   O40   A    
Cr1   O14   S    
C36   H52   S    
C56   H19   S    
Cr4   O30   S    
C55   C77   S    
C22   H37   S    
C40   C80   S    
C23   O16   A    
C59   H10   S    
C30   H43   S    
C41   O28   A    
C33   H7    S    
C63   O12   A    
C55   H17   S    
C79   O8    A    
Cr3   O33   S    
Cr1   O1    S    
C3    C21   A    
C8    H35   S    
Cr4   O8    S    
C60   C61   S    
C43   O30   A    
Cr6   O42   S    
Cr5   O41   S    
C55   C61   D    
C50   H49   S    
C3    C17   A    
C5    H31   S    
C87   H26   S    
C10   H28   S    
C6    C14   A    
C76   O37   A    
C11   H29   S    
C65   O34   A    
Cr10  O25   S    
C36   C70   S    
C31   H5    S    
C47   C51   S    
C42   O25   A    
C88   H1    S    
Cr7   O43   S    
C1    O18   A    
C32   C50   D    
C40   O27   A    
C37   C69   S    
Cr2   O10   S    
C71   O45   A    
Cr11  O51   S    
C16   C17   A    
C1    C87   S    
C35   H8    S    
C18   C22   A    
Cr4   O13   S    
C63   C89   S    
Cr7   O13   S    
C18   C19   A    
C68   O41   A    
C45   C88   S    
Cr7   O17   S    
Cr12  O9    S    
C74   O51   A    
C48   C52   S    
C41   O24   A    
C56   C90   S    
Cr8   O9    S    
C42   C82   S    
Cr10  O50   S    
