data_mof_unit_1202.cif
_audit_creation_date              2012-12-10T20:41:50-0500
_audit_creation_method            fapswitch 2.2
_symmetry_space_group_name_H-M    P1
_symmetry_Int_Tables_number       1
_space_group_crystal_system       triclinic
_cell_length_a                    14.729026
_cell_length_b                    15.359329
_cell_length_c                    9.888068
_cell_angle_alpha                 89.999764
_cell_angle_beta                  91.576717
_cell_angle_gamma                 89.999985
_cell_volume                      2236.11045491

loop_
_atom_site_label
_atom_site_type_symbol
_atom_type_description
_atom_site_fract_x
_atom_site_fract_y
_atom_site_fract_z
_atom_type_partial_charge
C1    C     C_R   0.388577 0.872914 0.499219 0.889826
C2    C     C_R   0.388727 0.127361 0.499101 0.887840
C3    C     C_R   0.888728 0.372638 0.499102 0.887829
C4    C     C_R   0.888576 0.627085 0.499218 0.889831
C5    C     C_3   0.335005 0.246461 0.756077 0.286928
C6    C     C_3   0.335379 0.747565 0.757037 0.270684
C7    C     C_3   0.835386 0.752439 0.757033 0.270688
C8    C     C_3   0.834994 0.253547 0.756081 0.286915
C9    C     C_R   0.427029 0.967360 0.067097 0.187387
C10   C     C_R   0.927029 0.532641 0.067097 0.187388
C11   C     C_R   0.575978 0.020114 0.075126 -0.174026
C12   C     C_R   0.075976 0.479880 0.075126 -0.174024
C13   C     C_R   0.575944 0.019317 0.931131 -0.152374
C14   C     C_R   0.075942 0.480676 0.931131 -0.152368
C15   C     C_R   0.428128 0.966790 0.925061 0.093400
C16   C     C_R   0.928129 0.533213 0.925060 0.093391
C17   C     C_3   0.331564 0.991398 0.906520 -0.482713
C18   C     C_3   0.831565 0.508607 0.906517 -0.482708
C19   C     C_3   0.327394 0.993892 0.060280 0.329084
C20   C     C_3   0.827396 0.506104 0.060277 0.329085
C21   C     C_R   0.624726 0.116268 0.501109 0.885643
C22   C     C_R   0.623052 0.882177 0.500638 0.891709
C23   C     C_R   0.123052 0.617823 0.500638 0.891709
C24   C     C_R   0.124727 0.383733 0.501109 0.885632
C25   C     C_R   0.335317 0.264048 0.608850 0.016348
C26   C     C_R   0.333277 0.736054 0.607206 0.019717
C27   C     C_R   0.833278 0.763947 0.607201 0.019720
C28   C     C_R   0.835315 0.235952 0.608855 0.016318
C29   C     C_R   0.344918 0.211724 0.494669 -0.156012
C30   C     C_R   0.342941 0.789929 0.494335 -0.151920
C31   C     C_R   0.842939 0.710070 0.494333 -0.151915
C32   C     C_R   0.844920 0.288274 0.494671 -0.156023
C33   C     C_R   0.308148 0.243244 0.372246 -0.203923
C34   C     C_R   0.303347 0.761964 0.371423 -0.205520
C35   C     C_R   0.803341 0.738032 0.371422 -0.205526
C36   C     C_R   0.808155 0.256751 0.372247 -0.203905
C37   C     C_R   0.731977 0.796670 0.373076 -0.199137
C38   C     C_R   0.737712 0.197111 0.374487 -0.197786
C39   C     C_R   0.237707 0.302885 0.374486 -0.197786
C40   C     C_R   0.231983 0.703326 0.373077 -0.199136
C41   C     C_R   0.703150 0.829522 0.497739 -0.147187
C42   C     C_R   0.707390 0.166279 0.499553 -0.150841
C43   C     C_R   0.207390 0.333721 0.499552 -0.150838
C44   C     C_R   0.203151 0.670477 0.497739 -0.147191
C45   C     C_R   0.761144 0.820141 0.610343 0.074546
C46   C     C_R   0.765422 0.176609 0.613259 0.076625
C47   C     C_R   0.265426 0.323394 0.613255 0.076605
C48   C     C_R   0.261142 0.679861 0.610347 0.074558
C49   C     C_3   0.748460 0.807608 0.758303 0.322380
C50   C     C_3   0.752602 0.193273 0.761370 0.320914
C51   C     C_3   0.252616 0.306739 0.761371 0.320904
C52   C     C_3   0.248451 0.692400 0.758304 0.322386
H1    H     H_    0.327234 0.217197 0.276548 0.166273
H2    H     H_    0.321242 0.790539 0.276375 0.167546
H3    H     H_    0.821233 0.709454 0.276375 0.167545
H4    H     H_    0.827245 0.282796 0.276549 0.166273
H5    H     H_    0.696026 0.810736 0.278522 0.162343
H6    H     H_    0.703122 0.181239 0.279583 0.157989
H7    H     H_    0.203114 0.318754 0.279583 0.157993
H8    H     H_    0.196035 0.689257 0.278521 0.162341
H9    H     H_    0.685090 0.770399 0.778112 -0.003867
H10   H     H_    0.686747 0.226410 0.780084 -0.005029
H11   H     H_    0.186762 0.273606 0.780099 -0.005049
H12   H     H_    0.185082 0.729612 0.778103 -0.003871
H13   H     H_    0.317065 0.179764 0.784445 0.018908
H14   H     H_    0.324663 0.814912 0.791628 0.028547
H15   H     H_    0.824669 0.685094 0.791629 0.028543
H16   H     H_    0.817056 0.320245 0.784440 0.018919
H17   H     H_    0.636939 0.037149 0.132187 0.144486
H18   H     H_    0.136936 0.462840 0.132186 0.144486
H19   H     H_    0.636573 0.033867 0.878193 0.239503
H20   H     H_    0.136570 0.466120 0.878193 0.239487
H21   H     H_    0.323938 0.054353 0.856027 0.195016
H22   H     H_    0.288517 0.940835 0.857951 0.181039
H23   H     H_    0.788519 0.559172 0.857955 0.181034
H24   H     H_    0.823939 0.445655 0.856015 0.195021
N1    N     N_R   0.499140 0.000000 0.142800 -0.109298
N2    N     N_R   0.999140 0.500000 0.142800 -0.109295
N3    N     N_R   0.499160 1.000000 0.857150 -0.117920
N4    N     N_R   0.999160 0.500000 0.857150 -0.117918
O1    O     O_R   0.408400 0.908380 0.614690 -0.628683
O2    O     O_R   0.408400 0.091620 0.614690 -0.636046
O3    O     O_R   0.908400 0.408380 0.614690 -0.636047
O4    O     O_R   0.908400 0.591620 0.614690 -0.628681
O5    O     O_R   0.408370 0.908370 0.385350 -0.614978
O6    O     O_R   0.408370 0.091630 0.385350 -0.610660
O7    O     O_R   0.908370 0.408370 0.385350 -0.610656
O8    O     O_R   0.908370 0.591630 0.385350 -0.614981
O9    O     O_R   0.591610 0.091610 0.614650 -0.629033
O10   O     O_R   0.591610 0.908390 0.614650 -0.604573
O11   O     O_R   0.091610 0.591610 0.614650 -0.604565
O12   O     O_R   0.091610 0.408390 0.614650 -0.629037
O13   O     O_R   0.591590 0.091600 0.385310 -0.626098
O14   O     O_R   0.591590 0.908400 0.385310 -0.628116
O15   O     O_R   0.091590 0.591600 0.385310 -0.628117
O16   O     O_R   0.091590 0.408400 0.385310 -0.626097
Zn1   Zn    Zn3+2 0.500010 0.000000 0.653130 0.942543
Zn2   Zn    Zn3+2 0.000010 0.500000 0.653130 0.942543
Zn3   Zn    Zn3+2 0.499980 0.000000 0.346870 0.940475
Zn4   Zn    Zn3+2 0.999980 0.500000 0.346870 0.940477
C53   C     C_3   0.305592 0.085106 0.111725 -0.837306
H25   H     H_    0.285042 0.081288 0.218350 0.261718
H26   H     H_    0.364808 0.129056 0.101800 0.215678
H27   H     H_    0.247083 0.113043 0.053113 0.216846
C54   C     C_3   0.262298 0.924715 0.113440 -0.884553
H28   H     H_    0.280724 0.858899 0.076392 0.198183
H29   H     H_    0.263353 0.925453 0.225544 0.256990
H30   H     H_    0.191813 0.939213 0.077352 0.251159
C55   C     C_3   0.762296 0.575275 0.113445 -0.884547
H31   H     H_    0.780717 0.641094 0.076400 0.198182
H32   H     H_    0.691811 0.560774 0.077360 0.251161
H33   H     H_    0.763354 0.574533 0.225549 0.256991
C56   C     C_3   0.805599 0.414886 0.111711 -0.837312
H34   H     H_    0.785050 0.418697 0.218336 0.261717
H35   H     H_    0.747090 0.386950 0.053098 0.216844
H36   H     H_    0.864817 0.370939 0.101776 0.215691
O17   O     O_3   0.758576 0.886263 0.831039 -0.504457
C57   C     C_3   0.741711 0.869729 0.968531 -0.207440
H37   H     H_    0.786643 0.817628 0.010968 0.152785
H38   H     H_    0.669276 0.852171 0.982367 0.118026
H39   H     H_    0.756192 0.929629 0.027580 0.179106
O18   O     O_3   0.770146 0.119208 0.842436 -0.515961
C58   C     C_3   0.761886 0.142769 0.980086 -0.251985
H40   H     H_    0.691808 0.164892 0.001236 0.102678
H41   H     H_    0.810532 0.194573 0.012050 0.189101
H42   H     H_    0.777657 0.085169 0.043859 0.176101
O19   O     O_3   0.270169 0.380809 0.842423 -0.515949
C59   C     C_3   0.261920 0.357257 0.980079 -0.251945
H43   H     H_    0.310579 0.305465 0.012047 0.189108
H44   H     H_    0.191847 0.335122 0.001241 0.102653
H45   H     H_    0.277680 0.414865 0.043838 0.176103
O20   O     O_3   0.258561 0.613746 0.831049 -0.504451
C60   C     C_3   0.241688 0.630287 0.968536 -0.207439
H46   H     H_    0.169252 0.647842 0.982361 0.118031
H47   H     H_    0.286615 0.682392 0.010973 0.152772
H48   H     H_    0.256169 0.570390 0.027595 0.179094
O21   O     O_3   0.412312 0.284251 0.821532 -0.546985
C61   C     C_3   0.478380 0.220576 0.850659 -0.258235
H49   H     H_    0.507382 0.195897 0.756135 0.204931
H50   H     H_    0.450723 0.166922 0.912239 0.152810
H51   H     H_    0.534455 0.251020 0.911024 0.168434
O22   O     O_3   0.410395 0.701605 0.814903 -0.529191
C62   C     C_3   0.472762 0.759614 0.876336 -0.281448
H52   H     H_    0.443035 0.789866 0.967035 0.140621
H53   H     H_    0.495613 0.809689 0.803615 0.193163
H54   H     H_    0.533604 0.722367 0.910901 0.177279
O23   O     O_3   0.910405 0.798398 0.814890 -0.529195
C63   C     C_3   0.972769 0.740389 0.876331 -0.281457
H55   H     H_    0.995620 0.690310 0.803614 0.193168
H56   H     H_    0.943039 0.710140 0.967031 0.140618
H57   H     H_    0.033612 0.777634 0.910896 0.177277
O24   O     O_3   0.912292 0.215755 0.821556 -0.546992
C64   C     C_3   0.978382 0.279420 0.850620 -0.258170
H58   H     H_    0.950744 0.333101 0.912162 0.152839
H59   H     H_    0.007384 0.304058 0.756070 0.204891
H60   H     H_    0.034452 0.248980 0.911001 0.168423

loop_
_geom_bond_atom_site_label_1
_geom_bond_atom_site_label_2
_ccdc_geom_bond_type
C62   H54   S    
C13   N3    A    
C18   H23   S    
C40   H8    S    
C11   C13   A    
O23   C63   S    
C50   O18   S    
C63   H57   S    
C59   H43   S    
C10   N2    A    
O12   Zn2   S    
C58   H40   S    
C21   O9    A    
C54   H29   S    
C28   C46   A    
C53   H25   S    
O1    Zn1   S    
C2    C29   S    
C36   H4    S    
C32   C36   A    
C8    O24   S    
C63   H56   S    
C38   C42   A    
C48   C52   S    
C55   H32   S    
C20   C56   S    
C58   H41   S    
C22   C41   S    
C1    O1    A    
C62   H52   S    
C29   C33   A    
C7    C27   S    
C25   C29   A    
C15   C17   S    
C42   C46   A    
C57   H37   S    
C11   N1    A    
C38   H6    S    
C37   C41   A    
C9    C19   S    
C49   O17   S    
C3    O7    A    
C10   C20   S    
O20   C60   S    
O3    Zn2   S    
C12   N2    A    
C60   H48   S    
C2    O6    A    
C14   N4    A    
C64   H59   S    
O13   Zn3   S    
O10   Zn1   S    
C18   C20   S    
C26   C48   A    
C56   H36   S    
N4    Zn2   S    
C27   C45   A    
C53   H26   S    
C17   H21   S    
C22   O14   A    
C24   O12   A    
C7    O23   S    
C33   H1    S    
C54   H30   S    
C15   N3    A    
C49   H9    S    
C30   C34   A    
C35   H3    S    
C52   O20   S    
C28   C32   A    
C51   H11   S    
C63   H55   S    
C7    C49   S    
C5    H13   S    
C52   H12   S    
C55   H33   S    
O15   Zn4   S    
C58   H42   S    
C39   C43   A    
C13   H19   S    
C27   C31   A    
C23   C44   S    
C21   C42   S    
O9    Zn1   S    
C16   N4    A    
C57   H39   S    
O5    Zn3   S    
C4    O4    A    
C45   C49   S    
C39   H7    S    
O7    Zn4   S    
C22   O10   A    
C33   C39   A    
C64   H60   S    
O6    Zn3   S    
O8    Zn4   S    
C61   H50   S    
C5    C25   S    
C19   C54   S    
C12   C14   A    
C8    H16   S    
C53   H27   S    
C3    O3    A    
C60   H46   S    
C50   H10   S    
O2    Zn1   S    
C23   O11   A    
C2    O2    A    
C1    O5    A    
C6    O22   S    
C40   C44   A    
O19   C59   S    
C59   H45   S    
C8    C50   S    
C56   H34   S    
O21   C61   S    
C62   H53   S    
C12   H18   S    
C25   C47   A    
C18   H24   S    
C35   C37   A    
C14   H20   S    
N3    Zn1   S    
C5    C51   S    
C61   H51   S    
C59   H44   S    
C47   C51   S    
C11   H17   S    
C5    O21   S    
C6    C26   S    
C4    O8    A    
C54   H28   S    
C46   C50   S    
C51   O19   S    
C24   O16   A    
C9    N1    A    
O4    Zn2   S    
C10   C16   A    
C55   H31   S    
N2    Zn4   S    
C19   C53   S    
C34   H2    S    
C17   H22   S    
C56   H35   S    
C21   O13   A    
O14   Zn3   S    
C8    C28   S    
O16   Zn4   S    
C36   C38   A    
C1    C30   S    
C17   C19   S    
C23   O15   A    
N1    Zn3   S    
C31   C35   A    
O11   Zn2   S    
C9    C15   A    
C3    C32   S    
C57   H38   S    
C4    C31   S    
C61   H49   S    
C7    H15   S    
C20   C55   S    
C6    H14   S    
O24   C64   S    
C16   C18   S    
C60   H47   S    
C24   C43   S    
C41   C45   A    
O22   C62   S    
C34   C40   A    
C6    C52   S    
O18   C58   S    
O17   C57   S    
C43   C47   A    
C37   H5    S    
C44   C48   A    
C64   H58   S    
C26   C30   A    
