data_mof_unit_3110.cif
_audit_creation_date              2013-03-05T15:54:45-0500
_audit_creation_method            fapswitch 2.2
_symmetry_space_group_name_H-M    P1
_symmetry_Int_Tables_number       1
_space_group_crystal_system       triclinic
_cell_length_a                    12.310556
_cell_length_b                    13.112332
_cell_length_c                    15.066808
_cell_angle_alpha                 77.601681
_cell_angle_beta                  101.060853
_cell_angle_gamma                 116.426265
_cell_volume                      2114.22646743

loop_
_atom_site_label
_atom_site_type_symbol
_atom_site_description
_atom_site_fract_x
_atom_site_fract_y
_atom_site_fract_z
_atom_type_partial_charge
O1    O     O_R   0.972510 0.318130 0.526570 -0.559619
O2    O     O_R   0.806530 0.359650 0.490890 -0.617140
C1    C     C_R   0.855129 0.286301 0.507683 0.783182
O3    O     O_R   0.082980 0.479210 0.647590 -0.593375
O4    O     O_R   0.917000 0.520730 0.611900 -0.602297
C2    C     C_R   0.998837 0.499110 0.671053 0.802072
Cu1   Cu    Cu3+1 0.098270 0.475420 0.521130 0.981802
Cu2   Cu    Cu3+1 0.901730 0.524580 0.478870 0.956801
O5    O     O_R   0.193470 0.640350 0.509110 -0.602496
O6    O     O_R   0.027490 0.681870 0.473430 -0.533706
O7    O     O_R   0.083000 0.479270 0.388100 -0.530018
O8    O     O_R   0.917020 0.520790 0.352410 -0.611141
C3    C     C_R   0.145017 0.714272 0.486422 0.821078
C4    C     C_R   0.998827 0.496982 0.329149 0.845335
C5    C     C_R   0.940156 0.550151 0.166514 -0.286991
C6    C     C_R   0.996809 0.491209 0.232833 -0.182434
C7    C     C_R   0.051658 0.429190 0.206494 0.292763
C8    C     C_R   0.051959 0.429945 0.113064 -0.007713
C9    C     C_R   0.995328 0.490857 0.047010 0.013720
C10   C     C_R   0.938687 0.550261 0.074044 0.111632
C11   C     C_R   0.105959 0.369802 0.083970 -0.136447
C12   C     C_R   0.106512 0.372271 0.991273 -0.228575
C13   C     C_R   0.051684 0.433326 0.925895 0.111481
C14   C     C_R   0.994675 0.491973 0.953516 0.088296
C15   C     C_R   0.937035 0.551793 0.887594 0.105310
C16   C     C_R   0.880668 0.610014 0.915415 -0.210750
C17   C     C_R   0.881721 0.609455 0.008143 -0.184685
C18   C     C_R   0.052750 0.436486 0.833161 -0.244050
C19   C     C_R   0.996102 0.496204 0.767738 -0.070086
C20   C     C_R   0.937302 0.552729 0.794917 -0.245007
H1    H     H_    0.898227 0.597611 0.186912 0.173452
H2    H     H_    0.148294 0.320593 0.132320 0.199306
H3    H     H_    0.149643 0.326073 0.970702 0.147802
H4    H     H_    0.096762 0.391474 0.811903 0.148331
H5    H     H_    0.893591 0.598927 0.744040 0.162854
H6    H     H_    0.836194 0.656249 0.865493 0.145374
H7    H     H_    0.837960 0.655318 0.028368 0.147903
C21   C     C_R   0.278844 0.027304 0.379068 -0.222471
H8    H     H_    0.461312 0.222034 0.320935 0.160626
H9    H     H_    0.250238 0.089618 0.334174 0.191031
C22   C     C_R   0.227724 0.837308 0.467608 -0.171423
C23   C     C_R   0.815833 0.083153 0.565325 -0.147654
C24   C     C_R   0.736994 0.967495 0.581731 -0.120691
C25   C     C_R   0.613993 0.930267 0.548976 -0.185512
C26   C     C_R   0.567890 0.008323 0.495254 0.094789
C27   C     C_R   0.651902 0.123381 0.469173 0.078852
C28   C     C_R   0.441399 0.976350 0.466456 0.080077
C29   C     C_R   0.403057 0.055666 0.405426 0.085559
C30   C     C_R   0.489091 0.162708 0.370918 -0.197465
C31   C     C_R   0.611841 0.195508 0.401161 -0.180391
C32   C     C_R   0.351582 0.868744 0.497929 -0.298245
C33   C     C_R   0.190354 0.919510 0.410686 0.344115
C34   C     C_R   0.773981 0.162699 0.511354 -0.090472
H10   H     H_    0.375614 0.806701 0.546356 0.167788
H11   H     H_    0.909288 0.110723 0.596831 0.156226
H12   H     H_    0.558249 0.839497 0.565366 0.129203
H13   H     H_    0.770599 0.906709 0.622787 0.148394
H14   H     H_    0.674670 0.277381 0.369022 0.177066
C35   C     C_R   0.347275 0.328732 0.646622 -0.288733
H15   H     H_    0.169568 0.309455 0.663111 0.113928
H16   H     H_    0.548006 0.295429 0.676366 0.155163
H17   H     H_    0.346751 0.262165 0.703633 0.139644
N1    N     N_R   0.246280 0.438190 0.553160 -0.181433
C36   C     C_R   0.758502 0.644342 0.374928 0.141752
C37   C     C_R   0.661714 0.675914 0.347937 -0.217666
C38   C     C_R   0.558728 0.621652 0.395047 -0.176833
C39   C     C_R   0.551263 0.534486 0.470241 -0.003471
C40   C     C_R   0.653241 0.505454 0.495666 0.277113
C41   C     C_R   0.447056 0.475181 0.521094 -0.029997
C42   C     C_R   0.447240 0.388394 0.595660 0.169013
C43   C     C_R   0.547227 0.361600 0.619281 -0.272521
C44   C     C_R   0.647837 0.418958 0.570698 -0.176929
C45   C     C_R   0.341832 0.497717 0.501698 0.088115
C46   C     C_R   0.247088 0.355149 0.624088 0.086253
N2    N     N_R   0.754320 0.561190 0.447410 -0.218998
H18   H     H_    0.333640 0.562021 0.446274 0.127297
H19   H     H_    0.837783 0.686585 0.337727 0.166094
H20   H     H_    0.486522 0.649449 0.371104 0.147651
H21   H     H_    0.666471 0.742588 0.290196 0.165365
H22   H     H_    0.719450 0.392124 0.594802 0.205682
N3    N     N_R   0.103052 0.362668 0.274083 0.120440
O9    O     O_R   0.032507 0.271527 0.324203 -0.333972
O10   O     O_R   0.220643 0.395271 0.287592 -0.386966
N4    N     N_R   0.064211 0.895892 0.384183 0.119797
O11   O     O_R   0.994191 0.875123 0.446586 -0.346686
O12   O     O_R   0.027192 0.921317 0.299004 -0.380466

loop_
_geom_bond_atom_site_label_1
_geom_bond_atom_site_label_2
_geom_bond_distance
_ccdc_geom_bond_type
C37   H21   1.082575 S    
C8    C11   1.408138 A    
C36   H19   1.081179 S    
C9    C10   1.409784 A    
C3    C22   1.473778 S    
N3    O9    1.301144 A    
Cu1   Cu2   2.701081 S    
C26   C27   1.418696 A    
C40   N2    1.385871 A    
Cu1   O7    1.968673 S    
C16   C17   1.393168 A    
C20   H5    1.084709 S    
C18   C19   1.400700 A    
N4    O12   1.301150 A    
C23   C34   1.402859 A    
O4    C2    1.300328 A    
O7    C4    1.299645 A    
C21   C33   1.396751 A    
C5    C6    1.401040 A    
C8    C9    1.415081 A    
C33   N4    1.433155 S    
O5    C3    1.306245 A    
C6    C7    1.415937 A    
C13   C14   1.409597 A    
C41   C45   1.417410 A    
C42   C43   1.388644 A    
C22   C33   1.414917 A    
C21   C29   1.399469 A    
Cu2   O8    1.963377 S    
H16   C43   1.084642 S    
C38   C39   1.410212 A    
C18   H4    1.084850 S    
C11   C12   1.391309 A    
O3    Cu1   1.963377 S    
N3    O10   1.301243 A    
C26   C28   1.423590 A    
C5    C10   1.389573 A    
C38   H20   1.077962 S    
C11   H2    1.081871 S    
C39   C40   1.430364 A    
C31   H14   1.080095 S    
N4    O11   1.301240 A    
O3    C2    1.298743 A    
C28   C32   1.401241 A    
N1    C45   1.366367 A    
C15   C16   1.400196 A    
Cu2   N2    2.023828 S    
O1    C1    1.303720 A    
C24   C25   1.390506 A    
C19   C20   1.400946 A    
C23   H11   1.083318 S    
C25   H12   1.077179 S    
C28   C29   1.417633 A    
C40   C44   1.407090 A    
C7    C8    1.406317 A    
C13   C18   1.391317 A    
C14   C15   1.412690 A    
C35   C46   1.387628 A    
Cu1   N1    2.035771 S    
C16   H6    1.083827 S    
C29   C30   1.391704 A    
C10   C17   1.402320 A    
O8    C4    1.302596 A    
C30   C31   1.384761 A    
C45   H18   1.076789 S    
C4    C6    1.464205 S    
C23   C24   1.387058 A    
C25   C26   1.417690 A    
C15   C20   1.394377 A    
Cu1   O5    1.934042 S    
C12   H3    1.083969 S    
C35   H17   1.083921 S    
H8    C30   1.084265 S    
O1    Cu1   1.947112 S    
O2    Cu2   1.934043 S    
O6    C3    1.300778 A    
O4    Cu2   1.968675 S    
C5    H1    1.084938 S    
N1    C46   1.354121 A    
C27   C31   1.411666 A    
C32   H10   1.076219 S    
C36   C37   1.391875 A    
C9    C14   1.404104 A    
C43   C44   1.384853 A    
C44   H22   1.063627 S    
C21   H9    1.084698 S    
C1    C34   1.472863 S    
C17   H7    1.083864 S    
C27   C34   1.418751 A    
H15   C46   1.081891 S    
C36   N2    1.358067 A    
O2    C1    1.302513 A    
C7    N3    1.435514 S    
C41   C42   1.417584 A    
C24   H13   1.082880 S    
C35   C42   1.401331 A    
C2    C19   1.455507 S    
Cu2   O6    1.947111 S    
C37   C38   1.393892 A    
C12   C13   1.397868 A    
C39   C41   1.439035 A    
C22   C32   1.399171 A    
