data_mof_unit_2193.cif
_audit_creation_date              2012-12-10T20:35:47-0500
_audit_creation_method            fapswitch 2.2
_symmetry_space_group_name_H-M    P1
_symmetry_Int_Tables_number       1
_space_group_crystal_system       triclinic
_cell_length_a                    15.718452
_cell_length_b                    10.659235
_cell_length_c                    9.870568
_cell_angle_alpha                 89.998546
_cell_angle_beta                  89.963129
_cell_angle_gamma                 89.739812
_cell_volume                      1653.76344108

loop_
_atom_site_label
_atom_site_type_symbol
_atom_type_description
_atom_site_fract_x
_atom_site_fract_y
_atom_site_fract_z
_atom_type_partial_charge
C1    C     C_R   0.502734 0.259990 0.500120 0.879344
C2    C     C_3   0.950672 0.400129 0.604195 -0.525487
C3    C     C_3   0.917299 0.497092 0.499833 0.228272
C4    C     C_3   0.949591 0.629844 0.539350 0.392897
C5    C     C_3   0.048204 0.628785 0.541677 -0.539787
C6    C     C_1   0.825835 0.496165 0.499454 -0.064219
C7    C     C_1   0.174021 0.499345 0.500642 -0.042519
C8    C     C_1   0.249377 0.500054 0.500380 -0.190465
C9    C     C_R   0.509140 0.063894 0.623565 0.122324
C10   C     C_R   0.516223 0.128523 0.501680 -0.103146
C11   C     C_R   0.539357 0.064640 0.382959 -0.223047
C12   C     C_R   0.338287 0.500233 0.500127 0.906071
C13   C     C_R   0.539365 0.934824 0.382991 -0.223614
C14   C     C_R   0.516157 0.871289 0.501701 -0.097344
C15   C     C_R   0.509085 0.936077 0.623606 0.128948
C16   C     C_3   0.441786 0.929508 0.730540 -0.506817
C17   C     C_3   0.441797 0.071697 0.730309 -0.441268
C18   C     C_R   0.430752 0.541211 0.071357 0.137938
C19   C     C_R   0.570966 0.466452 0.071790 -0.124209
C20   C     C_R   0.571000 0.466650 0.927993 -0.112283
C21   C     C_R   0.430549 0.540189 0.928871 0.133888
C22   C     C_3   0.343160 0.486079 0.923639 0.303826
C23   C     C_R   0.502711 0.739985 0.500087 0.873033
C24   C     C_3   0.343222 0.488112 0.077834 -0.550717
C25   C     C_R   0.661680 0.499314 0.499877 0.895188
C26   C     C_3   0.049107 0.399049 0.604169 0.255398
C27   C     C_3   0.049382 0.466417 0.356732 -0.366654
C28   C     C_3   0.951371 0.460904 0.357657 -0.365348
C29   C     C_1   0.750518 0.497222 0.499615 -0.200153
C30   C     C_3   0.082490 0.497507 0.500719 0.221070
H1    H     H_    0.925258 0.305468 0.579752 0.233775
H2    H     H_    0.071901 0.424113 0.707429 0.091977
H3    H     H_    0.927207 0.424453 0.707414 0.141659
H4    H     H_    0.551664 0.113937 0.289033 0.172339
H5    H     H_    0.551719 0.885337 0.289104 0.171744
H6    H     H_    0.381305 0.888450 0.692915 0.204247
H7    H     H_    0.466210 0.888357 0.826509 0.205297
H8    H     H_    0.381404 0.113457 0.692196 0.214510
H9    H     H_    0.466087 0.112889 0.826179 0.219439
H10   H     H_    0.627662 0.437635 0.125600 0.146907
H11   H     H_    0.627743 0.438065 0.874054 0.144316
H12   H     H_    0.297619 0.552202 0.874156 0.055633
H13   H     H_    0.296671 0.556154 0.120687 0.164084
H14   H     H_    0.342325 0.393781 0.125828 0.229354
H15   H     H_    0.070601 0.539595 0.283803 0.168303
H16   H     H_    0.075760 0.375341 0.320597 0.215053
H17   H     H_    0.930441 0.364383 0.330885 0.175608
H18   H     H_    0.925455 0.525405 0.279026 0.202071
H19   H     H_    0.070746 0.653400 0.645205 0.130152
H20   H     H_    0.073552 0.701489 0.471560 0.218198
H21   H     H_    0.925943 0.649929 0.644115 0.042928
N1    N     N_R   0.499430 0.499140 0.142800 -0.091393
N2    N     N_R   0.499430 0.499180 0.857150 -0.082437
O1    O     O_R   0.500010 0.316790 0.614690 -0.592123
O2    O     O_R   0.500000 0.316760 0.385350 -0.621894
O3    O     O_R   0.377150 0.500020 0.614720 -0.599389
O4    O     O_R   0.377140 0.499990 0.385380 -0.610626
O5    O     O_R   0.500000 0.683240 0.614650 -0.622921
O6    O     O_R   0.499990 0.683210 0.385310 -0.620645
O7    O     O_R   0.622860 0.500010 0.614620 -0.628293
O8    O     O_R   0.622850 0.499980 0.385280 -0.622589
Zn1   Zn    Zn3+2 0.500010 0.500020 0.653130 0.970678
Zn2   Zn    Zn3+2 0.499990 0.499980 0.346870 0.947285
O9    O     O_3   0.920042 0.718982 0.442759 -0.638286
C31   C     C_3   0.896776 0.834091 0.504238 0.091212
H22   H     H_    0.907280 0.909524 0.428466 0.180927
H23   H     H_    0.937200 0.857761 0.593436 0.132560
C32   C     C_3   0.802219 0.833050 0.542696 -0.366003
H24   H     H_    0.763696 0.807089 0.452601 0.236360
H25   H     H_    0.790961 0.762026 0.623022 0.210192
C33   C     C_3   0.772718 0.961096 0.594049 -0.936875
H26   H     H_    0.809803 0.988654 0.684979 0.264527
H27   H     H_    0.704354 0.956684 0.621938 0.268500
H28   H     H_    0.780726 0.033281 0.513921 0.264786
Cl1   Cl    Cl    0.088606 0.243910 0.569284 -0.712371
O10   O     O_3   0.345011 0.362886 0.870452 -0.602217
C34   C     C_3   0.261647 0.316703 0.850162 0.125200
H29   H     H_    0.256278 0.287970 0.742307 0.194574
H30   H     H_    0.209773 0.386359 0.869598 0.106899
C35   C     C_3   0.247576 0.201993 0.940474 -0.382368
H31   H     H_    0.300550 0.133888 0.926137 0.234923
H32   H     H_    0.246874 0.231626 0.048345 0.219023
C36   C     C_3   0.163653 0.137348 0.907882 -0.888242
H33   H     H_    0.109662 0.204299 0.918342 0.269852
H34   H     H_    0.153719 0.058113 0.979098 0.254895
H35   H     H_    0.165058 0.099594 0.803063 0.297564

loop_
_geom_bond_atom_site_label_1
_geom_bond_atom_site_label_2
_ccdc_geom_bond_type
O5    Zn1   S    
C23   O5    A    
C28   H17   S    
C26   H2    S    
C18   C21   A    
C19   C20   A    
C22   O10   S    
C3    C6    S    
C20   H11   S    
C18   N1    A    
C7    C8    T    
C34   H29   S    
C23   O6    A    
C18   C24   S    
C3    C28   S    
C13   H5    S    
C16   C17   S    
C15   C16   S    
O7    Zn1   S    
C17   H9    S    
O8    Zn2   S    
C19   N1    A    
C32   H24   S    
C31   H23   S    
O2    Zn2   S    
C25   O7    A    
C9    C10   A    
C16   H7    S    
C27   H15   S    
C7    C30   S    
C21   C22   S    
C27   C30   S    
C5    H19   S    
C35   C36   S    
O4    Zn2   S    
C34   H30   S    
C25   C29   S    
C4    H21   S    
O10   C34   S    
C35   H32   S    
C10   C11   A    
C33   H27   S    
C20   N2    A    
O1    Zn1   S    
C2    H1    S    
C14   C23   S    
C1    O1    A    
N2    Zn1   S    
C36   H33   S    
C8    C12   S    
C31   C32   S    
C36   H35   S    
C26   Cl1   S    
C2    C26   S    
C25   O8    A    
C12   O3    A    
C12   O4    A    
C2    H3    S    
C9    C17   S    
C36   H34   S    
C26   C30   S    
C24   H14   S    
C22   C24   S    
C5    H20   S    
C3    C4    S    
C27   H16   S    
C5    C30   S    
C34   C35   S    
C28   H18   S    
C11   H4    S    
C1    C10   S    
C35   H31   S    
N1    Zn2   S    
C33   H28   S    
C4    O9    S    
O6    Zn2   S    
O9    C31   S    
C2    C3    S    
C1    O2    A    
C33   H26   S    
C16   H6    S    
C21   N2    A    
C11   C13   A    
C22   H12   S    
C32   C33   S    
O3    Zn1   S    
C17   H8    S    
C9    C15   A    
C19   H10   S    
C4    C5    S    
C6    C29   T    
C32   H25   S    
C31   H22   S    
C27   C28   S    
C24   H13   S    
C14   C15   A    
C13   C14   A    
