data_mof_unit_883.cif
_audit_creation_date              2013-03-05T16:11:09-0500
_audit_creation_method            fapswitch 2.2
_symmetry_space_group_name_H-M    P1
_symmetry_Int_Tables_number       1
_space_group_crystal_system       triclinic
_cell_length_a                    9.943578
_cell_length_b                    10.619887
_cell_length_c                    13.645143
_cell_angle_alpha                 91.762358
_cell_angle_beta                  83.261837
_cell_angle_gamma                 90.06504
_cell_volume                      1430.28848775

loop_
_atom_site_label
_atom_site_type_symbol
_atom_site_description
_atom_site_fract_x
_atom_site_fract_y
_atom_site_fract_z
_atom_type_partial_charge
O1    O     O_R   0.385380 0.683250 0.500010 -0.652478
O2    O     O_R   0.614620 0.316750 0.499990 -0.653968
O3    O     O_R   0.614710 0.683220 0.500000 -0.539697
O4    O     O_R   0.385290 0.316780 0.500000 -0.540161
C1    C     C_R   0.500492 0.739253 0.499925 0.999588
C2    C     C_R   0.499535 0.260756 0.499943 0.998854
O5    O     O_R   0.368830 0.499990 0.640350 -0.638370
O6    O     O_R   0.631170 0.500010 0.359650 -0.638008
O7    O     O_R   0.598160 0.499960 0.640350 -0.557671
O8    O     O_R   0.401840 0.500040 0.359650 -0.559892
C3    C     C_R   0.476092 0.500003 0.685348 0.952673
C4    C     C_R   0.523960 0.499688 0.314751 0.957619
Zn1   Zn    Zn3+2 0.346870 0.500020 0.500000 1.065391
Zn2   Zn    Zn3+2 0.653130 0.499980 0.500000 1.065400
C5    C     C_R   0.940020 0.428074 0.431732 0.091663
C6    C     C_R   0.059954 0.572250 0.567978 0.092455
C7    C     C_R   0.083265 0.426428 0.433446 0.319057
C8    C     C_R   0.917001 0.575432 0.565185 0.317016
C9    C     C_1   0.541693 0.497877 0.211477 0.005003
C10   C     C_1   0.459705 0.512152 0.788598 0.002428
C11   C     C_2   0.562189 0.498352 0.019763 0.188766
C12   C     C_2   0.455549 0.544116 0.978771 0.191738
C13   C     C_1   0.452933 0.526499 0.875632 0.097287
C14   C     C_1   0.554328 0.497153 0.123986 0.085486
C15   C     C_R   0.543227 0.931298 0.411450 0.215823
C16   C     C_R   0.456862 0.068728 0.588273 0.217442
C17   C     C_R   0.539961 0.061730 0.410800 0.218992
C18   C     C_R   0.460226 0.938341 0.588937 0.220518
C19   C     C_R   0.497244 0.128259 0.499331 -0.327608
C20   C     C_R   0.502820 0.871772 0.500415 -0.326234
N1    N     N_R   0.142790 0.500030 0.500020 -0.186368
N2    N     N_R   0.857210 0.499970 0.499980 -0.186736
N3    N     N_2   0.884544 0.354426 0.357367 -0.281277
H1    H     H_    0.790227 0.317054 0.374564 0.288643
C21   C     C_3   0.912079 0.395724 0.256654 -0.442178
H2    H     H_    0.815986 0.413184 0.225465 0.223465
H3    H     H_    0.967883 0.320373 0.210641 0.283959
H4    H     H_    0.972691 0.483884 0.251845 0.238731
N4    N     N_2   0.115200 0.645550 0.642612 -0.284694
H5    H     H_    0.210620 0.680952 0.626430 0.288743
C22   C     C_3   0.084006 0.605745 0.743473 -0.435290
H6    H     H_    0.178463 0.582617 0.775025 0.222845
H7    H     H_    0.017624 0.521256 0.748500 0.245478
H8    H     H_    0.032656 0.683992 0.788930 0.284549
N5    N     N_R   0.164554 0.340316 0.369220 0.249943
O9    O     O_R   0.168923 0.222533 0.392092 -0.302291
O10   O     O_R   0.208268 0.372091 0.279829 -0.341684
N6    N     N_R   0.837139 0.667308 0.624664 0.248588
O11   O     O_R   0.838711 0.783513 0.597140 -0.307797
O12   O     O_R   0.788478 0.642260 0.714496 -0.305719
N7    N     N_R   0.340630 0.604869 0.035765 0.229449
O13   O     O_R   0.223473 0.603758 0.002052 -0.317449
O14   O     O_R   0.356319 0.677185 0.112326 -0.295805
N8    N     N_R   0.678711 0.440032 0.962917 0.224092
O15   O     O_R   0.749241 0.357136 0.003415 -0.299568
O16   O     O_R   0.726970 0.482454 0.877530 -0.323839
N9    N     N_R   0.580155 0.859411 0.321345 0.225483
O17   O     O_R   0.516208 0.876510 0.244904 -0.250676
O18   O     O_R   0.684416 0.784333 0.313031 -0.340344
N10   N     N_R   0.419990 0.140607 0.678381 0.224382
O19   O     O_R   0.484958 0.124462 0.754476 -0.272613
O20   O     O_R   0.315186 0.215052 0.686957 -0.340102
N11   N     N_R   0.580941 0.126432 0.321184 0.220694
O21   O     O_R   0.695363 0.098686 0.268543 -0.289382
O22   O     O_R   0.500126 0.207562 0.288824 -0.345896
N12   N     N_R   0.419821 0.873706 0.678645 0.219766
O23   O     O_R   0.305361 0.901012 0.731391 -0.292336
O24   O     O_R   0.501600 0.793698 0.711257 -0.345876

loop_
_geom_bond_atom_site_label_1
_geom_bond_atom_site_label_2
_geom_bond_distance
_ccdc_geom_bond_type
N12   O24   1.300361 A    
O7    Zn2   1.928923 S    
N11   O22   1.300499 A    
C15   C17   1.385908 A    
C22   H7    1.112341 S    
C22   H6    1.108951 S    
C16   C18   1.385479 A    
C21   H2    1.108684 S    
C10   C13   1.186694 T    
O6    C4    1.290324 A    
C2    C19   1.407051 S    
N6    O12   1.299222 A    
C9    C14   1.185463 T    
O2    Zn2   1.982776 S    
C5    N2    1.380575 A    
N4    C22   1.450620 S    
C11   C12   1.352984 D    
N11   O21   1.301240 A    
C6    N1    1.380228 A    
O5    C3    1.291602 A    
O7    C3    1.294366 A    
N9    O17   1.301072 A    
O2    C2    1.289092 A    
O3    Zn2   1.983558 S    
C17   N11   1.437929 S    
O1    C1    1.289210 A    
O8    C4    1.294295 A    
C4    C9    1.399036 S    
C18   C20   1.402237 A    
N6    O11   1.300515 A    
C21   H3    1.109417 S    
N3    H1    1.022439 S    
N12   O23   1.301215 A    
O3    C1    1.282906 A    
N5    O10   1.300460 A    
N10   O20   1.300893 A    
C11   N8    1.445301 S    
C7    N1    1.366730 A    
C22   H8    1.109470 S    
N8    O16   1.300504 A    
C3    C10   1.401105 S    
N9    O18   1.300809 A    
O4    C2    1.282886 A    
O1    Zn1   1.982773 S    
N4    H5    1.022492 S    
N7    O13   1.301648 A    
C15   N9    1.437460 S    
N5    O9    1.300458 A    
O5    Zn1   1.952804 S    
C21   H4    1.112357 S    
C8    N2    1.366210 A    
C17   C19   1.402384 A    
C7    N5    1.429626 S    
C16   C19   1.402163 A    
C6    C8    1.426906 A    
C1    C20   1.407324 S    
C11   C14   1.415542 S    
C15   C20   1.402463 A    
C5    C7    1.427445 A    
Zn1   N1    2.029255 S    
N8    O15   1.301733 A    
N10   O19   1.301344 A    
O6    Zn2   1.952805 S    
C6    N4    1.423520 S    
N3    C21   1.450638 S    
C12   C13   1.417290 S    
C16   N10   1.437349 S    
C5    N3    1.423816 S    
C18   N12   1.437568 S    
O4    Zn1   1.983559 S    
Zn2   N2    2.029253 S    
C12   N7    1.445377 S    
N7    O14   1.301590 A    
O8    Zn1   1.928924 S    
C8    N6    1.429385 S    
