data_mof_unit_1864.cif
_audit_creation_date              2012-12-10T17:06:00-0500
_audit_creation_method            fapswitch 2.2
_symmetry_space_group_name_H-M    P1
_symmetry_Int_Tables_number       1
_space_group_crystal_system       triclinic
_cell_length_a                    25.854859
_cell_length_b                    25.892972
_cell_length_c                    18.399764
_cell_angle_alpha                 90.538153
_cell_angle_beta                  135.205597
_cell_angle_gamma                 89.452185
_cell_volume                      8678.29683833

loop_
_atom_site_label
_atom_site_type_symbol
_atom_type_description
_atom_site_fract_x
_atom_site_fract_y
_atom_site_fract_z
_atom_type_partial_charge
C1    C     C_R   0.886567 0.746607 0.780130 0.529273
C2    C     C_R   0.500260 0.210238 0.548842 -0.015003
C3    C     C_R   0.195094 0.527188 0.408454 -0.012571
C4    C     C_R   0.842711 0.553739 0.485776 -0.081396
C5    C     C_R   0.849772 0.446397 0.497603 -0.084806
C6    C     C_R   0.342685 0.053738 0.485731 -0.081408
C7    C     C_R   0.349728 0.946394 0.497522 -0.084796
C8    C     C_R   0.891017 0.526910 0.488718 -0.076517
C9    C     C_R   0.895585 0.473524 0.496663 -0.087134
C10   C     C_R   0.390969 0.026908 0.488633 -0.076539
C11   C     C_R   0.395527 0.973520 0.496557 -0.087124
C12   C     C_R   0.800187 0.472617 0.495145 0.038743
C13   C     C_R   0.943555 0.293717 0.443749 -0.007709
C14   C     C_R   0.798314 0.527339 0.492159 0.033948
C15   C     C_R   0.300166 0.972616 0.495110 0.038741
C16   C     C_R   0.298299 0.027338 0.492135 0.033951
C17   C     C_R   0.750132 0.553992 0.491919 0.032488
C18   C     C_R   0.750824 0.446152 0.492420 0.030488
C19   C     C_R   0.250132 0.053992 0.491924 0.032496
C20   C     C_R   0.250821 0.946151 0.492420 0.030482
C21   C     C_R   0.700490 0.526987 0.485443 -0.122124
C22   C     C_R   0.700397 0.473657 0.484759 -0.138191
C23   C     C_R   0.200504 0.026987 0.485478 -0.122115
C24   C     C_R   0.000283 0.710254 0.548890 -0.015003
C25   C     C_R   0.200410 0.973657 0.484795 -0.138191
C26   C     C_R   0.750065 0.889915 0.500206 0.503817
C27   C     C_R   0.750520 0.110133 0.500180 0.504821
C28   C     C_R   0.250060 0.389915 0.500201 0.503753
C29   C     C_R   0.250523 0.610133 0.500182 0.504847
C30   C     C_R   0.893337 0.751907 0.506317 0.531451
C31   C     C_R   0.889647 0.250190 0.499080 0.560177
C32   C     C_R   0.393335 0.251903 0.506312 0.531448
C33   C     C_R   0.389648 0.750189 0.499082 0.560166
C34   C     C_R   0.609159 0.750956 0.498251 0.579741
C35   C     C_R   0.501042 0.795884 0.448271 -0.020362
C36   C     C_R   0.609035 0.250242 0.498283 0.530574
C37   C     C_R   0.109167 0.250947 0.498267 0.579780
C38   C     C_R   0.109034 0.750241 0.498281 0.530586
C39   C     C_R   0.504881 0.840593 0.405656 0.022515
C40   C     C_R   0.545520 0.154647 0.496665 0.070550
C41   C     C_R   0.004876 0.340562 0.405612 0.022525
C42   C     C_R   0.045559 0.654649 0.496755 0.070555
C43   C     C_R   0.459287 0.883741 0.374594 0.016516
C44   C     C_R   0.549704 0.112811 0.549502 0.006706
C45   C     C_R   0.959331 0.383731 0.374618 0.016546
C46   C     C_R   0.530905 0.205139 0.509929 -0.008929
C47   C     C_R   0.049769 0.612828 0.549638 0.006668
C48   C     C_R   0.399787 0.878240 0.361623 -0.089545
C49   C     C_R   0.540206 0.122677 0.614520 -0.100333
C50   C     C_R   0.899854 0.378258 0.361705 -0.089499
C51   C     C_R   0.040274 0.622712 0.614655 -0.100313
C52   C     C_2   0.596513 0.665384 0.581241 0.274879
C53   C     C_2   0.543056 0.348502 0.476284 0.277746
C54   C     C_2   0.096516 0.165378 0.581259 0.274859
C55   C     C_2   0.043019 0.848498 0.476212 0.277775
C56   C     C_2   0.635163 0.944130 0.310751 0.269613
C57   C     C_R   0.001045 0.295870 0.448263 -0.020354
C58   C     C_2   0.637857 0.056313 0.310981 0.293695
C59   C     C_2   0.135127 0.444130 0.310767 0.269525
C60   C     C_2   0.137864 0.556314 0.310983 0.293771
C61   C     C_2   0.976140 0.941458 0.874846 0.297875
C62   C     C_2   0.986494 0.058879 0.869085 0.314442
C63   C     C_2   0.476148 0.441447 0.874837 0.297842
C64   C     C_2   0.486481 0.558870 0.869103 0.314476
C65   C     C_2   0.471065 0.934664 0.351278 0.292857
C66   C     C_2   0.569078 0.059780 0.543694 0.257699
C67   C     C_2   0.971136 0.434643 0.351305 0.292852
C68   C     C_R   0.030926 0.705145 0.509976 -0.008939
C69   C     C_2   0.069162 0.559795 0.543875 0.257758
C70   C     C_2   0.464920 0.738623 0.172661 0.278397
C71   C     C_2   0.563878 0.370682 0.167504 0.310368
C72   C     C_2   0.964900 0.238421 0.172620 0.278509
C73   C     C_2   0.063866 0.870682 0.167504 0.310374
C74   C     C_R   0.550907 0.753033 0.493717 0.021754
C75   C     C_R   0.549563 0.251036 0.492294 -0.007683
C76   C     C_R   0.050910 0.253021 0.493721 0.021733
C77   C     C_R   0.890633 0.249820 0.779705 0.511645
C78   C     C_R   0.049564 0.751036 0.492298 -0.007690
C79   C     C_R   0.545049 0.710261 0.534848 -0.006828
C80   C     C_R   0.520657 0.299282 0.487779 -0.006659
C81   C     C_R   0.045051 0.210254 0.534858 -0.006849
C82   C     C_R   0.020641 0.799282 0.487749 -0.006651
C83   C     C_R   0.490709 0.710040 0.534005 0.028657
C84   C     C_R   0.470582 0.300619 0.495702 0.087822
C85   C     C_R   0.990707 0.210036 0.534007 0.028668
C86   C     C_R   0.970569 0.800622 0.495677 0.087816
C87   C     C_R   0.441846 0.751801 0.491533 0.040186
C88   C     C_R   0.386567 0.246607 0.780130 0.529268
C89   C     C_R   0.457200 0.254975 0.521165 0.018629
C90   C     C_R   0.941850 0.251801 0.491540 0.040181
C91   C     C_R   0.957205 0.754984 0.521176 0.018627
C92   C     C_R   0.447145 0.771752 0.092466 0.027670
C93   C     C_R   0.498069 0.338288 0.090805 0.050328
C94   C     C_R   0.947102 0.271592 0.092448 0.027720
C95   C     C_R   0.998060 0.838285 0.090805 0.050328
C96   C     C_R   0.384176 0.802355 0.039108 -0.100592
C97   C     C_R   0.430917 0.360141 0.045197 -0.123647
C98   C     C_R   0.884089 0.302140 0.039086 -0.100670
C99   C     C_R   0.390634 0.749819 0.779705 0.511658
C100  C     C_R   0.930906 0.860133 0.045196 -0.123647
C101  C     C_R   0.342563 0.817021 0.938040 -0.092700
C102  C     C_R   0.365421 0.339208 0.955127 -0.110240
C103  C     C_R   0.842464 0.316827 0.938025 -0.092714
C104  C     C_R   0.865412 0.839199 0.955125 -0.110239
C105  C     C_R   0.607806 0.750917 0.219786 0.528425
C106  C     C_R   0.612636 0.252926 0.219391 0.569505
C107  C     C_R   0.107806 0.250915 0.219785 0.528469
C108  C     C_R   0.112635 0.752926 0.219391 0.569501
C109  C     C_R   0.361659 0.799367 0.888061 -0.079074
C110  C     C_R   0.388699 0.833156 0.388858 0.039040
C111  C     C_R   0.366690 0.299449 0.905070 -0.068769
C112  C     C_R   0.861594 0.299248 0.888057 -0.079047
C113  C     C_R   0.866686 0.799442 0.905069 -0.068768
C114  C     C_R   0.427532 0.771389 0.942344 -0.007660
C115  C     C_R   0.433992 0.277967 0.947905 -0.022155
C116  C     C_R   0.927503 0.271323 0.942342 -0.007676
C117  C     C_R   0.933990 0.777965 0.947905 -0.022157
C118  C     C_R   0.475652 0.762938 0.049293 0.017964
C119  C     C_R   0.498756 0.291314 0.049882 0.016022
C120  C     C_R   0.975630 0.262858 0.049287 0.017991
C121  C     C_R   0.516789 0.171124 0.615949 0.096983
C122  C     C_R   0.998752 0.791313 0.049882 0.016020
C123  C     C_R   0.549738 0.748151 0.106956 0.020741
C124  C     C_R   0.559824 0.256775 0.105838 0.023517
C125  C     C_R   0.049739 0.248142 0.106955 0.020735
C126  C     C_R   0.059824 0.756777 0.105838 0.023516
C127  C     C_R   0.569637 0.732433 0.055807 0.083484
C128  C     C_R   0.561358 0.218256 0.051871 0.087271
C129  C     C_R   0.069658 0.232489 0.055805 0.083486
C130  C     C_R   0.061362 0.718260 0.051871 0.087282
C131  C     C_R   0.516868 0.732501 0.947723 0.068834
C132  C     C_R   0.888741 0.333176 0.388919 0.039033
C133  C     C_R   0.498344 0.208612 0.947955 0.098614
C134  C     C_R   0.016888 0.232556 0.947722 0.068871
C135  C     C_R   0.998349 0.708615 0.947955 0.098614
C136  C     C_R   0.446208 0.751952 0.891717 0.010963
C137  C     C_R   0.438061 0.242446 0.893157 -0.007880
C138  C     C_R   0.946206 0.251952 0.891717 0.010938
C139  C     C_R   0.938062 0.742446 0.893158 -0.007881
C140  C     C_R   0.867219 0.946500 0.687189 -0.127965
C141  C     C_R   0.868529 0.053706 0.686457 -0.121668
C142  C     C_R   0.367222 0.446496 0.687180 -0.127949
C143  C     C_R   0.016833 0.671159 0.616037 0.097007
C144  C     C_R   0.368525 0.553702 0.686466 -0.121671
C145  C     C_R   0.923348 0.972898 0.779674 0.031363
C146  C     C_R   0.925282 0.027411 0.778579 0.033012
C147  C     C_R   0.423351 0.472891 0.779669 0.031349
C148  C     C_R   0.425277 0.527404 0.778585 0.033009
C149  C     C_R   0.809361 0.027243 0.594187 0.006880
C150  C     C_R   0.808990 0.972908 0.594290 0.009654
C151  C     C_R   0.309360 0.527241 0.594189 0.006864
C152  C     C_R   0.308990 0.472906 0.594287 0.009670
C153  C     C_R   0.750131 0.609949 0.498219 0.508825
C154  C     C_R   0.443539 0.793715 0.443728 -0.007700
C155  C     C_R   0.750178 0.390085 0.497462 0.516390
C156  C     C_R   0.250131 0.109949 0.498221 0.508815
C157  C     C_R   0.250177 0.890085 0.497463 0.516365
C158  C     C_R   0.751246 0.946136 0.501278 0.003680
C159  C     C_R   0.752158 0.053952 0.501087 -0.001653
C160  C     C_R   0.251241 0.446136 0.501276 0.003654
C161  C     C_R   0.252158 0.553952 0.501090 -0.001650
C162  C     C_R   0.694362 0.972986 0.408377 -0.013308
C163  C     C_R   0.695096 0.027188 0.408450 -0.012612
C164  C     C_R   0.194350 0.472987 0.408381 -0.013369
H1    H     H_    0.292553 0.839106 0.896052 0.154264
H2    H     H_    0.872680 0.095294 0.687438 0.128386
H3    H     H_    0.369435 0.404781 0.689727 0.120061
H4    H     H_    0.372673 0.595291 0.687455 0.128413
H5    H     H_    0.662602 0.547360 0.483305 0.156877
H6    H     H_    0.662214 0.453692 0.481706 0.155200
H7    H     H_    0.162629 0.047361 0.483364 0.156873
H8    H     H_    0.162240 0.953692 0.481767 0.155219
H9    H     H_    0.839661 0.595073 0.475922 0.141359
H10   H     H_    0.853583 0.404950 0.498718 0.160849
H11   H     H_    0.339642 0.095073 0.475893 0.141350
H12   H     H_    0.313563 0.355583 0.921081 0.145440
H13   H     H_    0.353526 0.904946 0.498618 0.160813
H14   H     H_    0.924431 0.547624 0.483600 0.164862
H15   H     H_    0.933929 0.452994 0.500174 0.156839
H16   H     H_    0.424375 0.047621 0.483499 0.164846
H17   H     H_    0.433855 0.952989 0.500035 0.156811
H18   H     H_    0.859661 0.409062 0.326396 0.189394
H19   H     H_    0.052849 0.593126 0.666569 0.186703
H20   H     H_    0.359569 0.909029 0.326275 0.189402
H21   H     H_    0.552764 0.093078 0.666404 0.186690
H22   H     H_    0.363359 0.810931 0.072355 0.135353
H23   H     H_    0.792422 0.338867 0.896033 0.154259
H24   H     H_    0.429241 0.394649 0.077283 0.119694
H25   H     H_    0.863250 0.310654 0.072320 0.135304
H26   H     H_    0.929226 0.894639 0.077281 0.119699
H27   H     H_    0.576304 0.626447 0.568402 0.148293
H28   H     H_    0.530816 0.355765 0.407385 0.130132
H29   H     H_    0.076308 0.126440 0.568419 0.148290
H30   H     H_    0.030763 0.855749 0.407299 0.130129
H31   H     H_    0.648707 0.913958 0.285279 0.142555
H32   H     H_    0.653088 0.079491 0.279788 0.137209
H33   H     H_    0.148644 0.413931 0.285303 0.142603
H34   H     H_    0.813552 0.855570 0.921079 0.145436
H35   H     H_    0.153098 0.579462 0.279767 0.137179
H36   H     H_    0.986130 0.901436 0.869503 0.107012
H37   H     H_    0.976237 0.098467 0.876097 0.112282
H38   H     H_    0.486125 0.401423 0.869481 0.107011
H39   H     H_    0.476206 0.598444 0.876154 0.112286
H40   H     H_    0.522595 0.943447 0.376188 0.172619
H41   H     H_    0.584035 0.052059 0.502594 0.159668
H42   H     H_    0.022620 0.443372 0.376050 0.172685
H43   H     H_    0.084121 0.552065 0.502779 0.159682
H44   H     H_    0.464599 0.754516 0.227051 0.117307
H45   H     H_    0.325372 0.808897 0.807327 0.123954
H46   H     H_    0.565477 0.398890 0.213104 0.109189
H47   H     H_    0.964513 0.254267 0.226980 0.117304
H48   H     H_    0.065461 0.898886 0.213106 0.109196
H49   H     H_    0.314432 0.284448 0.834865 0.172484
H50   H     H_    0.825300 0.308793 0.807328 0.123980
H51   H     H_    0.814429 0.784439 0.834863 0.172483
H52   H     H_    0.869429 0.904786 0.689743 0.120061
I1    I     I_    0.542979 0.703600 0.867247 -0.218320
I2    I     I_    0.546534 0.189216 0.754739 -0.226103
I3    I     I_    0.779725 0.328590 0.321534 -0.241377
I4    I     I_    0.046553 0.689285 0.754797 -0.226075
I5    I     I_    0.484974 0.647120 0.604119 -0.270158
I6    I     I_    0.422829 0.373342 0.481352 -0.221822
I7    I     I_    0.984965 0.147117 0.604117 -0.270223
I8    I     I_    0.922796 0.873343 0.481283 -0.221864
I9    I     I_    0.678629 0.704251 0.142831 -0.202096
I10   I     I_    0.660569 0.179210 0.116853 -0.177822
I11   I     I_    0.178682 0.204391 0.142821 -0.202097
I12   I     I_    0.487061 0.134695 0.883576 -0.172868
I13   I     I_    0.160578 0.679221 0.116853 -0.177737
I14   I     I_    0.043025 0.203717 0.867248 -0.218284
I15   I     I_    0.987073 0.634698 0.883580 -0.172875
I16   I     I_    0.562199 0.844880 0.360265 -0.358556
I17   I     I_    0.542651 0.139999 0.378820 -0.236925
I18   I     I_    0.062054 0.344769 0.360000 -0.358739
I19   I     I_    0.042677 0.639972 0.378906 -0.236824
I20   I     I_    0.279680 0.828543 0.321455 -0.241330
O1    O     O_3   0.750020 0.750020 0.500000 -0.461796
O2    O     O_R   0.750010 0.134170 0.560720 -0.531811
O3    O     O_R   0.250010 0.365830 0.560720 -0.531204
O4    O     O_R   0.250010 0.634170 0.560720 -0.531824
O5    O     O_R   0.896180 0.719660 0.731600 -0.491098
O6    O     O_R   0.896180 0.280340 0.731600 -0.516666
O7    O     O_R   0.396180 0.219660 0.731600 -0.491099
O8    O     O_R   0.396180 0.780340 0.731600 -0.516696
O9    O     O_R   0.664580 0.780370 0.268400 -0.520270
O10   O     O_R   0.664580 0.219630 0.268400 -0.504049
O11   O     O_R   0.164580 0.280370 0.268400 -0.520238
O12   O     O_3   0.750020 0.249980 0.500000 -0.454083
O13   O     O_R   0.164580 0.719630 0.268400 -0.504039
O14   O     O_R   0.835450 0.780390 0.731600 -0.562273
O15   O     O_R   0.835450 0.219610 0.731600 -0.541799
O16   O     O_R   0.335450 0.280390 0.731600 -0.562281
O17   O     O_R   0.335450 0.719610 0.731600 -0.541773
O18   O     O_R   0.603870 0.719650 0.268400 -0.495081
O19   O     O_R   0.603870 0.280350 0.268400 -0.541219
O20   O     O_R   0.103870 0.219650 0.268400 -0.495086
O21   O     O_R   0.103870 0.780350 0.268400 -0.541229
O22   O     O_R   0.810750 0.634210 0.560720 -0.534474
O23   O     O_3   0.250020 0.250020 0.500000 -0.461787
O24   O     O_R   0.810750 0.365790 0.560720 -0.545484
O25   O     O_R   0.310750 0.134210 0.560720 -0.534471
O26   O     O_R   0.310750 0.865790 0.560720 -0.545483
O27   O     O_R   0.750010 0.865820 0.439280 -0.544345
O28   O     O_R   0.750010 0.134180 0.439280 -0.544646
O29   O     O_R   0.250010 0.365820 0.439280 -0.544327
O30   O     O_R   0.250010 0.634180 0.439280 -0.544629
O31   O     O_R   0.896180 0.719650 0.560720 -0.532266
O32   O     O_R   0.896180 0.280350 0.560720 -0.522834
O33   O     O_R   0.396180 0.219650 0.560720 -0.532258
O34   O     O_3   0.250020 0.749980 0.500000 -0.454087
O35   O     O_R   0.396180 0.780350 0.560720 -0.522848
O36   O     O_R   0.664570 0.780390 0.560720 -0.506220
O37   O     O_R   0.664570 0.219610 0.560720 -0.515989
O38   O     O_R   0.164570 0.280390 0.560720 -0.506241
O39   O     O_R   0.164570 0.719610 0.560720 -0.515982
O40   O     O_R   0.835460 0.780370 0.439280 -0.503523
O41   O     O_R   0.835460 0.219630 0.439280 -0.498250
O42   O     O_R   0.335460 0.280370 0.439280 -0.503510
O43   O     O_R   0.335460 0.719630 0.439280 -0.498245
O44   O     O_R   0.603860 0.719660 0.439280 -0.517121
O45   O     O_R   0.689310 0.634210 0.439280 -0.520839
O46   O     O_R   0.603860 0.280340 0.439280 -0.562967
O47   O     O_R   0.103860 0.219660 0.439280 -0.517193
O48   O     O_R   0.103860 0.780340 0.439280 -0.562972
O49   O     O_2   0.662123 0.671448 0.636298 -0.490324
O50   O     O_2   0.576205 0.381022 0.544677 -0.469402
O51   O     O_2   0.162127 0.171443 0.636323 -0.490329
O52   O     O_2   0.076168 0.881026 0.544587 -0.469423
O53   O     O_2   0.570571 0.953063 0.258988 -0.420992
O54   O     O_2   0.573906 0.055817 0.266871 -0.399532
O55   O     O_2   0.070544 0.453093 0.259006 -0.421044
O56   O     O_R   0.689310 0.365790 0.439280 -0.547469
O57   O     O_2   0.073921 0.555852 0.266898 -0.399531
O58   O     O_2   0.005456 0.958497 0.958870 -0.424026
O59   O     O_2   0.049301 0.042326 0.933269 -0.393648
O60   O     O_2   0.505487 0.458486 0.958872 -0.424044
O61   O     O_2   0.549298 0.542334 0.933252 -0.393602
O62   O     O_2   0.423792 0.968255 0.305958 -0.459660
O63   O     O_2   0.569064 0.023589 0.585783 -0.517357
O64   O     O_2   0.923945 0.468288 0.306185 -0.459701
O65   O     O_2   0.069164 0.523615 0.585996 -0.517278
O66   O     O_2   0.472239 0.692037 0.171623 -0.442953
O67   O     O_R   0.189310 0.134210 0.439280 -0.520808
O68   O     O_2   0.615246 0.368149 0.176419 -0.454308
O69   O     O_2   0.972326 0.191845 0.171600 -0.442950
O70   O     O_2   0.115233 0.868156 0.176418 -0.454319
O71   O     O_R   0.189310 0.865790 0.439280 -0.547456
O72   O     O_R   0.750010 0.865830 0.560720 -0.531157
Zn1   Zn    Zn3+2 0.663270 0.706640 0.413250 1.020787
Zn2   Zn    Zn3+2 0.750020 0.206610 0.413240 1.018807
Zn3   Zn    Zn3+2 0.250020 0.293390 0.413240 0.987883
Zn4   Zn    Zn3+2 0.250020 0.706610 0.413240 1.018824
Zn5   Zn    Zn3+2 0.750010 0.793400 0.586760 0.974635
Zn6   Zn    Zn3+2 0.750010 0.206600 0.586760 0.971620
Zn7   Zn    Zn3+2 0.250010 0.293400 0.586760 0.974609
Zn8   Zn    Zn3+2 0.250010 0.706600 0.586760 0.971638
Zn9   Zn    Zn3+2 0.663270 0.293360 0.413250 0.964330
Zn10  Zn    Zn3+2 0.163270 0.206640 0.413250 1.020762
Zn11  Zn    Zn3+2 0.163270 0.793360 0.413250 0.964328
Zn12  Zn    Zn3+2 0.836780 0.706640 0.586750 1.000940
Zn13  Zn    Zn3+2 0.836780 0.293360 0.586750 0.984845
Zn14  Zn    Zn3+2 0.336780 0.206640 0.586750 1.000944
Zn15  Zn    Zn3+2 0.336780 0.793360 0.586750 0.984824
Zn16  Zn    Zn3+2 0.750020 0.793390 0.413240 0.987855

loop_
_geom_bond_atom_site_label_1
_geom_bond_atom_site_label_2
_ccdc_geom_bond_type
O34   Zn4   S    
C133  C137  A    
C63   H38   S    
C67   O64   D    
C5    H10   S    
C73   H48   S    
C11   H17   S    
C35   C154  A    
C17   C153  S    
C145  C146  A    
O43   Zn4   S    
O11   Zn3   S    
C135  C139  A    
C141  H2    S    
C57   C76   A    
O46   Zn9   S    
C144  C151  A    
C51   H19   S    
O24   Zn13  S    
C155  O56   A    
C59   O55   D    
C56   C162  S    
C100  C104  A    
C7    H13   S    
C121  I2    S    
C59   C164  S    
C143  I4    S    
C56   O53   D    
C151  C161  A    
O20   Zn10  S    
O12   Zn13  S    
C88   O16   A    
C72   C94   S    
C7    C15   A    
C21   C22   A    
C33   O35   A    
C29   O30   A    
C34   O36   A    
C102  C111  A    
C117  C139  A    
C109  H45   S    
C15   C20   A    
O71   Zn11  S    
C77   C138  S    
C5    C12   A    
C48   H20   S    
C120  C125  A    
C38   C78   S    
C130  I13   S    
O44   Zn1   S    
C17   C21   A    
C103  C112  A    
C19   C23   A    
C62   H37   S    
C56   H31   S    
C78   C82   A    
C31   C90   S    
C22   H6    S    
C3    C164  A    
C95   C122  A    
C131  C136  A    
C74   C79   A    
O23   Zn14  S    
C40   C46   A    
O56   Zn9   S    
C2    C121  A    
C104  H34   S    
C100  H26   S    
C111  H49   S    
C40   I17   S    
C140  C145  A    
C85   C90   A    
C71   C93   S    
C51   C143  A    
O9    Zn16  S    
C45   C50   A    
C27   O28   A    
C13   C132  A    
C99   C136  S    
C26   C158  S    
O36   Zn5   S    
C4    C14   A    
C53   H28   S    
C127  C131  A    
O72   Zn5   S    
C36   O46   A    
C83   I5    S    
C125  C129  A    
C23   H7    S    
C128  I10   S    
C61   O58   D    
C20   C25   A    
C106  C124  S    
C126  C130  A    
C30   O31   A    
C108  C126  S    
C54   C81   S    
C27   O2    A    
C48   C110  A    
C26   O72   A    
C147  C148  A    
C88   O7    A    
C105  C123  S    
C69   O65   D    
O17   Zn8   S    
O7    Zn14  S    
C28   O3    A    
C156  O25   A    
C13   C57   A    
C24   C143  A    
C27   C159  S    
C92   C96   A    
O1    Zn16  S    
C99   O8    A    
C92   C118  A    
C47   C69   S    
O27   Zn16  S    
C94   C120  A    
C115  C137  A    
O29   Zn3   S    
C112  H50   S    
C52   C79   S    
O30   Zn4   S    
O3    Zn7   S    
C9    H15   S    
C64   C148  S    
C14   C17   A    
C108  O21   A    
C50   H18   S    
O21   Zn11  S    
C63   C147  S    
C46   C75   A    
O22   Zn12  S    
O10   Zn2   S    
C53   C80   S    
C107  C125  S    
O31   Zn12  S    
O28   Zn2   S    
C66   H41   S    
C24   C68   A    
C26   O27   A    
O1    Zn5   S    
C6    C16   A    
C28   O29   A    
C116  C120  A    
C52   H27   S    
C117  C122  A    
C5    C9    A    
C36   C75   S    
C37   O38   A    
C42   I19   S    
C123  C127  A    
C60   O57   D    
C151  C152  A    
C49   C121  A    
C105  O9    A    
C109  C114  A    
O13   Zn4   S    
C113  C117  A    
C115  C119  A    
C157  O71   A    
C93   C97   A    
C112  C116  A    
O5    Zn12  S    
C41   C45   A    
C18   C22   A    
C142  C147  A    
O40   Zn16  S    
O39   Zn8   S    
C33   C87   S    
C39   I16   S    
C84   I6    S    
C21   H5    S    
C58   H32   S    
C134  I14   S    
C10   C11   A    
C104  C113  A    
C40   C44   A    
C55   H30   S    
C49   H21   S    
C62   C146  S    
C64   O61   D    
C93   C119  A    
C81   C85   A    
O23   Zn7   S    
C83   C87   A    
C35   C74   A    
C30   O40   A    
C13   C90   A    
C130  C135  A    
C80   C84   A    
O67   Zn10  S    
C32   O33   A    
C160  C164  A    
O45   Zn1   S    
C86   C91   A    
C33   O43   A    
C4    H9    S    
C38   O39   A    
C72   H47   S    
C6    H11   S    
C94   C98   A    
C101  C109  A    
C98   C103  A    
C142  C152  A    
C61   C145  S    
O12   Zn6   S    
C45   C67   S    
O34   Zn15  S    
C37   O47   A    
C29   O4    A    
C97   C102  A    
C1    C139  S    
C38   O48   A    
C124  C128  A    
C3    C60   S    
O15   Zn6   S    
C157  O26   A    
C135  I15   S    
C96   C101  A    
C19   C156  S    
C70   O66   D    
C105  O18   A    
C98   H25   S    
C153  O22   A    
C110  I20   S    
O33   Zn14  S    
C68   C78   A    
C69   H43   S    
C96   H22   S    
C95   C100  A    
C47   C51   A    
C82   C86   A    
C2    C89   A    
C35   C39   A    
O4    Zn8   S    
C32   C89   S    
C65   O62   D    
C43   C65   S    
O35   Zn15  S    
C129  I11   S    
C62   O59   D    
C87   C154  A    
C103  H23   S    
C71   O68   D    
C101  H1    S    
C85   I7    S    
C67   H42   S    
C50   C132  A    
C141  C146  A    
C34   C74   S    
C25   H8    S    
O26   Zn15  S    
C37   C76   S    
C20   C157  S    
C36   O37   A    
C32   O42   A    
C162  C163  A    
O1    Zn1   S    
O2    Zn6   S    
C150  C158  A    
C70   C92   S    
O25   Zn14  S    
C6    C10   A    
O34   Zn8   S    
C108  O13   A    
C10   H16   S    
C54   O51   D    
C41   C57   A    
C149  C150  A    
C79   C83   A    
C53   O50   D    
C65   H40   S    
C16   C19   A    
C58   C163  S    
C63   O60   D    
C118  C123  A    
C88   C137  S    
C3    C161  A    
C129  C134  A    
C58   O54   D    
O48   Zn11  S    
C127  I9    S    
O18   Zn1   S    
C102  H12   S    
C18   C155  S    
C44   C49   A    
C97   H24   S    
C152  C160  A    
O6    Zn13  S    
C44   C66   S    
C133  I12   S    
C28   C160  S    
C4    C8    A    
C141  C149  A    
C119  C124  A    
C2    C46   A    
C7    C11   A    
C144  H4    S    
C107  O11   A    
O41   Zn2   S    
C41   I18   S    
O1    Zn12  S    
C70   H44   S    
C15   C16   A    
C66   O63   D    
C60   H35   S    
C142  H3    S    
O23   Zn3   S    
C8    C9    A    
O16   Zn7   S    
C156  O67   A    
C77   O15   A    
C75   C80   A    
O37   Zn6   S    
C54   H29   S    
C114  C136  A    
O12   Zn9   S    
C42   C68   A    
C86   I8    S    
C73   O70   D    
C61   H36   S    
C116  C138  A    
C153  O45   A    
C77   O6    A    
C29   C161  S    
C52   O49   D    
C158  C162  A    
C1    O14   A    
O14   Zn5   S    
C39   C43   A    
O12   Zn2   S    
C122  C126  A    
C110  C154  A    
O47   Zn10  S    
C71   H46   S    
O19   Zn9   S    
C106  O10   A    
C55   C82   S    
C149  C159  A    
C114  C118  A    
C1    O5    A    
C72   O69   D    
C12   C14   A    
C159  C163  A    
C84   C89   A    
C113  H51   S    
C24   C91   A    
C140  C150  A    
C43   C48   A    
O23   Zn10  S    
C34   O44   A    
C31   O32   A    
O8    Zn15  S    
C106  O19   A    
C64   H39   S    
C30   C91   S    
C76   C81   A    
C134  C138  A    
O42   Zn3   S    
O32   Zn13  S    
C131  I1    S    
C132  I3    S    
C99   O17   A    
C128  C133  A    
C155  O24   A    
C59   H33   S    
O34   Zn11  S    
C55   O52   D    
C107  O20   A    
C42   C47   A    
C23   C25   A    
C31   O41   A    
C140  H52   S    
C8    H14   S    
O38   Zn7   S    
C12   C18   A    
C73   C95   S    
C111  C115  A    
C144  C148  A    
