data_mof_unit_3084.cif
_audit_creation_date              2012-12-10T17:01:34-0500
_audit_creation_method            fapswitch 2.2
_symmetry_space_group_name_H-M    P1
_symmetry_Int_Tables_number       1
_space_group_crystal_system       triclinic
_cell_length_a                    9.911493
_cell_length_b                    10.903245
_cell_length_c                    13.008028
_cell_angle_alpha                 88.916533
_cell_angle_beta                  74.599325
_cell_angle_gamma                 109.855178
_cell_volume                      1265.44101804

loop_
_atom_site_label
_atom_site_type_symbol
_atom_type_description
_atom_site_fract_x
_atom_site_fract_y
_atom_site_fract_z
_atom_type_partial_charge
C1    C     C_R   0.441936 0.253724 0.503821 0.766583
C2    C     C_R   0.559531 0.746809 0.489633 0.753120
C3    C     C_2   0.077770 0.494929 0.480665 0.554868
C4    C     C_2   0.913065 0.474828 0.500158 0.667980
C5    C     C_R   0.471933 0.496397 0.702717 0.831392
C6    C     C_R   0.528154 0.504410 0.297086 0.911559
C7    C     C_R   0.546211 0.514069 0.181581 -0.281405
C8    C     C_R   0.452898 0.495247 0.818043 -0.280364
C9    C     C_R   0.302759 0.403728 0.001316 0.335306
C10   C     C_R   0.683084 0.630051 0.003707 0.367046
C11   C     C_R   0.319565 0.409214 0.890566 0.286681
C12   C     C_R   0.680550 0.597633 0.108825 0.311611
C13   C     C_R   0.569752 0.576826 0.855500 0.359812
C14   C     C_R   0.424572 0.442850 0.145289 0.386410
C15   C     C_R   0.560973 0.559758 0.964984 -0.160992
C16   C     C_R   0.428878 0.467248 0.037361 -0.170382
C17   C     C_2   0.416535 0.113436 0.496030 0.178715
C18   C     C_2   0.590499 0.889147 0.479182 0.191396
C19   C     C_2   0.527912 0.077823 0.435631 0.341400
C20   C     C_2   0.506318 0.937101 0.435988 0.338863
Cu1   Cu    Cu3+1 0.647370 0.522180 0.481340 1.063912
Cu2   Cu    Cu3+1 0.352630 0.477820 0.518660 1.042023
N1    N     N_2   0.131210 0.444490 0.546730 -0.095078
N2    N     N_2   0.868790 0.555510 0.453270 -0.054085
O1    O     O_R   0.578710 0.332530 0.490040 -0.494611
O2    O     O_R   0.421290 0.667470 0.509960 -0.563321
O3    O     O_R   0.329810 0.295070 0.521560 -0.595335
O4    O     O_R   0.670190 0.704930 0.478440 -0.604909
O5    O     O_R   0.604230 0.515670 0.637800 -0.531110
O6    O     O_R   0.395770 0.484330 0.362200 -0.536350
O7    O     O_R   0.355330 0.478200 0.669330 -0.552571
O8    O     O_R   0.644670 0.521800 0.330670 -0.556283
O9    O     O_3   0.307454 0.343369 0.215628 -0.636961
H1    H     H_    0.292346 0.262568 0.179415 0.347074
O10   O     O_3   0.696331 0.667842 0.785019 -0.660407
H2    H     H_    0.664731 0.709676 0.731933 0.315319
O11   O     O_3   0.806793 0.654439 0.142971 -0.548146
C21   C     C_3   0.919873 0.606193 0.089793 0.097152
H3    H     H_    0.984944 0.665577 0.010628 0.205781
H4    H     H_    0.873671 0.500639 0.077353 0.136177
C22   C     C_3   0.027831 0.617617 0.156123 -0.652885
H5    H     H_    0.969406 0.549367 0.231571 0.282129
H6    H     H_    0.123322 0.590586 0.110388 0.218484
H7    H     H_    0.071902 0.719963 0.175054 0.252731
O12   O     O_3   0.204773 0.329531 0.853395 -0.574903
C23   C     C_3   0.217870 0.204649 0.845585 0.046535
H8    H     H_    0.226748 0.163673 0.921719 0.159027
H9    H     H_    0.318014 0.210930 0.778654 0.145372
C24   C     C_3   0.079166 0.109353 0.822835 -0.724068
H10   H     H_    0.068336 0.143797 0.745667 0.241317
H11   H     H_    0.088068 0.010709 0.817517 0.232643
H12   H     H_    0.977482 0.101406 0.888514 0.252229
O13   O     O_3   0.164833 0.337100 0.074995 -0.699615
H13   H     H_    0.085267 0.311612 0.038443 0.357589
O14   O     O_3   0.805002 0.733307 0.942366 -0.672672
H14   H     H_    0.765084 0.797875 0.919553 0.350542
O15   O     O_3   0.399443 0.855840 0.393328 -0.737260
H15   H     H_    0.354337 0.910135 0.361997 0.351757
O16   O     O_3   0.661642 0.171223 0.374565 -0.713331
H16   H     H_    0.725292 0.125213 0.333293 0.343805
O17   O     O_3   0.703466 0.974290 0.514873 -0.737772
H17   H     H_    0.748288 0.921995 0.548708 0.339528
O18   O     O_3   0.281041 0.017336 0.550837 -0.721457
H18   H     H_    0.214936 0.060248 0.593439 0.336839
O19   O     O_3   0.804481 0.363719 0.562775 -0.683594
H19   H     H_    0.847654 0.293800 0.560686 0.344169
O20   O     O_3   0.170749 0.563603 0.383351 -0.686380
H20   H     H_    0.261676 0.623955 0.397117 0.393763
O21   O     O_3   0.972580 0.672059 0.405404 -0.632222
H21   H     H_    0.918551 0.717744 0.375078 0.376941
O22   O     O_3   0.037515 0.393933 0.645199 -0.655327
H22   H     H_    0.095362 0.361976 0.683113 0.398221

loop_
_geom_bond_atom_site_label_1
_geom_bond_atom_site_label_2
_ccdc_geom_bond_type
Cu1   O5    S    
C5    C8    S    
C6    O8    A    
O14   H14   S    
C1    O1    A    
C18   O17   S    
O13   H13   S    
O11   C21   S    
C14   C16   A    
C2    C18   S    
C22   H6    S    
C22   H5    S    
C5    O5    A    
C19   C20   S    
Cu2   O3    S    
C24   H12   S    
C22   H7    S    
O17   H17   S    
C14   O9    S    
O9    H1    S    
C20   O15   S    
O16   H16   S    
C2    O2    A    
C23   H8    S    
Cu1   Cu2   S    
C17   O18   S    
O19   H19   S    
C21   H4    S    
C10   O14   S    
C9    C11   A    
C23   C24   S    
O15   H15   S    
C8    C13   A    
C10   C12   A    
C8    C11   A    
O20   H20   S    
C17   C19   D    
C9    C16   A    
N2    O21   S    
C13   O10   S    
C6    C7    S    
C18   C20   D    
C10   C15   A    
C13   C15   A    
C4    O19   S    
C4    N2    D    
Cu1   O8    S    
O21   H21   S    
C7    C12   A    
C11   O12   S    
C9    O13   S    
Cu2   O7    S    
Cu1   O4    S    
C15   C16   A    
C23   H9    S    
N1    O22   S    
O22   H22   S    
C21   H3    S    
C21   C22   S    
C24   H10   S    
Cu2   O2    S    
Cu1   N2    S    
C12   O11   S    
C1    O3    A    
C24   H11   S    
Cu1   O1    S    
Cu2   N1    S    
C2    O4    A    
Cu2   O6    S    
C19   O16   S    
C3    N1    D    
O12   C23   S    
C1    C17   S    
C6    O6    A    
C7    C14   A    
C3    O20   S    
C3    C4    S    
O18   H18   S    
C5    O7    A    
O10   H2    S    
