data_mof_unit_4849.cif
_audit_creation_date              2013-03-05T16:12:50-0500
_audit_creation_method            fapswitch 2.2
_symmetry_space_group_name_H-M    P1
_symmetry_Int_Tables_number       1
_space_group_crystal_system       triclinic
_cell_length_a                    10.734358
_cell_length_b                    9.947758
_cell_length_c                    27.581955
_cell_angle_alpha                 89.914772
_cell_angle_beta                  92.035351
_cell_angle_gamma                 90.002133
_cell_volume                      2943.41684419

loop_
_atom_site_label
_atom_site_type_symbol
_atom_site_description
_atom_site_fract_x
_atom_site_fract_y
_atom_site_fract_z
_atom_type_partial_charge
O1    O     O_R   0.316770 0.614620 0.500000 -0.608656
O2    O     O_R   0.683230 0.385380 0.500000 -0.607443
O3    O     O_R   0.683230 0.614620 0.500000 -0.607781
O4    O     O_R   0.316770 0.385380 0.500000 -0.607205
C1    C     C_R   0.260185 0.500001 0.500221 0.892333
C2    C     C_R   0.739814 0.500006 0.499774 0.892904
O5    O     O_R   0.500030 0.614650 0.428760 -0.602029
O6    O     O_R   0.499970 0.385350 0.571240 -0.599788
O7    O     O_R   0.499970 0.614650 0.571240 -0.602526
O8    O     O_R   0.500030 0.385350 0.428760 -0.599911
C3    C     C_R   0.501940 0.500314 0.406034 0.910193
C4    C     C_R   0.497911 0.500084 0.593954 0.909965
Zn1   Zn    Zn3+2 0.500000 0.653120 0.500000 1.011844
Zn2   Zn    Zn3+2 0.500000 0.346880 0.500000 1.013987
C5    C     C_R   0.403575 0.544709 0.177602 0.560126
C6    C     C_R   0.591156 0.547341 0.822111 0.557340
O9    O     O_2   0.299271 0.554030 0.203352 -0.516157
O10   O     O_2   0.695380 0.558287 0.796381 -0.515989
N1    N     N_R   0.515447 0.518066 0.200755 -0.355240
N2    N     N_R   0.479920 0.517698 0.799025 -0.353811
C7    C     C_R   0.623103 0.506425 0.176171 0.549516
C8    C     C_R   0.372010 0.506612 0.823497 0.550654
C9    C     C_R   0.511119 0.388335 0.275852 -0.109656
C10   C     C_R   0.465589 0.628037 0.720679 -0.121071
C11   C     C_R   0.505953 0.383332 0.326176 -0.172618
C12   C     C_R   0.472604 0.624667 0.670645 -0.167940
C13   C     C_R   0.521221 0.626878 0.329293 -0.202815
C14   C     C_R   0.496909 0.381948 0.673725 -0.211352
C15   C     C_R   0.526904 0.632081 0.279160 0.212105
C16   C     C_R   0.490779 0.385317 0.724101 0.222430
C17   C     C_R   0.520444 0.512493 0.252365 0.249895
C18   C     C_R   0.475759 0.509165 0.747483 0.250951
C19   C     C_R   0.507035 0.554354 0.101276 -0.048655
C20   C     C_R   0.487360 0.556063 0.898368 -0.049534
C21   C     C_R   0.397302 0.564271 0.127398 -0.045319
C22   C     C_R   0.597041 0.567276 0.872272 -0.046744
C23   C     C_R   0.285507 0.601175 0.103469 -0.164683
C24   C     C_R   0.708512 0.604921 0.896232 -0.164925
C25   C     C_R   0.621105 0.524593 0.125816 -0.035643
C26   C     C_R   0.373565 0.525525 0.873797 -0.038311
C27   C     C_R   0.509190 0.502921 0.353163 -0.086321
C28   C     C_R   0.489674 0.501796 0.646778 -0.084559
H1    H     H_    0.525844 0.720290 0.349389 0.197064
H2    H     H_    0.508693 0.286132 0.655920 0.198815
H3    H     H_    0.203672 0.621192 0.124231 0.224621
H4    H     H_    0.790257 0.625787 0.875499 0.223885
C29   C     C_R   0.380104 0.569874 0.974944 0.068689
C30   C     C_R   0.614125 0.570064 0.024698 0.069344
C31   C     C_R   0.608321 0.592028 0.973919 -0.016594
C32   C     C_R   0.385796 0.590698 0.025766 -0.017351
C33   C     C_R   0.491803 0.573674 0.949115 0.078195
C34   C     C_R   0.502422 0.572626 0.050540 0.077596
C35   C     C_R   0.268170 0.534321 0.949787 -0.131963
C36   C     C_R   0.726232 0.534607 0.049786 -0.131755
C37   C     C_R   0.264812 0.513563 0.899937 -0.094362
C38   C     C_R   0.729818 0.513363 0.099628 -0.094365
O11   O     O_2   0.263950 0.478412 0.799123 -0.519685
O12   O     O_2   0.731476 0.479283 0.200522 -0.521194
C39   C     C_R   0.279846 0.621305 0.053262 -0.078098
C40   C     C_R   0.714090 0.623991 0.946470 -0.077127
H5    H     H_    0.465205 0.718506 0.650785 0.190316
H6    H     H_    0.498291 0.286460 0.343781 0.194402
H7    H     H_    0.454690 0.723505 0.738906 0.165625
H8    H     H_    0.505888 0.296188 0.255001 0.169000
H9    H     H_    0.176807 0.486791 0.882065 0.205080
H10   H     H_    0.818027 0.487084 0.117472 0.204687
H11   H     H_    0.183066 0.516223 0.968514 0.163962
H12   H     H_    0.811364 0.517198 0.031016 0.164623
C41   C     C_R   0.063820 0.377515 0.500319 -0.147815
C42   C     C_R   0.936174 0.622530 0.499676 -0.148099
C43   C     C_R   0.936167 0.377520 0.499627 -0.147940
C44   C     C_R   0.063835 0.622525 0.500334 -0.149030
H13   H     H_    0.111975 0.281856 0.500749 0.184935
H14   H     H_    0.888006 0.718185 0.499278 0.184614
H15   H     H_    0.888003 0.281866 0.499170 0.184911
H16   H     H_    0.112012 0.718176 0.500758 0.184275
C45   C     C_R   0.872449 0.500021 0.499573 -0.031383
C46   C     C_R   0.127549 0.500014 0.500410 -0.031287
C47   C     C_R   0.578683 0.071589 0.530996 0.150722
C48   C     C_R   0.421469 0.928385 0.468944 0.150559
C49   C     C_R   0.421332 0.071827 0.468996 0.150570
C50   C     C_R   0.578541 0.928147 0.531054 0.149670
N3    N     N_R   0.500000 0.857200 0.500000 -0.149042
N4    N     N_R   0.500000 0.142800 0.500000 -0.147378
I1    I     I_    0.704083 0.174586 0.580122 -0.268827
I2    I     I_    0.296994 0.825282 0.419464 -0.259760
I3    I     I_    0.296012 0.175167 0.419814 -0.272135
I4    I     I_    0.703027 0.824704 0.580552 -0.262975
I5    I     I_    0.543021 0.822655 0.245360 -0.256919
I6    I     I_    0.508490 0.203094 0.763546 -0.247427
C51   C     C_2   0.170869 0.695950 0.032479 0.927082
O13   O     O_2   0.067999 0.680968 0.049393 -0.628866
O14   O     O_R   0.187349 0.788130 0.994892 -0.761719
H17   H     H_    0.108031 0.838092 0.985276 0.367989
C52   C     C_2   0.822953 0.698382 0.967397 0.926256
O15   O     O_2   0.925769 0.684172 0.950385 -0.628966
O16   O     O_R   0.806488 0.789334 0.005267 -0.760700
H18   H     H_    0.885872 0.838841 0.015089 0.367716

loop_
_geom_bond_atom_site_label_1
_geom_bond_atom_site_label_2
_geom_bond_distance
_ccdc_geom_bond_type
C43   H15   1.082781 S    
O14   H17   1.012862 S    
C13   C15   1.387169 A    
C52   O15   1.222791 D    
Zn2   N4    2.030138 S    
C44   H16   1.082836 S    
O3    C2    1.291996 A    
N1    C17   1.423604 S    
C8    O11   1.349551 S    
C15   I5    2.121140 S    
O16   H18   1.012934 S    
C19   C34   1.410015 A    
C30   C36   1.411220 A    
C20   C33   1.409997 A    
C19   C25   1.409141 A    
C31   C40   1.422537 A    
O1    C1    1.291982 A    
C32   C39   1.422431 A    
N1    C7    1.365490 A    
C12   H5    1.083127 S    
C10   C12   1.385214 A    
C47   N4    1.375875 A    
C38   H10   1.083343 S    
C36   H12   1.080275 S    
C14   C28   1.404670 A    
C41   C43   1.369730 A    
O7    Zn1   2.001308 S    
C4    C28   1.462936 S    
C5    N1    1.365735 A    
C25   C38   1.398625 A    
C31   C33   1.416098 A    
C42   H14   1.082834 S    
C32   C34   1.416105 A    
C41   H13   1.082783 S    
O3    Zn1   2.003812 S    
C6    N2    1.365542 A    
C29   C35   1.411287 A    
C23   C39   1.398085 A    
C42   C45   1.397476 A    
C41   C46   1.397416 A    
O2    C2    1.292048 A    
C48   N3    1.375778 A    
C35   H11   1.080283 S    
C5    C21   1.397284 A    
C37   H9    1.083340 S    
C29   C32   1.416474 A    
C35   C37   1.389887 A    
C36   C38   1.389773 A    
O8    Zn2   2.001313 S    
C11   C27   1.404036 A    
C51   O13   1.222950 D    
C48   C49   1.426933 A    
C2    C45   1.423959 S    
C29   C33   1.416747 A    
C14   H2    1.082352 S    
C9    C17   1.399059 A    
O5    C3    1.300004 A    
C10   C18   1.395879 A    
C51   O14   1.398970 S    
C13   C27   1.405089 A    
C16   I6    2.117837 S    
C7    C25   1.399736 A    
C30   C34   1.416751 A    
O6    C4    1.303367 A    
C26   C37   1.398675 A    
C8    C26   1.399861 A    
C39   C51   1.483100 S    
C49   I3    2.138439 S    
C24   C40   1.398049 A    
C30   C31   1.416398 A    
N2    C8    1.365587 A    
C10   H7    1.083495 S    
C20   C26   1.409076 A    
O1    Zn1   2.003784 S    
C23   H3    1.084141 S    
C43   C45   1.397431 A    
C49   N4    1.375975 A    
C12   C28   1.404236 A    
N2    C18   1.423421 S    
C5    O9    1.350311 S    
C9    H8    1.083264 S    
O6    Zn2   2.002425 S    
C21   C23   1.397705 A    
O4    C1    1.292062 A    
C47   C50   1.426924 A    
C52   O16   1.398886 S    
Zn1   N3    2.030138 S    
C48   I2    2.138774 S    
C22   C24   1.397600 A    
C7    O12   1.349555 S    
C15   C17   1.401848 A    
C6    C22   1.397179 A    
C16   C18   1.403388 A    
C50   I4    2.138872 S    
C14   C16   1.393811 A    
C19   C21   1.406006 A    
C47   I1    2.138287 S    
C3    C27   1.463315 S    
C20   C22   1.405922 A    
C11   H6    1.082887 S    
C9    C11   1.391905 A    
O4    Zn2   2.003812 S    
O2    Zn2   2.003784 S    
O7    C4    1.300274 A    
C24   H4    1.084135 S    
O8    C3    1.303834 A    
C40   C52   1.483119 S    
C13   H1    1.082936 S    
O5    Zn1   2.002431 S    
C6    O10   1.350313 S    
C50   N3    1.375859 A    
C44   C46   1.397488 A    
C42   C44   1.369830 A    
C1    C46   1.423957 S    
