data_mof_unit_502.cif
_audit_creation_date              2012-12-10T20:28:45-0500
_audit_creation_method            fapswitch 2.2
_symmetry_space_group_name_H-M    P1
_symmetry_Int_Tables_number       1
_space_group_crystal_system       triclinic
_cell_length_a                    10.727168
_cell_length_b                    10.734962
_cell_length_c                    9.903901
_cell_angle_alpha                 88.709207
_cell_angle_beta                  91.628884
_cell_angle_gamma                 91.928242
_cell_volume                      1139.11904897

loop_
_atom_site_label
_atom_site_type_symbol
_atom_type_description
_atom_site_fract_x
_atom_site_fract_y
_atom_site_fract_z
_atom_type_partial_charge
C1    C     C_R   0.503159 0.259771 0.501061 0.928917
C2    C     C_R   0.541481 0.939251 0.377034 -0.182309
C3    C     C_R   0.526674 0.871349 0.498134 -0.094810
C4    C     C_R   0.261466 0.513221 0.498251 0.897865
C5    C     C_R   0.534126 0.932445 0.620388 -0.011406
C6    C     C_3   0.454305 0.914669 0.741251 0.211217
C7    C     C_3   0.449999 0.055570 0.743897 0.144280
C8    C     C_R   0.399359 0.452983 0.069528 0.010514
C9    C     C_R   0.590900 0.563112 0.072817 0.470503
C10   C     C_R   0.590765 0.563461 0.930122 0.483041
C11   C     C_R   0.398172 0.455443 0.926965 -0.047973
C12   C     C_R   0.069709 0.560225 0.615894 0.111207
C13   C     C_3   0.343008 0.326507 0.922858 0.313547
C14   C     C_3   0.346494 0.322896 0.076964 0.175327
C15   C     C_R   0.505397 0.739807 0.498842 0.858526
C16   C     C_R   0.740521 0.494208 0.502892 0.866140
C17   C     C_R   0.131300 0.623086 0.724057 -0.190137
C18   C     C_R   0.079088 0.623003 0.851062 -0.296340
C19   C     C_R   0.966212 0.557261 0.872802 0.547236
C20   C     C_R   0.900347 0.505700 0.762382 -0.120449
C21   C     C_R   0.945732 0.519188 0.629568 0.003586
C22   C     C_R   0.129545 0.531639 0.495993 -0.110425
C23   C     C_R   0.061074 0.497164 0.380439 -0.210605
C24   C     C_R   0.934233 0.481479 0.386029 -0.159243
C25   C     C_R   0.875087 0.491930 0.509228 -0.105158
C26   C     C_R   0.530474 0.059835 0.622549 0.015610
C27   C     C_R   0.522302 0.128320 0.501538 -0.042506
C28   C     C_R   0.539848 0.068267 0.378835 -0.214866
H1    H     H_    0.105458 0.479441 0.286287 0.204371
H2    H     H_    0.411974 0.254022 0.122040 0.068207
H3    H     H_    0.220594 0.671235 0.711470 0.171284
H4    H     H_    0.129885 0.668038 0.933546 0.158654
H5    H     H_    0.975495 0.583305 0.066232 0.336355
H6    H     H_    0.817472 0.450229 0.784483 0.189735
H7    H     H_    0.882809 0.458628 0.293616 0.213387
H8    H     H_    0.543877 0.119447 0.283528 0.164595
H9    H     H_    0.545343 0.893485 0.280945 0.182300
H10   H     H_    0.362953 0.866179 0.719245 0.150937
H11   H     H_    0.602591 0.902719 0.862083 0.351767
H12   H     H_    0.279962 0.077260 0.793551 0.362618
H13   H     H_    0.497247 0.096777 0.834323 0.094416
H14   H     H_    0.651550 0.659564 0.222844 0.365472
H15   H     H_    0.656438 0.650949 0.774788 0.382797
H16   H     H_    0.173490 0.388408 0.896669 0.374299
H17   H     H_    0.407509 0.263499 0.877926 0.107798
H18   H     H_    0.240998 0.298910 0.230281 0.354809
N1    N     N_R   0.499160 0.499140 0.142800 -0.223117
N2    N     N_R   0.499160 0.499180 0.857150 -0.224620
O1    O     O_R   0.500020 0.316790 0.614690 -0.594056
O2    O     O_3   0.330107 0.097988 0.712950 -0.723739
O3    O     O_3   0.684462 0.631156 0.137644 -0.688202
O4    O     O_3   0.682524 0.634890 0.868937 -0.700538
O5    O     O_3   0.222596 0.319773 0.862384 -0.668594
O6    O     O_3   0.227658 0.317553 0.132476 -0.725280
O7    O     O_3   0.917856 0.541858 0.999876 -0.712950
O8    O     O_R   0.500000 0.316760 0.385350 -0.646225
O9    O     O_R   0.316770 0.500020 0.614690 -0.581611
O10   O     O_R   0.316760 0.499980 0.385350 -0.615992
O11   O     O_R   0.500000 0.683240 0.614650 -0.631243
O12   O     O_R   0.499980 0.683210 0.385310 -0.647346
O13   O     O_R   0.683240 0.500020 0.614650 -0.660986
O14   O     O_R   0.683230 0.499980 0.385310 -0.614588
O15   O     O_3   0.517923 0.862595 0.854208 -0.751307
Zn1   Zn    Zn3+2 0.500010 0.500020 0.653130 0.971840
Zn2   Zn    Zn3+2 0.499990 0.499980 0.346870 0.953462

loop_
_geom_bond_atom_site_label_1
_geom_bond_atom_site_label_2
_ccdc_geom_bond_type
C6    O15   S    
C12   C17   A    
O13   Zn1   S    
C2    C28   A    
C23   C24   A    
C6    H10   S    
H5    O7    S    
C6    C7    S    
H11   O15   S    
C15   O12   A    
O10   Zn2   S    
C19   C20   A    
C9    O3    S    
H14   O3    S    
C10   O4    S    
H18   O6    S    
C2    C3    A    
C26   C27   A    
C8    N1    A    
C20   H6    S    
O1    Zn1   S    
C13   C14   S    
C24   C25   A    
C13   H17   S    
C11   C13   S    
C2    H9    S    
O11   Zn1   S    
C7    C26   S    
C16   O14   A    
C14   H2    S    
C8    C11   A    
H12   O2    S    
C23   H1    S    
C14   O6    S    
C1    O8    A    
O12   Zn2   S    
C17   C18   A    
C13   O5    S    
C7    H13   S    
C10   N2    A    
C5    C6    S    
C17   H3    S    
H15   O4    S    
N2    Zn1   S    
C9    N1    A    
C18   H4    S    
C16   O13   A    
C19   O7    S    
C5    C26   A    
C24   H7    S    
C12   C22   A    
C27   C28   A    
C3    C15   S    
C20   C21   A    
C28   H8    S    
O9    Zn1   S    
C18   C19   A    
C9    C10   A    
H16   O5    S    
C4    O10   A    
C16   C25   S    
C1    C27   S    
C4    C22   S    
C21   C25   A    
C22   C23   A    
C8    C14   S    
C11   N2    A    
O14   Zn2   S    
C7    O2    S    
C15   O11   A    
C12   C21   A    
N1    Zn2   S    
O8    Zn2   S    
C4    O9    A    
C3    C5    A    
C1    O1    A    
