data_mof_unit_2273.cif
_audit_creation_date              2012-12-10T20:42:37-0500
_audit_creation_method            fapswitch 2.2
_symmetry_space_group_name_H-M    P1
_symmetry_Int_Tables_number       1
_space_group_crystal_system       triclinic
_cell_length_a                    8.897767
_cell_length_b                    10.676041
_cell_length_c                    9.888998
_cell_angle_alpha                 89.581359
_cell_angle_beta                  90.113905
_cell_angle_gamma                 89.980288
_cell_volume                      939.357856131

loop_
_atom_site_label
_atom_site_type_symbol
_atom_type_description
_atom_site_fract_x
_atom_site_fract_y
_atom_site_fract_z
_atom_type_partial_charge
Br1   Br    Br    0.699336 0.859918 0.246992 -0.435752
Br2   Br    Br    0.370229 0.131579 0.878915 -0.425707
C1    C     C_R   0.502452 0.260226 0.500667 0.895991
C2    C     C_R   0.378719 0.456376 0.928816 0.227812
C3    C     C_3   0.223117 0.507444 0.921689 -0.529672
C4    C     C_R   0.218806 0.500232 0.499918 0.967610
C5    C     C_3   0.222189 0.505434 0.075343 0.170454
C6    C     C_R   0.506755 0.739671 0.499435 0.962229
C7    C     C_R   0.781222 0.500185 0.500102 0.929601
C8    C     C_1   0.065460 0.500417 0.499953 -0.101610
C9    C     C_1   0.934590 0.500395 0.500167 -0.115788
C10   C     C_R   0.476594 0.062158 0.618027 0.060962
C11   C     C_R   0.520663 0.128825 0.503801 -0.155474
C12   C     C_R   0.597014 0.937912 0.395381 0.275564
C13   C     C_R   0.592532 0.067814 0.396978 -0.171519
C14   C     C_R   0.524631 0.871505 0.500696 -0.130003
C15   C     C_R   0.475321 0.934903 0.614744 -0.023017
C16   C     C_3   0.332471 0.925574 0.694067 0.169056
C17   C     C_3   0.334470 0.068054 0.698351 0.051519
C18   C     C_R   0.378879 0.455256 0.071170 0.227286
C19   C     C_R   0.624712 0.532918 0.071782 -0.055952
C20   C     C_R   0.624755 0.532808 0.928115 -0.086108
Cl1   Cl    Cl    0.093392 0.392954 0.142626 -0.545339
Cl2   Cl    Cl    0.177737 0.865871 0.598316 -0.602134
H1    H     H_    0.640401 0.120401 0.313414 0.208741
H2    H     H_    0.143824 0.440242 0.874290 0.254244
H3    H     H_    0.214428 0.599789 0.121722 0.147840
H4    H     H_    0.348864 0.878597 0.793677 0.169968
H5    H     H_    0.241018 0.114965 0.642877 0.170580
H6    H     H_    0.724304 0.562769 0.125412 0.199762
H7    H     H_    0.724384 0.562566 0.874366 0.172056
H8    H     H_    0.219514 0.603737 0.878080 0.203477
N1    N     N_R   0.499010 0.499140 0.142800 -0.147157
N2    N     N_R   0.499010 0.499180 0.857150 -0.116839
O1    O     O_R   0.500020 0.316790 0.614690 -0.589215
O2    O     O_R   0.500000 0.316760 0.385350 -0.601287
O3    O     O_R   0.285350 0.500020 0.614650 -0.623460
O4    O     O_R   0.285340 0.499980 0.385310 -0.591552
O5    O     O_R   0.500000 0.683240 0.614650 -0.619148
O6    O     O_R   0.499980 0.683210 0.385310 -0.588044
O7    O     O_R   0.714660 0.500020 0.614690 -0.631073
O8    O     O_R   0.714650 0.499980 0.385350 -0.602943
Zn1   Zn    Zn3+2 0.500010 0.500020 0.653130 0.995689
Zn2   Zn    Zn3+2 0.499990 0.499980 0.346870 1.028351

loop_
_geom_bond_atom_site_label_1
_geom_bond_atom_site_label_2
_ccdc_geom_bond_type
C10   C15   A    
O3    Zn1   S    
C4    O4    A    
O4    Zn2   S    
C6    O5    A    
O1    Zn1   S    
C19   H6    S    
O7    Zn1   S    
C7    O7    A    
C1    C11   S    
C1    O1    A    
C3    H8    S    
C15   C16   S    
Br2   C17   S    
C4    O3    A    
C5    H3    S    
C6    C14   S    
C19   C20   A    
C7    C9    S    
C7    O8    A    
O8    Zn2   S    
C1    O2    A    
C16   Cl2   S    
C18   N1    A    
C10   C17   S    
C16   C17   S    
C2    N2    A    
C8    C9    T    
C11   C13   A    
C20   N2    A    
C5    Cl1   S    
O2    Zn2   S    
C19   N1    A    
C4    C8    S    
C3    H2    S    
C2    C18   A    
O6    Zn2   S    
C16   H4    S    
C10   C11   A    
C13   H1    S    
C5    C18   S    
C20   H7    S    
C3    C5    S    
C12   C13   A    
C2    C3    S    
O5    Zn1   S    
Br1   C12   S    
C6    O6    A    
C12   C14   A    
N1    Zn2   S    
N2    Zn1   S    
C14   C15   A    
C17   H5    S    
