data_mof_unit_2117.cif
_audit_creation_date              2012-12-11T16:35:22-0500
_audit_creation_method            fapswitch 2.2
_symmetry_space_group_name_H-M    P1
_symmetry_Int_Tables_number       1
_space_group_crystal_system       triclinic
_cell_length_a                    6.92787
_cell_length_b                    17.680849
_cell_length_c                    19.497641
_cell_angle_alpha                 109.113639
_cell_angle_beta                  90.366164
_cell_angle_gamma                 90.573269
_cell_volume                      2256.38373101

loop_
_atom_site_label
_atom_site_type_symbol
_atom_type_description
_atom_site_fract_x
_atom_site_fract_y
_atom_site_fract_z
_atom_type_partial_charge
O1    O     O_R   0.505700 0.440210 0.561730 -0.542872
O2    O     O_R   0.169350 0.406300 0.412660 -0.537897
O3    O     O_R   0.005650 0.559790 0.438270 -0.545324
C1    C     C_R   0.338050 0.382996 0.384954 0.692702
O4    O     O_R   0.175560 0.430650 0.559600 -0.545048
O5    O     O_R   0.011900 0.584320 0.586250 -0.534728
C2    C     C_R   0.344642 0.415531 0.581097 0.681214
O6    O     O_R   0.499450 0.415680 0.413750 -0.536494
O7    O     O_3   0.341370 0.550390 0.508570 -0.363724
V1    V     V_3+5 0.063940 0.490650 0.498410 1.416852
O8    O     O_R   0.682570 0.593700 0.587340 -0.537008
C3    C     C_R   0.852632 0.616467 0.615072 0.699506
O9    O     O_R   0.676370 0.569350 0.440400 -0.539050
C4    C     C_R   0.845298 0.584698 0.419087 0.690060
V2    V     V_3+5 0.564750 0.509350 0.501590 1.430810
O10   O     O_3   0.837190 0.449610 0.491430 -0.370202
C5    C     C_R   0.044308 0.715090 0.314140 -0.131435
H1    H     H_    0.181984 0.742161 0.309088 0.101919
C6    C     C_R   0.032854 0.669002 0.360303 -0.153737
H2    H     H_    0.162424 0.661175 0.388503 0.128578
C7    C     C_R   0.856413 0.634347 0.370606 -0.035880
C8    C     C_R   0.691739 0.646799 0.333367 -0.126469
H3    H     H_    0.553797 0.620520 0.339575 0.117325
C9    C     C_R   0.703634 0.692033 0.286435 -0.143238
H4    H     H_    0.574513 0.698326 0.257337 0.100792
C10   C     C_R   0.880133 0.727008 0.276103 0.090441
C11   C     C_R   0.736104 0.821736 0.217321 -0.140370
H5    H     H_    0.605007 0.824528 0.247903 0.104937
C12   C     C_R   0.747137 0.866447 0.170003 -0.163151
H6    H     H_    0.623553 0.901431 0.165086 0.117421
C13   C     C_R   0.916182 0.867155 0.130611 -0.051327
C14   C     C_R   0.073765 0.821661 0.139548 -0.164937
H7    H     H_    0.205817 0.820491 0.109795 0.122436
C15   C     C_R   0.061874 0.776018 0.186174 -0.133043
H8    H     H_    0.184693 0.740252 0.190097 0.104033
C16   C     C_R   0.892928 0.775470 0.225971 0.093550
H9    H     H_    0.115181 0.634825 0.924439 0.125359
C17   C     C_R   0.790407 0.905931 0.751423 -0.172703
C18   C     C_R   0.726230 0.918918 0.688406 -0.163795
C19   C     C_R   0.708467 0.855237 0.623189 0.027562
C20   C     C_R   0.755512 0.777966 0.622214 -0.194056
C21   C     C_R   0.818605 0.763017 0.685757 0.050692
C22   C     C_R   0.836987 0.828306 0.751630 0.078850
C23   C     C_R   0.867342 0.684669 0.684006 -0.173958
C24   C     C_R   0.935488 0.671764 0.748032 0.069606
C25   C     C_R   0.954260 0.737169 0.813922 0.067033
C26   C     C_R   0.904847 0.815429 0.815748 -0.178867
C27   C     C_R   0.982442 0.594008 0.748170 -0.143568
C28   C     C_R   0.047749 0.581268 0.811168 -0.116287
C29   C     C_R   0.065738 0.645104 0.875485 -0.108872
C30   C     C_R   0.018787 0.722164 0.877263 -0.138694
H10   H     H_    0.804581 0.957828 0.799749 0.112720
H11   H     H_    0.691882 0.979356 0.690765 0.155112
H12   H     H_    0.743796 0.729708 0.571095 0.143630
H13   H     H_    0.967864 0.542053 0.699934 0.102370
H14   H     H_    0.083259 0.521408 0.810144 0.124014
H15   H     H_    0.032573 0.769476 0.928952 0.104121
H16   H     H_    0.037228 0.446434 0.182814 0.156566
C31   C     C_R   0.520301 0.235196 0.382478 -0.128207
C32   C     C_R   0.619479 0.167214 0.382947 -0.111511
C33   C     C_R   0.653715 0.106115 0.318295 -0.116947
C34   C     C_R   0.588712 0.112437 0.252670 -0.151089
C35   C     C_R   0.489266 0.181104 0.250229 0.068128
C36   C     C_R   0.454628 0.244035 0.316609 0.070899
C37   C     C_R   0.420386 0.186827 0.183449 -0.177272
C38   C     C_R   0.317236 0.256031 0.183391 0.054065
C39   C     C_R   0.283055 0.318937 0.249718 0.076377
C40   C     C_R   0.352349 0.313337 0.316517 -0.182461
C41   C     C_R   0.249613 0.264409 0.117549 -0.181747
C42   C     C_R   0.146880 0.331940 0.116515 0.025224
C43   C     C_R   0.114781 0.393243 0.181978 -0.163575
C44   C     C_R   0.182888 0.387303 0.247334 -0.176789
H17   H     H_    0.493554 0.280036 0.434482 0.102633
H18   H     H_    0.668642 0.161662 0.433883 0.125025
H19   H     H_    0.729737 0.053154 0.318987 0.125805
H20   H     H_    0.616875 0.062636 0.204183 0.108994
H21   H     H_    0.278121 0.218826 0.066179 0.143172
H22   H     H_    0.155546 0.437221 0.295845 0.121478
C45   C     C_R   0.541363 0.284848 0.685662 -0.132015
H23   H     H_    0.677041 0.256687 0.689678 0.104321
C46   C     C_R   0.529694 0.330398 0.639055 -0.164240
H24   H     H_    0.657286 0.336757 0.609486 0.120932
C47   C     C_R   0.355393 0.366321 0.629975 -0.048687
C48   C     C_R   0.193165 0.355835 0.669027 -0.164464
H25   H     H_    0.057179 0.383327 0.663934 0.113092
C49   C     C_R   0.205434 0.311132 0.716424 -0.137519
H26   H     H_    0.078543 0.306268 0.746885 0.099293
C50   C     C_R   0.379674 0.274698 0.725357 0.096081
C51   C     C_R   0.232848 0.180854 0.785040 -0.146388
H27   H     H_    0.099003 0.179322 0.755651 0.105203
C52   C     C_R   0.244377 0.135465 0.831754 -0.119254
H28   H     H_    0.118405 0.101309 0.837466 0.118181
C53   C     C_R   0.416427 0.133298 0.869762 -0.033702
C54   C     C_R   0.576765 0.177869 0.859876 -0.161107
H29   H     H_    0.711310 0.177881 0.888488 0.131759
C55   C     C_R   0.564644 0.224034 0.813706 -0.129151
H30   H     H_    0.689958 0.258953 0.808933 0.101246
C56   C     C_R   0.392524 0.226114 0.775384 0.093057
O11   O     O_R   0.273230 0.084330 0.086440 -0.534652
O12   O     O_R   0.596660 0.069390 0.940470 -0.546388
O13   O     O_R   0.760270 0.915710 0.913690 -0.535477
C57   C     C_R   0.427520 0.084402 0.918920 0.692186
O14   O     O_R   0.603330 0.093680 0.087390 -0.537327
O15   O     O_R   0.766990 0.940160 0.061660 -0.542868
C58   C     C_R   0.434675 0.117054 0.115114 0.694353
O16   O     O_R   0.266510 0.059870 0.938470 -0.536187
O17   O     O_3   0.431050 0.949630 0.991510 -0.368890
V3    V     V_3+5 0.708490 0.009340 0.001580 1.426536
O18   O     O_R   0.096270 0.930570 0.059390 -0.544974
C59   C     C_R   0.927453 0.915687 0.081160 0.679246
O19   O     O_R   0.089600 0.906290 0.912460 -0.540278
C60   C     C_R   0.919494 0.883538 0.884779 0.695568
V4    V     V_3+5 0.207670 0.990600 0.998190 1.428160
O20   O     O_3   0.935250 0.050360 0.008480 -0.362264
C61   C     C_2   0.642280 0.869119 0.555727 0.754688
O21   O     O_2   0.600834 0.936551 0.556681 -0.559037
O22   O     O_R   0.627100 0.805036 0.490684 -0.672988
H31   H     H_    0.581054 0.822093 0.448556 0.297799
C62   C     C_2   0.073870 0.338230 0.046808 0.751046
O23   O     O_2   0.987975 0.398003 0.045851 -0.559590
O24   O     O_R   0.102295 0.275604 0.981878 -0.673402
H32   H     H_    0.045349 0.286879 0.938223 0.292427

loop_
_geom_bond_atom_site_label_1
_geom_bond_atom_site_label_2
_ccdc_geom_bond_type
C27   H13   S    
C2    C47   S    
C35   C37   A    
C53   C54   A    
C11   C12   A    
C20   C21   A    
C41   H21   S    
C6    H2    S    
C1    O6    A    
C38   C41   A    
C46   H24   S    
C24   C25   A    
C33   H19   S    
O13   C60   A    
C31   C36   A    
C34   C35   A    
C5    C10   A    
C36   C40   A    
C4    C7    S    
C7    C8    A    
C6    C7    A    
C48   C49   A    
C39   C44   A    
C41   C42   A    
O5    C3    A    
C17   C18   A    
C49   C50   A    
H16   C43   S    
C19   C61   S    
C17   H10   S    
V2    O10   S    
C15   H8    S    
V3    O20   S    
O17   V4    S    
C44   H22   S    
O8    V2    S    
O19   C60   A    
C61   O22   S    
C55   C56   A    
O17   V3    S    
C42   C43   A    
C30   H15   S    
C51   C52   A    
O7    V1    S    
C31   H17   S    
O18   V4    S    
O13   V3    S    
C38   C39   A    
C31   C32   A    
O9    C4    A    
C34   H20   S    
C54   H29   S    
C21   C23   A    
C37   C58   S    
C45   C50   A    
C46   C47   A    
C29   C30   A    
C62   O24   S    
O11   C58   A    
O12   V3    S    
O16   V4    S    
C39   C40   A    
C48   H25   S    
O19   V4    S    
C52   H28   S    
C45   C46   A    
C49   H26   S    
C1    C40   S    
C25   C30   A    
C35   C36   A    
C32   C33   A    
C14   C15   A    
O2    C1    A    
O5    V1    S    
C12   H6    S    
C52   C53   A    
C47   C48   A    
C42   C62   S    
C62   O23   D    
C55   H30   S    
O12   C57   A    
C5    H1    S    
O14   C58   A    
C9    H4    S    
C54   C55   A    
O24   H32   S    
O14   V3    S    
O3    C4    A    
O1    V2    S    
C10   C16   S    
C19   C20   A    
C28   C29   A    
O6    V2    S    
O9    V2    S    
C8    C9    A    
C21   C22   A    
O2    V1    S    
O15   V3    S    
C23   C24   A    
O4    C2    A    
V4    O20   S    
C24   C27   A    
C25   C26   A    
C27   C28   A    
O1    C2    A    
C13   C14   A    
C9    C10   A    
C53   C57   S    
O11   V4    S    
O8    C3    A    
C11   C16   A    
C28   H14   S    
C26   C60   S    
C51   C56   A    
C14   H7    S    
O7    V2    S    
C17   C22   A    
C12   C13   A    
O3    V1    S    
V1    O10   S    
O22   H31   S    
O15   C59   A    
H9    C29   S    
C18   H11   S    
C32   H18   S    
C5    C6    A    
C13   C59   S    
C57   O16   A    
C15   C16   A    
C33   C34   A    
C20   H12   S    
C45   H23   S    
C18   C19   A    
O4    V1    S    
C43   C44   A    
C3    C23   S    
C37   C38   A    
C11   H5    S    
C8    H3    S    
C51   H27   S    
O18   C59   A    
C22   C26   A    
C50   C56   S    
C61   O21   D    
