data_mof_unit_851.cif
_audit_creation_date              2012-10-26T19:03:31-0400
_audit_creation_method            fapswitch 2.2
_symmetry_space_group_name_H-M    P1
_symmetry_Int_Tables_number       1
_space_group_crystal_system       triclinic
_cell_length_a                    10.775517
_cell_length_b                    13.045381
_cell_length_c                    11.685525
_cell_angle_alpha                 100.208724
_cell_angle_beta                  93.179159
_cell_angle_gamma                 90.701813
_cell_volume                      1613.74198503

loop_
_atom_site_label
_atom_site_type_symbol
_atom_type_description
_atom_site_fract_x
_atom_site_fract_y
_atom_site_fract_z
_atom_type_partial_charge
C1    C     C_R   0.503533 0.298758 0.477974 0.534673
C2    C     C_R   0.463812 0.119114 0.359289 0.027918
C3    C     C_R   0.552702 0.137887 0.560563 0.037283
C4    C     C_R   0.262693 0.498267 0.500664 0.595009
C5    C     C_R   0.537392 0.029614 0.554544 0.025223
C6    C     C_R   0.483580 0.968126 0.451424 0.000617
C7    C     C_R   0.470040 0.860930 0.442733 -0.109816
C8    C     C_R   0.562174 0.873065 0.638446 -0.123508
C9    C     C_R   0.576651 0.980163 0.647881 -0.097147
C10   C     C_R   0.380304 0.402402 0.023833 -0.165498
C11   C     C_R   0.392342 0.412538 0.145555 0.056007
C12   C     C_R   0.060497 0.405034 0.448200 -0.041219
C13   C     C_R   0.551254 0.541104 0.156137 0.059386
C14   C     C_R   0.541610 0.534628 0.033518 -0.025044
C15   C     C_R   0.453643 0.465184 0.965689 0.002457
C16   C     C_R   0.502648 0.700565 0.521799 0.551783
C17   C     C_R   0.444548 0.460005 0.841872 0.415121
C18   C     C_R   0.608196 0.586279 0.855875 0.017348
C19   C     C_R   0.618536 0.595419 0.977594 -0.181675
C20   C     C_R   0.737278 0.499191 0.499057 0.524240
C21   C     C_R   0.119753 0.312609 0.399016 -0.082335
C22   C     C_R   0.050235 0.223562 0.348924 -0.093489
C23   C     C_R   0.128966 0.495262 0.501944 0.003409
C24   C     C_R   0.921151 0.224489 0.347379 -0.095912
C25   C     C_R   0.860998 0.314504 0.395747 -0.051158
C26   C     C_R   0.929689 0.406242 0.446338 -0.012976
C27   C     C_2   0.436987 0.156675 0.248623 0.579951
C28   C     C_2   0.619735 0.201331 0.664377 0.594301
C29   C     C_R   0.070897 0.585304 0.555392 0.272608
C30   C     C_R   0.940804 0.588136 0.551553 0.214930
C31   C     C_R   0.871023 0.498216 0.497260 -0.021245
C32   C     C_R   0.510016 0.813252 0.535389 0.016613
C33   C     C_R   0.509384 0.184038 0.464491 -0.050815
C34   C     C_R   0.448557 0.012777 0.355473 -0.136299
Cu1   Cu    Cu3+1 0.509250 0.507730 0.615930 1.071668
Cu2   Cu    Cu3+1 0.490750 0.492270 0.384070 0.968516
H1    H     H_    0.620175 0.022733 0.728120 0.161752
H2    H     H_    0.760619 0.310827 0.393764 0.157324
H3    H     H_    0.429674 0.814265 0.362875 0.131003
H4    H     H_    0.594881 0.836781 0.710704 0.135862
H5    H     H_    0.412100 0.963797 0.275391 0.136389
H6    H     H_    0.093075 0.727886 0.643397 0.379400
H7    H     H_    0.506092 0.215395 0.116219 0.339607
H8    H     H_    0.622071 0.258393 0.836621 0.339541
H9    H     H_    0.282162 0.391996 0.812520 0.302441
H10   H     H_    0.797803 0.680471 0.571831 0.326377
H11   H     H_    0.668430 0.633204 0.813777 0.143043
H12   H     H_    0.314525 0.344468 0.977374 0.126130
H13   H     H_    0.686952 0.649334 0.027605 0.112003
H14   H     H_    0.334357 0.364791 0.188740 0.161231
H15   H     H_    0.618294 0.594518 0.208776 0.123585
H16   H     H_    0.219936 0.307681 0.400123 0.135495
H17   H     H_    0.096742 0.153324 0.312043 0.158553
H18   H     H_    0.867323 0.155010 0.309181 0.136696
N1    N     N_R   0.523180 0.519350 0.790130 -0.201359
N2    N     N_R   0.476820 0.480650 0.209890 -0.228960
O1    O     O_R   0.506570 0.354460 0.582000 -0.427335
O2    O     O_2   0.332452 0.145655 0.201228 -0.551863
O3    O     O_R   0.533658 0.198419 0.194939 -0.680268
O4    O     O_2   0.717942 0.245662 0.653603 -0.512765
O5    O     O_R   0.568856 0.212071 0.773264 -0.678649
O6    O     O_3   0.358973 0.395452 0.770748 -0.632555
O7    O     O_3   0.885765 0.679778 0.600577 -0.716915
O8    O     O_R   0.490940 0.341410 0.386200 -0.494523
O9    O     O_R   0.327470 0.506530 0.597920 -0.425317
O10   O     O_R   0.311840 0.493480 0.402120 -0.524236
O11   O     O_R   0.509060 0.658590 0.613800 -0.510094
O12   O     O_R   0.493430 0.645540 0.418000 -0.516742
O13   O     O_R   0.688160 0.506520 0.597880 -0.488683
O14   O     O_R   0.672530 0.493470 0.402080 -0.519253
O15   O     O_3   0.144960 0.670449 0.606995 -0.677836

loop_
_geom_bond_atom_site_label_1
_geom_bond_atom_site_label_2
_ccdc_geom_bond_type
Cu2   O12   S    
C5    C9    A    
C6    C7    A    
Cu2   N2    S    
H7    O3    S    
C17   O6    S    
C16   C32   S    
C19   H13   S    
Cu1   Cu2   S    
C14   C15   A    
Cu1   O11   S    
H10   O7    S    
Cu1   O1    S    
C13   N2    A    
C28   O5    S    
C2    C34   A    
C9    H1    S    
C10   H12   S    
C1    C33   S    
C26   C31   A    
C11   H14   S    
C27   O3    S    
C21   C22   A    
C18   H11   S    
C4    O10   A    
C12   C23   A    
C20   O14   A    
C29   C30   A    
C34   H5    S    
C12   C21   A    
C18   N1    A    
C16   O12   A    
C5    C6    A    
C23   C29   A    
C2    C33   A    
C30   O7    S    
C3    C28   S    
C17   N1    A    
Cu2   O14   S    
C22   H17   S    
C22   C24   A    
C10   C15   A    
C28   O4    D    
C2    C27   S    
C13   H15   S    
C4    O9    A    
C25   H2    S    
H8    O5    S    
Cu2   O10   S    
C20   O13   A    
C10   C11   A    
C3    C33   A    
Cu1   N1    S    
C8    C32   A    
C1    O8    A    
H9    O6    S    
C24   C25   A    
Cu1   O13   S    
C18   C19   A    
C15   C17   A    
C4    C23   S    
Cu1   O9    S    
C30   C31   A    
H6    O15   S    
C7    H3    S    
C7    C32   A    
C8    H4    S    
C13   C14   A    
C3    C5    A    
C25   C26   A    
Cu2   O8    S    
C16   O11   A    
C24   H18   S    
C14   C19   A    
C27   O2    D    
C21   H16   S    
C11   N2    A    
C6    C34   A    
C12   C26   A    
C8    C9    A    
C29   O15   S    
C20   C31   S    
C1    O1    A    
