data_mof_unit_2342.cif
_audit_creation_date              2012-12-11T15:13:44-0500
_audit_creation_method            fapswitch 2.2
_symmetry_space_group_name_H-M    P1
_symmetry_Int_Tables_number       1
_space_group_crystal_system       triclinic
_cell_length_a                    6.9753
_cell_length_b                    13.694314
_cell_length_c                    20.142
_cell_angle_alpha                 104.571189
_cell_angle_beta                  89.87171
_cell_angle_gamma                 89.866487
_cell_volume                      1862.10607622

loop_
_atom_site_label
_atom_site_type_symbol
_atom_type_description
_atom_site_fract_x
_atom_site_fract_y
_atom_site_fract_z
_atom_type_partial_charge
O1    O     O_R   0.506780 0.600060 0.449950 -0.521001
O2    O     O_R   0.179840 0.597110 0.589410 -0.526391
O3    O     O_R   0.004570 0.399940 0.550050 -0.545393
C1    C     C_R   0.347088 0.617942 0.617118 0.800285
O4    O     O_R   0.177380 0.612160 0.452890 -0.548447
O5    O     O_R   0.002100 0.415100 0.412560 -0.551112
C2    C     C_R   0.345630 0.636019 0.434795 0.796085
O6    O     O_R   0.509250 0.584900 0.587440 -0.509135
O7    O     O_3   0.337570 0.435330 0.486930 -0.398212
V1    V     V_3+5 0.064650 0.512000 0.502430 1.531329
O8    O     O_R   0.672090 0.402890 0.410590 -0.546662
C3    C     C_R   0.840846 0.383705 0.382529 0.753326
O9    O     O_R   0.674540 0.387840 0.547110 -0.553822
C4    C     C_R   0.843884 0.363987 0.564884 0.713974
V2    V     V_3+5 0.564040 0.488000 0.497570 1.524218
O10   O     O_3   0.840990 0.564670 0.513070 -0.338578
C5    C     C_R   0.976160 0.117820 0.602375 0.124127
C6    C     C_R   0.860626 0.283341 0.599482 -0.070607
C7    C     C_R   0.857485 0.311632 0.928031 0.100628
C8    C     C_R   0.862616 0.387681 0.892245 0.213827
C9    C     C_R   0.865120 0.361106 0.820701 -0.181132
C10   C     C_R   0.862052 0.259772 0.781893 0.027909
C11   C     C_R   0.864526 0.180592 0.816666 -0.006193
C12   C     C_R   0.870452 0.236275 0.708736 0.034767
C13   C     C_R   0.912043 0.136965 0.671606 0.059533
C14   C     C_R   0.872797 0.058403 0.702450 0.084467
C15   C     C_R   0.864512 0.077903 0.774998 0.060472
C16   C     C_R   0.834979 0.307833 0.670637 -0.259461
C17   C     C_R   0.938501 0.189387 0.564800 0.133542
C18   C     C_R   0.861576 0.208599 0.890943 -0.106116
H1    H     H_    0.782740 0.382745 0.694653 0.121757
H2    H     H_    0.878764 0.422004 0.795965 0.125080
C19   C     C_3   0.892414 0.160960 0.253849 0.450208
C20   C     C_3   0.026850 0.252213 0.280114 -0.256880
H3    H     H_    0.167437 0.252780 0.305753 0.159021
C21   C     C_3   0.850315 0.315866 0.311363 -0.214162
C22   C     C_3   0.717159 0.224655 0.285907 -0.187671
C23   C     C_3   0.685099 0.255759 0.217801 -0.191246
C24   C     C_3   0.817861 0.347384 0.244237 0.399919
C25   C     C_3   0.992608 0.283728 0.212349 0.348755
C26   C     C_3   0.861339 0.191817 0.186312 -0.202967
H4    H     H_    0.604462 0.205415 0.318730 0.154239
H5    H     H_    0.545264 0.256792 0.192030 0.240768
C27   C     C_3   0.532018 0.732809 0.725717 0.503297
C28   C     C_3   0.422051 0.833864 0.751541 -0.296225
H6    H     H_    0.467719 0.912079 0.754669 0.140954
C29   C     C_3   0.360911 0.800498 0.816274 -0.132140
C30   C     C_3   0.470000 0.699737 0.790366 0.113342
C31   C     C_3   0.288211 0.650604 0.752918 -0.259091
C32   C     C_3   0.180905 0.751636 0.779475 0.480637
C33   C     C_3   0.238694 0.785034 0.714395 -0.164047
C34   C     C_3   0.350657 0.684922 0.688744 -0.157867
H7    H     H_    0.230346 0.575049 0.752767 0.148744
H8    H     H_    0.147090 0.819217 0.681760 0.172511
C35   C     C_R   0.428820 0.886149 0.397966 -0.181537
H9    H     H_    0.470385 0.960244 0.427717 0.158378
C36   C     C_R   0.356179 0.714653 0.397658 -0.109703
C37   C     C_R   0.362412 0.686947 0.071475 0.041491
C38   C     C_R   0.384487 0.613311 0.108141 0.469482
C39   C     C_R   0.390761 0.641499 0.179130 -0.156196
C40   C     C_R   0.362058 0.742093 0.216811 -0.040184
C41   C     C_R   0.364669 0.820001 0.181241 -0.075911
C42   C     C_R   0.351122 0.766208 0.289782 0.085022
C43   C     C_R   0.389474 0.866282 0.327065 -0.012411
C44   C     C_R   0.384756 0.945096 0.293692 0.188004
C45   C     C_R   0.373231 0.922911 0.221175 0.411959
C46   C     C_R   0.304183 0.694346 0.327830 0.011320
C47   C     C_R   0.422010 0.810106 0.432015 0.345846
C48   C     C_R   0.361198 0.790291 0.107376 -0.116226
H10   H     H_    0.422234 0.582895 0.204660 0.225415
O11   O     O_R   0.203580 0.914920 0.912610 -0.529947
O12   O     O_R   0.535710 0.887810 0.047120 -0.536862
O13   O     O_R   0.710730 0.084950 0.087430 -0.520532
C49   C     C_R   0.367558 0.864001 0.065610 0.829026
O14   O     O_R   0.533010 0.902850 0.910600 -0.544818
O15   O     O_R   0.708010 0.100090 0.949930 -0.550242
C50   C     C_R   0.365013 0.875593 0.885333 0.709520
O16   O     O_R   0.206300 0.899780 0.050100 -0.528469
O17   O     O_3   0.375170 0.064580 0.013100 -0.353298
V3    V     V_3+5 0.648200 0.988020 0.997570 1.556960
O18   O     O_R   0.038030 0.112330 0.952840 -0.547694
C51   C     C_R   0.869686 0.133672 0.932422 0.681333
O19   O     O_R   0.040730 0.097300 0.089360 -0.503474
C52   C     C_R   0.871464 0.120009 0.116330 0.837510
V4    V     V_3+5 0.148780 0.012220 0.002360 1.599992
O20   O     O_3   0.871930 0.935430 0.986900 -0.365083
C53   C     C_3   0.983841 0.165135 0.488644 -0.743343
H11   H     H_    0.916023 0.218239 0.462265 0.185688
H12   H     H_    0.141214 0.167517 0.481251 0.202457
H13   H     H_    0.929243 0.089041 0.462702 0.227295
Cl1   Cl    Cl    0.926271 0.035363 0.261305 -0.654644
Cl2   Cl    Cl    0.762358 0.471327 0.237342 -0.642624
Cl3   Cl    Cl    0.173955 0.326429 0.164185 -0.583467
Cl4   Cl    Cl    0.758945 0.718801 0.683618 -0.644492
C54   C     C_3   0.582768 0.641580 0.832333 -0.682831
H14   H     H_    0.691427 0.593123 0.799286 0.239154
H15   H     H_    0.651989 0.694423 0.876334 0.248923
H16   H     H_    0.484785 0.592248 0.852622 0.188636
Cl5   Cl    Cl    0.964007 0.760059 0.825912 -0.696364
C55   C     C_3   0.798795 0.959901 0.656926 -0.646596
H17   H     H_    0.667933 0.935902 0.678846 0.236078
H18   H     H_    0.753067 0.968170 0.605977 0.250516
H19   H     H_    0.908331 0.899959 0.649265 0.229504
Cl6   Cl    Cl    0.480317 0.839271 0.519920 -0.713672
C56   C     C_3   0.378930 0.052888 0.337448 -0.675864
H20   H     H_    0.338466 0.109195 0.309470 0.248454
H21   H     H_    0.267166 0.059765 0.377627 0.200859
H22   H     H_    0.520263 0.073192 0.362182 0.194962
C57   C     C_3   0.175040 0.604644 0.299173 -0.642436
H23   H     H_    0.052733 0.605192 0.334566 0.226745
H24   H     H_    0.107671 0.607736 0.249982 0.257032
H25   H     H_    0.255769 0.532890 0.293006 0.226042
C58   C     C_3   0.348677 0.657314 0.994012 -0.765530
H26   H     H_    0.347191 0.574856 0.971370 0.254717
H27   H     H_    0.214980 0.688604 0.977588 0.214895
H28   H     H_    0.473632 0.688667 0.972580 0.191940
Cl7   Cl    Cl    0.409755 0.483755 0.067718 -0.618080
Cl8   Cl    Cl    0.384483 0.027453 0.183956 -0.637760
C59   C     C_3   0.100686 0.026834 0.570764 -0.701774
H29   H     H_    0.152933 0.988513 0.609683 0.231149
H30   H     H_    0.021014 0.972165 0.530234 0.229485
H31   H     H_    0.231378 0.051112 0.547796 0.224098
C60   C     C_3   0.852005 0.338468 0.006126 -0.586830
H32   H     H_    0.842130 0.420244 0.030519 0.255486
H33   H     H_    0.725204 0.303009 0.023839 0.217211
H34   H     H_    0.983930 0.310179 0.025812 0.231255
C61   C     C_3   0.871386 0.498297 0.929178 -0.759305
H35   H     H_    0.996922 0.512541 0.964020 0.237230
H36   H     H_    0.887867 0.547329 0.893277 0.217259
H37   H     H_    0.737579 0.521176 0.959054 0.240568
C62   C     C_3   0.860463 0.987603 0.805077 -0.677014
H38   H     H_    0.869118 0.914826 0.766419 0.261385
H39   H     H_    0.988556 0.987849 0.837128 0.217542
H40   H     H_    0.725303 0.986654 0.833471 0.214223

loop_
_geom_bond_atom_site_label_1
_geom_bond_atom_site_label_2
_ccdc_geom_bond_type
C53   H11   S    
C30   C54   S    
C15   C62   S    
C4    C6    S    
C54   H14   S    
O11   C50   A    
C25   Cl3   S    
C1    O6    A    
C62   H40   S    
O18   C51   A    
C54   H16   S    
C60   H32   S    
V4    O20   S    
C56   H21   S    
C7    C60   S    
C14   C15   A    
C1    C34   S    
C20   C25   S    
C21   C22   S    
C57   H24   S    
O5    C3    A    
C23   C24   S    
C60   H33   S    
C28   C33   S    
V2    O10   S    
C5    C17   A    
C20   H3    S    
C22   H4    S    
C40   C42   A    
V3    O20   S    
O11   V4    S    
O8    V2    S    
C46   C57   S    
C29   C30   S    
C37   C58   S    
O1    V2    S    
C11   C15   A    
C3    C21   S    
O14   V3    S    
O13   C52   A    
C58   H28   S    
C27   C34   S    
C28   C29   S    
C38   C39   A    
C38   Cl7   S    
O9    C4    A    
C36   C46   A    
C44   C56   S    
C56   H22   S    
C35   C47   A    
C29   C32   S    
C59   H30   S    
C9    H2    S    
C42   C46   A    
C16   H1    S    
C41   C45   A    
C33   C34   S    
C11   C18   A    
O15   V3    S    
C6    C16   A    
C12   C13   A    
C23   C26   S    
O12   C49   A    
C57   H25   S    
O15   C51   A    
C24   C25   S    
O4    C2    A    
C60   H34   S    
C13   C14   A    
C28   H6    S    
C26   C52   S    
C55   H19   S    
C19   C22   S    
O17   V3    S    
C41   C48   A    
C39   C40   A    
C18   C51   S    
O2    C1    A    
C61   H36   S    
C22   C23   S    
O19   C52   A    
O9    V2    S    
C39   H10   S    
C59   H29   S    
C31   C34   S    
C35   C43   A    
C35   H9    S    
C55   H18   S    
C32   C33   S    
C32   Cl5   S    
C48   C49   S    
C6    C17   A    
O14   C50   A    
O3    C4    A    
C8    C61   S    
O16   V4    S    
C30   C31   S    
O19   V4    S    
C31   C32   S    
O6    V2    S    
C53   H12   S    
C49   O16   A    
C10   C12   A    
C29   C50   S    
C36   C47   A    
C62   H38   S    
O2    V1    S    
C47   Cl6   S    
C24   Cl2   S    
O17   V4    S    
C27   C28   S    
C58   H26   S    
O7    V1    S    
C59   H31   S    
C25   C26   S    
O1    C2    A    
C21   C24   S    
C12   C16   A    
C62   H39   S    
O5    V1    S    
O8    C3    A    
C54   H15   S    
C37   C48   A    
C56   H20   S    
C33   H8    S    
C19   C26   S    
C43   C44   A    
C7    C8    A    
C19   Cl1   S    
C37   C38   A    
C61   H37   S    
C5    C13   A    
C23   H5    S    
O12   V3    S    
O3    V1    S    
V1    O10   S    
C57   H23   S    
C31   H7    S    
C55   H17   S    
O13   V3    S    
C19   C20   S    
C20   C21   S    
O7    V2    S    
C40   C41   A    
C17   C53   S    
C27   Cl4   S    
C5    C59   S    
C42   C43   A    
C27   C30   S    
O4    V1    S    
C8    C9    A    
C44   C45   A    
C45   Cl8   S    
C53   H13   S    
C10   C11   A    
C9    C10   A    
C7    C18   A    
C2    C36   S    
O18   V4    S    
C61   H35   S    
C14   C55   S    
C58   H27   S    
