data_mof_unit_56.cif
_audit_creation_date              2012-12-11T14:42:17-0500
_audit_creation_method            fapswitch 2.2
_symmetry_space_group_name_H-M    P1
_symmetry_Int_Tables_number       1
_space_group_crystal_system       triclinic
_cell_length_a                    19.02397
_cell_length_b                    10.942411
_cell_length_c                    18.887546
_cell_angle_alpha                 89.867143
_cell_angle_beta                  89.895798
_cell_angle_gamma                 89.982179
_cell_volume                      3931.76728035

loop_
_atom_site_label
_atom_site_type_symbol
_atom_type_description
_atom_site_fract_x
_atom_site_fract_y
_atom_site_fract_z
_atom_type_partial_charge
C1    C     C_R   0.725568 0.958851 0.855047 0.552992
C2    C     C_R   0.238662 0.431032 0.929238 -0.054870
C3    C     C_3   0.592829 0.764468 0.068980 -0.107192
C4    C     C_R   0.262182 0.933742 0.071127 -0.058975
C5    C     C_R   0.738662 0.931031 0.929238 -0.054870
C6    C     C_R   0.820681 0.430441 0.026382 -0.141888
C7    C     C_R   0.180929 0.397246 0.970724 -0.135596
C8    C     C_R   0.320681 0.930442 0.026382 -0.141888
C9    C     C_R   0.680929 0.897246 0.970724 -0.135595
C10   C     C_R   0.813069 0.416029 0.953965 0.217634
C11   C     C_R   0.185344 0.393760 0.043898 0.230388
C12   C     C_R   0.313069 0.916030 0.953965 0.217635
C13   C     C_R   0.274504 0.959075 0.145201 0.551424
C14   C     C_R   0.685344 0.893761 0.043898 0.230387
C15   C     C_R   0.744989 0.408269 0.925523 0.047446
C16   C     C_R   0.250803 0.415782 0.076415 0.037531
C17   C     C_R   0.244989 0.908269 0.925523 0.047444
C18   C     C_R   0.750803 0.915781 0.076415 0.037533
C19   C     C_R   0.465942 0.259675 0.545685 -0.160715
C20   C     C_R   0.455922 0.263769 0.473975 -0.147670
C21   C     C_R   0.965942 0.759675 0.545685 -0.160715
C22   C     C_R   0.955921 0.763769 0.473975 -0.147670
C23   C     C_R   0.483127 0.170752 0.430661 0.030973
C24   C     C_R   0.225568 0.458851 0.855047 0.552992
C25   C     C_R   0.503822 0.163161 0.574469 0.018469
C26   C     C_R   0.983127 0.670752 0.430661 0.030972
C27   C     C_R   0.003822 0.663161 0.574469 0.018469
C28   C     C_R   0.516759 0.069466 0.459699 -0.152809
C29   C     C_R   0.527569 0.065869 0.531984 -0.148906
C30   C     C_R   0.016759 0.569467 0.459699 -0.152809
C31   C     C_R   0.027569 0.565870 0.531984 -0.148906
C32   C     C_R   0.810306 0.435718 0.546078 0.057897
C33   C     C_R   0.205922 0.315068 0.473000 0.080811
C34   C     C_R   0.310306 0.935719 0.546078 0.057897
C35   C     C_R   0.774504 0.459075 0.145201 0.551425
C36   C     C_R   0.705922 0.815069 0.473000 0.080812
C37   C     C_R   0.817731 0.453096 0.473736 -0.152107
C38   C     C_R   0.206738 0.328612 0.545439 -0.161879
C39   C     C_R   0.317730 0.953096 0.473736 -0.152107
C40   C     C_R   0.706737 0.828613 0.545439 -0.161879
C41   C     C_R   0.530153 0.177632 0.851113 0.579007
C42   C     C_R   0.470644 0.177987 0.149447 0.563567
C43   C     C_R   0.030153 0.677632 0.851113 0.579007
C44   C     C_R   0.970644 0.677987 0.149447 0.563566
C45   C     C_R   0.760794 0.433604 0.427768 0.051038
C46   C     C_R   0.694592 0.431062 0.043234 -0.148578
C47   C     C_R   0.249142 0.416502 0.577096 0.043090
C48   C     C_R   0.260794 0.933604 0.427768 0.051037
C49   C     C_R   0.749142 0.916502 0.577096 0.043090
C50   C     C_R   0.694569 0.401652 0.454361 0.056993
C51   C     C_R   0.297840 0.483626 0.535732 0.069036
C52   C     C_R   0.194569 0.901651 0.454360 0.056992
C53   C     C_R   0.797840 0.983626 0.535732 0.069036
C54   C     C_R   0.687179 0.385141 0.527365 -0.155525
C55   C     C_R   0.299382 0.466434 0.462686 -0.171170
C56   C     C_R   0.187179 0.885139 0.527365 -0.155525
C57   C     C_R   0.302071 0.462791 0.961617 -0.130991
C58   C     C_R   0.799383 0.966433 0.462686 -0.171170
C59   C     C_R   0.745129 0.400329 0.572826 0.044641
C60   C     C_R   0.253031 0.384432 0.430690 0.046527
C61   C     C_R   0.245129 0.900328 0.572826 0.044640
C62   C     C_R   0.753031 0.884432 0.430690 0.046527
C63   C     C_R   0.737240 0.362391 0.853515 0.599487
C64   C     C_R   0.261646 0.365418 0.147486 0.576787
C65   C     C_R   0.237240 0.862391 0.853515 0.599487
C66   C     C_R   0.761646 0.865418 0.147486 0.576788
C67   C     C_R   0.728471 0.955434 0.647683 0.562511
C68   C     C_R   0.194592 0.931061 0.043234 -0.148575
C69   C     C_R   0.273112 0.957420 0.353400 0.577538
C70   C     C_R   0.228471 0.455434 0.647683 0.562510
C71   C     C_R   0.773112 0.457420 0.353400 0.577538
C72   C     C_R   0.530597 0.175537 0.644703 0.550467
C73   C     C_R   0.467152 0.176693 0.356822 0.554973
C74   C     C_R   0.030597 0.675537 0.644703 0.550468
C75   C     C_R   0.967152 0.676693 0.356822 0.554972
C76   C     C_R   0.738366 0.359980 0.645525 0.582462
C77   C     C_R   0.261781 0.355275 0.356052 0.563200
C78   C     C_R   0.238366 0.859980 0.645525 0.582462
C79   C     C_R   0.802072 0.962788 0.961617 -0.130992
C80   C     C_R   0.761781 0.855275 0.356052 0.563200
C81   C     C_2   0.499726 0.169170 0.922248 -0.059219
C82   C     C_2   0.503798 0.171655 0.079565 -0.091481
C83   C     C_2   0.999726 0.669169 0.922248 -0.059219
C84   C     C_2   0.003798 0.671655 0.079565 -0.091481
C85   C     C_2   0.500034 0.070137 0.040210 -0.128722
C86   C     C_2   0.512716 0.071247 0.963302 -0.115462
C87   C     C_2   0.000034 0.570137 0.040210 -0.128723
C88   C     C_2   0.012716 0.571247 0.963302 -0.115461
C89   C     C_R   0.685055 0.419723 0.970105 0.214807
C90   C     C_R   0.762182 0.433742 0.071127 -0.058974
C91   C     C_R   0.308573 0.456539 0.035102 0.212388
C92   C     C_R   0.185056 0.919721 0.970105 0.214805
C93   C     C_R   0.808574 0.956537 0.035102 0.212388
C94   C     C_3   0.576980 0.507222 0.953423 -0.116079
C95   C     C_3   0.372432 0.603779 0.088876 -0.103517
C96   C     C_3   0.076984 0.007226 0.953414 -0.116074
C97   C     C_3   0.872434 0.103777 0.088873 -0.103521
C98   C     C_3   0.913875 0.313853 0.923447 -0.103068
C99   C     C_3   0.092830 0.264464 0.068979 -0.107192
C100  C     C_3   0.413875 0.813856 0.923446 -0.103067
Cr1   Cr    Cr6+3 0.769270 0.163730 0.750710 1.050986
Cr2   Cr    Cr6+3 0.385840 0.322500 0.252290 1.035309
Cr3   Cr    Cr6+3 0.114160 0.822500 0.747710 1.038608
Cr4   Cr    Cr6+3 0.885840 0.822500 0.252290 1.035310
Cr5   Cr    Cr6+3 0.230730 0.163730 0.249290 1.043763
Cr6   Cr    Cr6+3 0.269270 0.663730 0.750710 1.050987
Cr7   Cr    Cr6+3 0.730730 0.663730 0.249290 1.043762
Cr8   Cr    Cr6+3 0.612620 0.009790 0.748780 1.018653
Cr9   Cr    Cr6+3 0.387380 0.009790 0.251220 1.015636
Cr10  Cr    Cr6+3 0.112620 0.509790 0.748780 1.018653
Cr11  Cr    Cr6+3 0.887380 0.509790 0.251220 1.015637
Cr12  Cr    Cr6+3 0.614160 0.322500 0.747710 1.038613
H1    H     H_    0.486996 0.983342 0.064715 0.155162
H2    H     H_    0.336812 0.517603 0.431028 0.124357
H3    H     H_    0.136966 0.855343 0.548391 0.143102
H4    H     H_    0.836812 0.017602 0.431028 0.124357
H5    H     H_    0.521875 0.256875 0.056164 0.133462
H6    H     H_    0.476088 0.250899 0.944523 0.119348
H7    H     H_    0.021874 0.756875 0.056164 0.133468
H8    H     H_    0.976087 0.750899 0.944523 0.119349
H9    H     H_    0.649602 0.434603 0.078397 0.127271
H10   H     H_    0.346357 0.493587 0.930142 0.133018
H11   H     H_    0.149602 0.934601 0.078397 0.127276
H12   H     H_    0.533047 0.988331 0.939932 0.142648
H13   H     H_    0.846357 0.993584 0.930141 0.133019
H14   H     H_    0.872725 0.441356 0.047766 0.142217
H15   H     H_    0.130873 0.378584 0.946431 0.133478
H16   H     H_    0.372725 0.941358 0.047766 0.142217
H17   H     H_    0.630872 0.878585 0.946432 0.133478
H18   H     H_    0.447071 0.334336 0.578182 0.138844
H19   H     H_    0.427143 0.340500 0.452361 0.143015
H20   H     H_    0.947071 0.834335 0.578183 0.138844
H21   H     H_    0.927142 0.840499 0.452362 0.143015
H22   H     H_    0.535801 0.995733 0.426612 0.130260
H23   H     H_    0.986996 0.483341 0.064715 0.155162
H24   H     H_    0.557553 0.990628 0.553925 0.143898
H25   H     H_    0.035802 0.495733 0.426611 0.130260
H26   H     H_    0.057554 0.490629 0.553924 0.143899
H27   H     H_    0.593370 0.347846 0.435319 0.236252
H28   H     H_    0.620827 0.467834 0.387986 0.246340
H29   H     H_    0.395767 0.547264 0.554258 0.209226
H30   H     H_    0.334023 0.656602 0.543359 0.244250
H31   H     H_    0.093370 0.847843 0.435319 0.236252
H32   H     H_    0.120826 0.967832 0.387986 0.246340
H33   H     H_    0.895767 0.047263 0.554259 0.209226
H34   H     H_    0.033047 0.488331 0.939932 0.142649
H35   H     H_    0.834024 0.156601 0.543358 0.244250
H36   H     H_    0.529215 0.499778 0.920111 0.148186
H37   H     H_    0.605241 0.591733 0.936692 0.099733
H38   H     H_    0.559043 0.514333 0.009249 0.104531
H39   H     H_    0.425387 0.626834 0.109378 0.122997
H40   H     H_    0.334141 0.616154 0.132891 0.136274
H41   H     H_    0.360411 0.668701 0.045175 0.097245
H42   H     H_    0.029216 0.999772 0.920108 0.148187
H43   H     H_    0.105246 0.091727 0.936668 0.099742
H44   H     H_    0.059052 0.014363 0.009239 0.104515
H45   H     H_    0.868329 0.482202 0.453378 0.143572
H46   H     H_    0.925393 0.126840 0.109362 0.122989
H47   H     H_    0.834153 0.116148 0.132897 0.136284
H48   H     H_    0.860401 0.168696 0.045175 0.097245
H49   H     H_    0.883096 0.227485 0.920981 0.129607
H50   H     H_    0.940895 0.321128 0.975274 0.073301
H51   H     H_    0.955191 0.308715 0.882046 0.136414
H52   H     H_    0.131699 0.188861 0.063531 0.128948
H53   H     H_    0.060046 0.272224 0.020666 0.066549
H54   H     H_    0.057148 0.239973 0.113293 0.135029
H55   H     H_    0.383096 0.727488 0.920980 0.129607
H56   H     H_    0.169828 0.275149 0.576506 0.134997
H57   H     H_    0.440896 0.821130 0.975273 0.073300
H58   H     H_    0.455192 0.808720 0.882044 0.136415
H59   H     H_    0.631697 0.688863 0.063533 0.128948
H60   H     H_    0.560045 0.772228 0.020667 0.066549
H61   H     H_    0.557146 0.739979 0.113293 0.135028
H62   H     H_    0.882004 0.546956 0.589490 0.237783
H63   H     H_    0.910961 0.402626 0.574430 0.234293
H64   H     H_    0.105851 0.259495 0.456914 0.213676
H65   H     H_    0.164686 0.145307 0.466937 0.228657
H66   H     H_    0.382003 0.046957 0.589490 0.237783
H67   H     H_    0.368329 0.982203 0.453378 0.143572
H68   H     H_    0.410961 0.902627 0.574430 0.234293
H69   H     H_    0.605850 0.759499 0.456913 0.213676
H70   H     H_    0.664684 0.645309 0.466937 0.228656
H71   H     H_    0.669827 0.775150 0.576506 0.134997
H72   H     H_    0.636966 0.355345 0.548391 0.143102
N1    N     N_3   0.636367 0.382462 0.407311 -0.615261
N2    N     N_3   0.344108 0.571741 0.566807 -0.584110
N3    N     N_3   0.136367 0.882461 0.407310 -0.615261
N4    N     N_3   0.844108 0.071740 0.566807 -0.584111
N5    N     N_3   0.868542 0.454723 0.592578 -0.602593
N6    N     N_3   0.156505 0.230506 0.443374 -0.586739
N7    N     N_3   0.368541 0.954725 0.592578 -0.602593
N8    N     N_3   0.656504 0.730508 0.443373 -0.586739
O1    O     O_R   0.784320 0.290430 0.830510 -0.495955
O2    O     O_R   0.456080 0.282180 0.333210 -0.525835
O3    O     O_R   0.043920 0.782180 0.666790 -0.529555
O4    O     O_R   0.956080 0.782180 0.333210 -0.525835
O5    O     O_R   0.679040 0.374160 0.674430 -0.526633
O6    O     O_R   0.320960 0.374160 0.325570 -0.528337
O7    O     O_R   0.179040 0.874160 0.674430 -0.526633
O8    O     O_R   0.820960 0.874160 0.325570 -0.528338
O9    O     O_3   0.665350 0.165340 0.749070 -0.267365
O10   O     O_3   0.334650 0.165340 0.250930 -0.267888
O11   O     O_3   0.165350 0.665340 0.749070 -0.267363
O12   O     O_R   0.215680 0.290430 0.169490 -0.482481
O13   O     O_3   0.834650 0.665340 0.250930 -0.267888
O14   O     O_R   0.762640 0.040960 0.825200 -0.511574
O15   O     O_R   0.237360 0.040960 0.174800 -0.503574
O16   O     O_R   0.262640 0.540960 0.825200 -0.511573
O17   O     O_R   0.737360 0.540960 0.174800 -0.503574
O18   O     O_R   0.667400 0.923970 0.829950 -0.528476
O19   O     O_R   0.332600 0.923970 0.170050 -0.533137
O20   O     O_R   0.167400 0.423970 0.829950 -0.528477
O21   O     O_R   0.832600 0.423970 0.170050 -0.533136
O22   O     O_R   0.553960 0.081340 0.821780 -0.500074
O23   O     O_R   0.284320 0.790430 0.830510 -0.495955
O24   O     O_R   0.446040 0.081340 0.178220 -0.498186
O25   O     O_R   0.053960 0.581340 0.821780 -0.500073
O26   O     O_R   0.946040 0.581340 0.178220 -0.498186
O27   O     O_R   0.543180 0.283240 0.826740 -0.486701
O28   O     O_R   0.456820 0.283240 0.173260 -0.486580
O29   O     O_R   0.043180 0.783240 0.826740 -0.486704
O30   O     O_R   0.956820 0.783240 0.173260 -0.486577
O31   O     O_R   0.678360 0.375140 0.822710 -0.464637
O32   O     O_R   0.321640 0.375140 0.177290 -0.468559
O33   O     O_R   0.178360 0.875140 0.822710 -0.464642
O34   O     O_R   0.715680 0.790430 0.169490 -0.482482
O35   O     O_R   0.821640 0.875140 0.177290 -0.468561
O36   O     O_R   0.785050 0.289380 0.670560 -0.469027
O37   O     O_R   0.214950 0.289380 0.329440 -0.470021
O38   O     O_R   0.285050 0.789380 0.670560 -0.469027
O39   O     O_R   0.714950 0.789380 0.329440 -0.470021
O40   O     O_R   0.763320 0.039990 0.676930 -0.461160
O41   O     O_R   0.236680 0.039990 0.323070 -0.487370
O42   O     O_R   0.263320 0.539990 0.676930 -0.461160
O43   O     O_R   0.736680 0.539990 0.323070 -0.487370
O44   O     O_R   0.668130 0.922920 0.670000 -0.539462
O45   O     O_R   0.554640 0.080370 0.673500 -0.503737
O46   O     O_R   0.331870 0.922920 0.330000 -0.530064
O47   O     O_R   0.168130 0.422920 0.670000 -0.539462
O48   O     O_R   0.831870 0.422920 0.330000 -0.530064
O49   O     O_3   0.618121 0.401381 0.943330 -0.541181
O50   O     O_3   0.373213 0.481821 0.064911 -0.553769
O51   O     O_3   0.118121 0.901377 0.943332 -0.541183
O52   O     O_3   0.873213 0.981818 0.064910 -0.553766
O53   O     O_3   0.871494 0.417337 0.909822 -0.544032
O54   O     O_3   0.125287 0.377184 0.084907 -0.545882
O55   O     O_3   0.371493 0.917340 0.909822 -0.544033
O56   O     O_R   0.445360 0.080370 0.326500 -0.508612
O57   O     O_3   0.625287 0.877187 0.084907 -0.545881
O58   O     O_R   0.054640 0.580370 0.673500 -0.503737
O59   O     O_R   0.945360 0.580370 0.326500 -0.508611
O60   O     O_R   0.543920 0.282180 0.666790 -0.529555

loop_
_geom_bond_atom_site_label_1
_geom_bond_atom_site_label_2
_ccdc_geom_bond_type
C58   C62   A    
H27   N1    S    
C87   C88   S    
Cr8   O44   S    
H66   N7    S    
Cr7   O39   S    
C45   C71   S    
C43   C83   S    
C14   C18   A    
C2    C7    A    
C42   C82   S    
C84   C87   D    
C48   C69   S    
C4    C8    A    
Cr9   O24   S    
C98   H51   S    
C24   O20   A    
C2    C57   A    
Cr2   O32   S    
C96   O51   S    
C73   O56   A    
Cr9   O46   S    
Cr10  O58   S    
C94   H37   S    
C7    C11   A    
Cr6   O23   S    
Cr9   O19   S    
Cr3   O33   S    
C89   O49   S    
C50   C54   A    
H70   N8    S    
C100  H55   S    
C1    C5    S    
H28   N1    S    
C97   H47   S    
C62   C80   S    
C28   C29   A    
C43   O29   A    
C53   N4    S    
C65   O23   A    
C21   H20   S    
C42   O28   A    
C76   O5    A    
Cr2   O6    S    
Cr6   O16   S    
C30   C31   A    
H69   N8    S    
C36   C62   A    
C3    H60   S    
C96   H43   S    
C76   O36   A    
Cr11  O59   S    
C40   C49   A    
C80   O8    A    
Cr7   O34   S    
Cr2   O2    S    
C64   O32   A    
C70   O42   A    
C37   H45   S    
C4    C13   S    
Cr10  O25   S    
C69   O41   A    
C41   O27   A    
Cr6   O11   S    
C3    H61   S    
C96   H42   S    
C19   C20   A    
Cr9   O56   S    
C12   C17   A    
C63   O1    A    
C46   H9    S    
Cr5   O15   S    
Cr11  O26   S    
C71   O43   A    
C5    C79   A    
C27   C74   S    
Cr6   O42   S    
C77   O6    A    
Cr11  O13   S    
C51   C55   A    
C81   C86   D    
C56   H3    S    
Cr2   O28   S    
C99   H54   S    
C75   O4    A    
C19   H18   S    
C83   C88   D    
C57   H10   S    
C30   H25   S    
C55   C60   A    
C95   O50   S    
C58   H4    S    
Cr4   O8    S    
C43   O25   A    
C17   C92   A    
Cr3   O3    S    
Cr12  O9    S    
C23   C73   S    
C75   O59   A    
C79   H13   S    
C68   H11   S    
Cr4   O30   S    
C98   H50   S    
Cr1   O1    S    
Cr12  O60   S    
C54   C59   A    
C25   C29   A    
H30   N2    S    
C60   C77   S    
C19   C25   A    
C85   C86   S    
H33   N4    S    
C27   C31   A    
C34   C39   A    
C93   O52   S    
C97   H48   S    
C87   H23   S    
C36   C40   A    
C44   O26   A    
C6    H14   S    
C98   O53   S    
Cr9   O10   S    
H63   N5    S    
C68   C92   A    
C14   O57   S    
Cr10  O47   S    
Cr5   O12   S    
C47   C51   A    
Cr8   O18   S    
C22   H21   S    
C94   H36   S    
C6    C90   A    
C20   C23   A    
C100  H58   S    
C81   H6    S    
C24   O16   A    
C34   C61   A    
Cr6   O38   S    
Cr10  O11   S    
C95   H41   S    
Cr5   O37   S    
C83   H8    S    
C66   O35   A    
C38   H56   S    
C9    C14   A    
C47   C70   S    
C5    C9    A    
Cr8   O9    S    
C63   O31   A    
C15   C89   A    
C8    H16   S    
C11   C16   A    
H64   N6    S    
C91   O50   S    
Cr8   O22   S    
C61   C78   S    
C8    C12   A    
C41   C81   S    
C66   O34   A    
C13   O15   A    
C26   C75   S    
Cr4   O4    S    
C65   O33   A    
C10   O53   S    
Cr3   O7    S    
C32   C37   A    
C72   O60   A    
C99   O54   S    
C1    O14   A    
C35   O21   A    
C38   C47   A    
C72   O45   A    
C99   H53   S    
Cr7   O17   S    
C46   C89   A    
C17   C65   S    
C52   N3    S    
C67   O40   A    
C26   C30   A    
C33   C60   A    
Cr1   O36   S    
C86   H12   S    
C21   C27   A    
Cr12  O31   S    
C28   H22   S    
C95   H39   S    
C70   O47   A    
C80   O39   A    
C37   C45   A    
C12   O55   S    
Cr12  O5    S    
C98   H49   S    
C95   H40   S    
Cr4   O35   S    
C4    C68   A    
C69   O46   A    
Cr7   O43   S    
C74   O3    A    
C34   N7    S    
C88   H34   S    
H65   N6    S    
C57   C91   A    
C100  H57   S    
C36   N8    S    
C11   O54   S    
Cr5   O41   S    
C1    O18   A    
Cr10  O20   S    
C3    O57   S    
C44   C84   S    
H68   N7    S    
Cr11  O21   S    
C6    C10   A    
C39   H67   S    
C53   C58   A    
C49   C67   S    
C46   C90   A    
C55   H2    S    
C9    H17   S    
H35   N4    S    
C78   O38   A    
C82   C85   D    
C77   O37   A    
Cr11  O48   S    
C82   H5    S    
C10   C15   A    
C71   O48   A    
C31   H26   S    
C21   C22   A    
C40   H71   S    
C85   H1    S    
Cr2   O10   S    
C79   C93   A    
C13   O19   A    
C100  O55   S    
Cr1   O9    S    
Cr3   O29   S    
C97   H46   S    
C2    C24   S    
C41   O22   A    
C3    H59   S    
Cr5   O10   S    
C96   H44   S    
C25   C72   S    
C45   C50   A    
C33   N6    S    
C84   H7    S    
C49   C53   A    
C92   O51   S    
Cr12  O27   S    
C32   N5    S    
C35   O17   A    
Cr1   O40   S    
C54   H72   S    
C64   O12   A    
C18   C66   S    
Cr3   O11   S    
C20   H19   S    
Cr7   O13   S    
C42   O24   A    
Cr1   O14   S    
C74   O58   A    
H62   N5    S    
C22   C26   A    
C99   H52   S    
C35   C90   S    
C94   H38   S    
C48   C52   A    
C29   H24   S    
C44   O30   A    
Cr8   O45   S    
C16   C91   A    
C78   O7    A    
C51   N2    S    
C18   C93   A    
C15   C63   S    
C56   C61   A    
C67   O44   A    
C33   C38   A    
C94   O49   S    
H29   N2    S    
C16   C64   S    
C32   C59   A    
C7    H15   S    
C73   O2    A    
C50   N1    S    
C59   C76   S    
C23   C28   A    
C52   C56   A    
H31   N3    S    
C39   C48   A    
C97   O52   S    
H32   N3    S    
Cr4   O13   S    
