data_mof_unit_3742.cif
_audit_creation_date              2013-03-05T16:04:21-0500
_audit_creation_method            fapswitch 2.2
_symmetry_space_group_name_H-M    P1
_symmetry_Int_Tables_number       1
_space_group_crystal_system       triclinic
_cell_length_a                    9.51396
_cell_length_b                    10.801565
_cell_length_c                    13.358392
_cell_angle_alpha                 90.453402
_cell_angle_beta                  72.808124
_cell_angle_gamma                 90.095155
_cell_volume                      1311.40694219

loop_
_atom_site_label
_atom_site_type_symbol
_atom_site_description
_atom_site_fract_x
_atom_site_fract_y
_atom_site_fract_z
_atom_type_partial_charge
O1    O     O_R   0.381250 0.680340 0.500010 -0.589115
O2    O     O_R   0.618820 0.680370 0.500010 -0.543019
C1    C     C_R   0.499905 0.737706 0.500324 0.902875
O3    O     O_R   0.323240 0.499950 0.650980 -0.593721
O4    O     O_R   0.560810 0.499980 0.650980 -0.571975
C2    C     C_R   0.421553 0.496166 0.700382 0.847001
Cu1   Cu    Cu3+1 0.359340 0.499980 0.500000 1.024902
Cu2   Cu    Cu3+1 0.640660 0.500020 0.500000 1.028877
O5    O     O_R   0.381180 0.319630 0.499990 -0.563182
O6    O     O_R   0.618750 0.319660 0.499990 -0.596894
O7    O     O_R   0.439190 0.500020 0.349020 -0.557663
O8    O     O_R   0.676760 0.500050 0.349020 -0.579937
C3    C     C_R   0.500822 0.262413 0.497694 0.855863
C4    C     C_R   0.578260 0.496444 0.299719 0.868816
C5    C     C_R   0.769062 0.358022 0.036043 -0.075026
H1    H     H_    0.826987 0.381652 0.178368 0.171907
H2    H     H_    0.871164 0.310136 0.999560 0.177186
C6    C     C_R   0.620603 0.470826 0.187041 -0.037535
C7    C     C_R   0.241661 0.554791 0.867687 -0.260954
C8    C     C_R   0.192017 0.561955 0.976729 0.294851
C9    C     C_R   0.279128 0.511911 0.035692 0.230720
C10   C     C_R   0.423669 0.467227 0.982844 -0.036959
C11   C     C_R   0.461701 0.444496 0.873872 0.024166
C12   C     C_R   0.532285 0.444966 0.034468 0.120415
C13   C     C_R   0.661787 0.376221 0.983512 0.076410
C14   C     C_R   0.682193 0.331637 0.880425 -0.047194
C15   C     C_R   0.584256 0.368783 0.826558 -0.180496
C16   C     C_R   0.519784 0.497597 0.133011 -0.092508
C17   C     C_R   0.746960 0.402709 0.137688 -0.085395
C18   C     C_R   0.373506 0.494879 0.815619 -0.128125
H3    H     H_    0.431741 0.561029 0.169505 0.194543
H4    H     H_    0.175925 0.596427 0.823022 0.205319
H5    H     H_    0.601426 0.332580 0.748162 0.176177
C19   C     C_R   0.562131 0.938709 0.566453 0.359248
C20   C     C_R   0.565516 0.066922 0.561497 -0.254421
H6    H     H_    0.611756 0.119199 0.613868 0.195319
C21   C     C_R   0.502171 0.128816 0.494439 -0.193636
C22   C     C_R   0.438077 0.063598 0.427491 0.295931
C23   C     C_R   0.438655 0.933931 0.428481 -0.153167
C24   C     C_R   0.499784 0.871877 0.498847 -0.260194
C25   C     C_R   0.898529 0.576858 0.565638 0.048477
H7    H     H_    0.820776 0.638416 0.618219 0.181124
C26   C     C_R   0.047393 0.576769 0.565656 0.020298
H8    H     H_    0.081903 0.638263 0.618219 0.145417
N1    N     N_R   0.147940 0.499970 0.499970 -0.198180
C27   C     C_R   0.101303 0.422823 0.434766 0.097801
H9    H     H_    0.179100 0.361251 0.382542 0.208516
C28   C     C_R   0.952504 0.422908 0.434639 0.077653
H10   H     H_    0.918069 0.361326 0.382097 0.148743
N2    N     N_R   0.852060 0.500060 0.499990 -0.191959
N3    N     N_R   0.383243 0.128652 0.353344 0.128724
O9    O     O_R   0.469394 0.201877 0.285303 -0.359342
O10   O     O_R   0.245704 0.119001 0.356559 -0.303732
C29   C     C_2   0.386798 0.863909 0.350134 0.957033
O11   O     O_2   0.474325 0.802720 0.282426 -0.588431
O12   O     O_R   0.237817 0.865229 0.355681 -0.679203
H11   H     H_    0.216038 0.812537 0.298893 0.369792
C30   C     C_2   0.805038 0.248446 0.824472 0.858550
O13   O     O_2   0.842409 0.162938 0.870434 -0.539241
O14   O     O_R   0.873672 0.264853 0.717293 -0.760344
H12   H     H_    0.954254 0.201815 0.687246 0.356267
N4    N     N_R   0.210251 0.480647 0.143589 0.092483
O15   O     O_R   0.218325 0.367675 0.174553 -0.343413
O16   O     O_R   0.145772 0.564506 0.212076 -0.346286
N5    N     N_R   0.052258 0.619383 0.025955 0.150279
O17   O     O_R   0.945127 0.605817 0.984742 -0.359052
O18   O     O_R   0.043071 0.707895 0.094169 -0.256321
N6    N     N_R   0.616718 0.878493 0.643240 0.127552
O19   O     O_R   0.729624 0.923976 0.667039 -0.324599
O20   O     O_R   0.540938 0.790690 0.700902 -0.368021

loop_
_geom_bond_atom_site_label_1
_geom_bond_atom_site_label_2
_geom_bond_distance
_ccdc_geom_bond_type
O4    Cu2   1.933670 S    
C26   H8    1.081760 S    
N4    O15   1.301201 A    
C11   C15   1.409673 A    
C14   C30   1.486114 S    
C25   H7    1.081563 S    
C4    C6    1.462807 S    
C9    N4    1.438584 S    
C3    C21   1.443325 S    
C7    C8    1.393727 A    
N5    O18   1.300557 A    
Cu2   O8    1.943237 S    
C13   C14   1.413411 A    
Cu1   O5    1.959449 S    
C8    C9    1.411933 A    
C28   N2    1.366666 A    
O2    C1    1.289581 A    
C30   O13   1.222931 D    
Cu1   Cu2   2.676467 S    
C6    C17   1.395679 A    
C19   N6    1.439281 S    
N1    C27   1.365907 A    
C15   H5    1.081170 S    
Cu1   O7    1.933671 S    
C26   N1    1.366783 A    
C14   C15   1.396120 A    
C21   C22   1.406731 A    
O3    Cu1   1.943236 S    
C19   C24   1.411913 A    
C7    H4    1.084053 S    
Cu1   N1    2.011370 S    
N6    O20   1.301383 A    
C28   H10   1.081787 S    
C2    C18   1.470786 S    
O8    C4    1.295279 A    
C1    C24   1.449555 S    
C5    C17   1.393570 A    
C29   O12   1.397385 S    
C10   C11   1.411917 A    
O4    C2    1.294569 A    
C19   C20   1.386869 A    
O7    C4    1.292478 A    
C10   C12   1.423363 A    
C5    C13   1.413843 A    
C23   C29   1.484011 S    
C27   C28   1.416167 A    
O12   H11   1.013925 S    
C30   O14   1.399523 S    
N3    O9    1.300900 A    
C11   C18   1.414205 A    
Cu2   N2    2.011211 S    
C25   N2    1.367148 A    
C6    C16   1.392151 A    
C12   C13   1.425475 A    
C8    N5    1.436881 S    
C12   C16   1.402141 A    
Cu2   O6    1.958949 S    
N5    O17   1.301283 A    
C27   H9    1.079766 S    
C20   C21   1.393753 A    
C23   C24   1.416151 A    
C5    H2    1.080043 S    
O5    C3    1.288396 A    
C29   O11   1.222886 D    
N6    O19   1.301521 A    
O1    Cu1   1.958949 S    
N4    O16   1.300301 A    
C22   N3    1.436899 S    
O1    C1    1.287936 A    
H1    C17   1.083447 S    
C9    C10   1.430148 A    
C7    C18   1.398500 A    
O3    C2    1.295184 A    
C16   H3    1.078871 S    
O2    Cu2   1.959451 S    
C25   C26   1.416360 A    
C20   H6    1.084757 S    
O14   H12   1.013906 S    
N3    O10   1.300541 A    
O6    C3    1.288351 A    
C22   C23   1.400814 A    
