data_mof_unit_1118.cif
_audit_creation_date              2013-03-05T15:57:39-0500
_audit_creation_method            fapswitch 2.2
_symmetry_space_group_name_H-M    P1
_symmetry_Int_Tables_number       1
_space_group_crystal_system       triclinic
_cell_length_a                    19.363952
_cell_length_b                    17.761905
_cell_length_c                    12.691729
_cell_angle_alpha                 89.965183
_cell_angle_beta                  99.149481
_cell_angle_gamma                 89.570013
_cell_volume                      4309.53421069

loop_
_atom_site_label
_atom_site_type_symbol
_atom_site_description
_atom_site_fract_x
_atom_site_fract_y
_atom_site_fract_z
_atom_type_partial_charge
O1    O     O_R   0.448200 0.076800 0.373930 -0.558952
O2    O     O_R   0.448200 0.923200 0.373930 -0.587882
O3    O     O_R   0.948200 0.576800 0.373930 -0.553095
O4    O     O_R   0.948200 0.423200 0.373930 -0.562366
O5    O     O_R   0.414750 0.076790 0.542400 -0.635586
O6    O     O_R   0.414750 0.923210 0.542400 -0.596982
O7    O     O_R   0.914750 0.576790 0.542400 -0.629072
O8    O     O_R   0.914750 0.423210 0.542400 -0.627301
C1    C     C_R   0.406508 0.098047 0.441222 0.905133
C2    C     C_R   0.411746 0.896874 0.444401 0.988185
C3    C     C_R   0.910591 0.602295 0.443939 0.908412
C4    C     C_R   0.910451 0.398095 0.443581 0.919272
Zn1   Zn    Zn3+2 0.522330 0.000000 0.387520 1.093198
Zn2   Zn    Zn3+2 0.022330 0.500000 0.387520 1.108596
Zn3   Zn    Zn3+2 0.477660 1.000000 0.612480 0.991143
Zn4   Zn    Zn3+2 0.977660 0.500000 0.612480 1.000491
O9    O     O_R   0.585240 0.923200 0.457600 -0.594195
O10   O     O_R   0.585240 0.076800 0.457600 -0.549068
O11   O     O_R   0.085240 0.423200 0.457600 -0.581727
O12   O     O_R   0.085240 0.576800 0.457600 -0.562954
O13   O     O_R   0.551780 0.923190 0.626070 -0.612399
O14   O     O_R   0.551780 0.076810 0.626070 -0.652561
O15   O     O_R   0.051780 0.423190 0.626070 -0.618001
O16   O     O_R   0.051780 0.576810 0.626070 -0.618990
C5    C     C_R   0.590885 0.899939 0.557709 0.941837
C6    C     C_R   0.589652 0.101398 0.556453 0.873189
C7    C     C_R   0.090946 0.398197 0.556512 0.930939
C8    C     C_R   0.090563 0.600837 0.556761 0.935008
C9    C     C_R   0.749209 0.178715 0.721625 0.337723
C10   C     C_R   0.737414 0.801055 0.733922 0.328199
C11   C     C_R   0.250210 0.679994 0.724706 0.338034
C12   C     C_R   0.166071 0.215168 0.680820 0.337854
H1    H     H_    0.662894 0.112903 0.756140 0.184197
H2    H     H_    0.653436 0.874416 0.762841 0.190100
H3    H     H_    0.161156 0.618005 0.758661 0.189283
H4    H     H_    0.112925 0.309904 0.738888 0.221418
H5    H     H_    0.384554 0.722868 0.738909 0.228113
H6    H     H_    0.218950 0.073309 0.656515 0.219792
H7    H     H_    0.882514 0.219164 0.730426 0.240025
H8    H     H_    0.872042 0.760937 0.743770 0.234986
C13   C     C_R   0.646438 0.152022 0.593406 -0.107639
C14   C     C_R   0.645104 0.845881 0.596092 -0.081393
C15   C     C_R   0.149360 0.649943 0.593111 -0.081208
C16   C     C_R   0.136786 0.331671 0.581779 -0.122407
C17   C     C_R   0.329265 0.837496 0.302978 -0.141169
C18   C     C_R   0.348987 0.192214 0.310542 -0.175046
C19   C     C_R   0.823489 0.345569 0.302121 -0.214680
C20   C     C_R   0.817160 0.650195 0.307017 -0.165350
C21   C     C_R   0.275853 0.787872 0.268906 -0.117484
C22   C     C_R   0.291690 0.236592 0.267992 -0.110732
C23   C     C_R   0.766011 0.301369 0.268367 -0.143687
C24   C     C_R   0.746641 0.667874 0.288578 -0.147152
C25   C     C_R   0.250882 0.740646 0.341748 0.323690
C26   C     C_R   0.233796 0.242982 0.321397 0.330490
C27   C     C_R   0.739191 0.254728 0.340095 0.329709
C28   C     C_R   0.714119 0.693326 0.372314 0.301397
C29   C     C_R   0.279067 0.745266 0.452728 -0.019480
C30   C     C_R   0.237970 0.208493 0.423451 -0.045030
C31   C     C_R   0.770871 0.253455 0.450349 -0.040749
C32   C     C_R   0.756366 0.716716 0.469648 -0.030488
C33   C     C_R   0.342544 0.784084 0.482185 -0.042645
C34   C     C_R   0.284550 0.147941 0.447449 -0.041955
C35   C     C_R   0.836864 0.288053 0.478450 -0.064092
C36   C     C_R   0.828725 0.700203 0.486959 -0.052494
C37   C     C_R   0.740227 0.220408 0.534105 0.067474
C38   C     C_R   0.729472 0.757618 0.549024 0.060249
C39   C     C_R   0.246725 0.714112 0.535608 0.055762
C40   C     C_R   0.200909 0.233045 0.504861 0.075903
C41   C     C_R   0.779430 0.212588 0.638676 -0.039515
C42   C     C_R   0.768159 0.764768 0.653279 -0.040354
C43   C     C_R   0.283087 0.710926 0.642262 -0.026103
C44   C     C_R   0.198048 0.186831 0.595396 -0.014082
C45   C     C_R   0.352674 0.734263 0.662538 -0.189244
C46   C     C_R   0.227081 0.113839 0.596356 -0.228773
C47   C     C_R   0.849276 0.233595 0.656300 -0.194508
C48   C     C_R   0.839326 0.746685 0.669333 -0.199964
C49   C     C_R   0.383522 0.768810 0.583140 0.307387
C50   C     C_R   0.266383 0.092086 0.517241 0.300147
C51   C     C_R   0.878910 0.269140 0.577064 0.320438
C52   C     C_R   0.871222 0.722196 0.584207 0.315437
C53   C     C_R   0.671006 0.196581 0.518072 -0.142591
C54   C     C_R   0.669988 0.801503 0.521472 -0.049461
C55   C     C_R   0.177771 0.689381 0.516034 -0.099498
C56   C     C_R   0.172981 0.305499 0.502474 -0.127653
C57   C     C_R   0.683725 0.145477 0.696401 -0.246832
C58   C     C_R   0.675478 0.842168 0.703724 -0.215866
C59   C     C_R   0.184337 0.647062 0.698047 -0.233097
C60   C     C_R   0.137461 0.288396 0.674085 -0.146194
C61   C     C_R   0.362633 0.836605 0.409297 -0.054895
C62   C     C_R   0.345510 0.145513 0.398811 -0.075198
C63   C     C_R   0.858487 0.340653 0.407080 -0.073382
C64   C     C_R   0.855720 0.657599 0.409316 -0.071002
H9    H     H_    0.344923 0.876138 0.245426 0.217171
H10   H     H_    0.394867 0.192183 0.271826 0.223832
H11   H     H_    0.840426 0.383693 0.245357 0.225937
H12   H     H_    0.838166 0.621001 0.245277 0.259041
C65   C     C_R   0.641729 0.980720 0.130021 -0.219794
C66   C     C_R   0.142377 0.487660 0.128912 -0.173011
N1    N     N_R   0.552340 1.000000 0.237260 -0.205700
N2    N     N_R   0.052340 0.500000 0.237260 -0.205895
C67   C     C_R   0.378399 0.995323 0.761949 0.021286
C68   C     C_R   0.878326 0.493256 0.761111 0.045415
C69   C     C_R   0.352598 0.985621 0.856504 -0.187537
C70   C     C_R   0.852763 0.482095 0.855653 -0.198541
C71   C     C_R   0.399207 0.984221 0.951527 -0.071779
C72   C     C_R   0.899397 0.481205 0.950837 -0.065878
C73   C     C_R   0.471309 0.996889 0.952517 0.045077
C74   C     C_R   0.971283 0.495609 0.952164 0.055535
C75   C     C_R   0.495146 0.999812 0.853210 0.247258
C76   C     C_R   0.995054 0.499889 0.853016 0.254424
C77   C     C_R   0.521124 0.000472 0.047029 -0.093111
C78   C     C_R   0.021091 0.499954 0.046680 -0.091179
C79   C     C_R   0.592880 0.991662 0.039121 0.063065
C80   C     C_R   0.092936 0.494684 0.038398 0.060148
C81   C     C_R   0.615167 0.992199 0.940251 -0.150900
C82   C     C_R   0.115122 0.495579 0.939527 -0.156137
C83   C     C_R   0.566732 0.999084 0.848455 -0.195677
C84   C     C_R   0.066538 0.500421 0.847919 -0.170630
C85   C     C_R   0.503312 0.012326 0.149395 0.329943
C86   C     C_R   0.003107 0.510469 0.149158 0.358625
C87   C     C_R   0.620147 0.980572 0.228949 0.428195
C88   C     C_R   0.121582 0.485958 0.228496 0.445985
N3    N     N_R   0.448170 1.000000 0.762060 -0.137958
N4    N     N_R   0.948170 0.500000 0.762060 -0.130635
H13   H     H_    0.670222 0.987652 0.933849 0.207006
H14   H     H_    0.170252 0.492948 0.932950 0.183978
H15   H     H_    0.696147 0.969495 0.124203 0.219800
H16   H     H_    0.197241 0.481170 0.122066 0.214117
N5    N     N_R   0.437667 0.045804 0.161727 0.202518
O17   O     O_R   0.391943 0.007421 0.203640 -0.389533
O18   O     O_R   0.418739 0.109246 0.114031 -0.385914
N6    N     N_R   0.937292 0.542825 0.161119 0.193092
O19   O     O_R   0.892099 0.503249 0.202228 -0.471751
O20   O     O_R   0.917832 0.606165 0.113428 -0.356810
H17   H     H_    0.343409 0.995769 0.687617 0.181383
H18   H     H_    0.843009 0.492672 0.685975 0.144225
H19   H     H_    0.378034 0.969077 0.021688 0.204440
H20   H     H_    0.878504 0.465065 0.020832 0.200425
H21   H     H_    0.297213 0.977268 0.855937 0.201352
H22   H     H_    0.797624 0.472051 0.854997 0.177923
H23   H     H_    0.586413 0.000280 0.774515 0.193094
H24   H     H_    0.086175 0.501300 0.773967 0.189897
N7    N     N_R   0.784815 0.175564 0.830059 0.213235
O21   O     O_R   0.813643 0.235801 0.875310 -0.366673
O22   O     O_R   0.778057 0.116937 0.889035 -0.343255
N8    N     N_R   0.769454 0.799297 0.844324 0.219353
O23   O     O_R   0.800219 0.738200 0.885297 -0.331642
O24   O     O_R   0.759351 0.854481 0.907691 -0.357018
N9    N     N_R   0.282963 0.680581 0.834680 0.213004
O25   O     O_R   0.310820 0.742150 0.877088 -0.361249
O26   O     O_R   0.274180 0.624379 0.896930 -0.366049
N10   N     N_R   0.161276 0.170781 0.773903 0.207572
O27   O     O_R   0.130501 0.105732 0.763999 -0.317386
O28   O     O_R   0.173986 0.201611 0.867903 -0.325966
H25   H     H_    0.635461 0.208810 0.445848 0.180757
H26   H     H_    0.646010 0.807203 0.439046 0.202400
H27   H     H_    0.145340 0.698186 0.439751 0.199865
H28   H     H_    0.179012 0.342318 0.437396 0.214370
N11   N     N_R   0.688137 0.201194 0.295007 0.182215
O29   O     O_R   0.703545 0.130028 0.303607 -0.326310
O30   O     O_R   0.634670 0.222854 0.225916 -0.382539
N12   N     N_R   0.639433 0.685535 0.361860 0.191269
O31   O     O_R   0.611656 0.657480 0.440020 -0.323402
O32   O     O_R   0.600017 0.697040 0.270100 -0.338975
N13   N     N_R   0.209634 0.678379 0.298477 0.183191
O33   O     O_R   0.240932 0.613785 0.294228 -0.318632
O34   O     O_R   0.151088 0.690734 0.234658 -0.365784
N14   N     N_R   0.168703 0.272983 0.265131 0.216780
O35   O     O_R   0.109579 0.253509 0.293348 -0.323841
O36   O     O_R   0.167031 0.306553 0.173546 -0.352325
H29   H     H_    0.254624 0.784953 0.184733 0.206202
H30   H     H_    0.292404 0.265222 0.192865 0.213070
H31   H     H_    0.742473 0.302816 0.185024 0.204183
H32   H     H_    0.715972 0.652768 0.212691 0.207588
N15   N     N_R   0.458147 0.778338 0.601141 0.201118
O37   O     O_R   0.491530 0.788537 0.697422 -0.365129
O38   O     O_R   0.493825 0.762421 0.525258 -0.378765
N16   N     N_R   0.273238 0.013416 0.492254 0.204498
O39   O     O_R   0.248630 0.962145 0.549262 -0.394015
O40   O     O_R   0.285135 0.994486 0.397720 -0.384566
N17   N     N_R   0.953351 0.277603 0.594024 0.207478
O41   O     O_R   0.986444 0.288207 0.690247 -0.389703
O42   O     O_R   0.988712 0.259852 0.518471 -0.373074
N18   N     N_R   0.946396 0.725072 0.595013 0.210780
O43   O     O_R   0.976015 0.745626 0.514539 -0.375811
O44   O     O_R   0.984817 0.718162 0.688519 -0.351529
N19   N     N_R   0.669585 0.956151 0.319008 0.228278
O45   O     O_R   0.688480 0.000941 0.399051 -0.304027
O46   O     O_R   0.707283 0.896180 0.310291 -0.394493
N20   N     N_R   0.174648 0.467743 0.318236 0.226401
O47   O     O_R   0.183342 0.509158 0.403136 -0.336873
O48   O     O_R   0.226797 0.424503 0.303399 -0.399380

loop_
_geom_bond_atom_site_label_1
_geom_bond_atom_site_label_2
_geom_bond_distance
_ccdc_geom_bond_type
C30   C34   1.400276 A    
C39   C55   1.393192 A    
N20   O47   1.294482 A    
C27   C31   1.435856 A    
C15   C55   1.387946 A    
C4    C63   1.461448 S    
C14   C54   1.375051 A    
O3    C3    1.313869 A    
C65   H15   1.084971 S    
C17   H9    1.081435 S    
C76   C84   1.396044 A    
C70   C72   1.388485 A    
N16   O39   1.302008 A    
C75   C83   1.397017 A    
N15   O38   1.301439 A    
C35   C51   1.418990 A    
N17   O41   1.300284 A    
H4    C60   1.081691 S    
O7    C3    1.319117 A    
C71   C73   1.413959 A    
N13   O33   1.298682 A    
Zn3   N3    2.067580 S    
Zn1   O10   1.953899 S    
N8    O23   1.301564 A    
N9    O26   1.301506 A    
C26   C30   1.422838 A    
C11   N9    1.438428 S    
C37   C41   1.426466 A    
N16   O40   1.301112 A    
C72   H20   1.072742 S    
C39   C43   1.423891 A    
C87   N19   1.433958 S    
C49   N15   1.437955 S    
N7    O21   1.301516 A    
C9    N7    1.438769 S    
C28   N12   1.438850 S    
N18   O43   1.301683 A    
C77   C85   1.411736 A    
H2    C58   1.082540 S    
C29   C33   1.411703 A    
C23   H31   1.083388 S    
O2    Zn1   1.975352 S    
H1    C57   1.082845 S    
C65   C87   1.384917 A    
C76   N4    1.350376 A    
O6    Zn3   1.953776 S    
H3    C59   1.082819 S    
C7    C16   1.476579 S    
C69   C71   1.386760 A    
Zn3   O14   1.975334 S    
N7    O22   1.301548 A    
N11   O29   1.297121 A    
C2    C61   1.459453 S    
C33   C49   1.420548 A    
N6    O19   1.298517 A    
C81   C83   1.379325 A    
O10   C6    1.318861 A    
N11   O30   1.301443 A    
C10   N8    1.439594 S    
C14   C58   1.400053 A    
H7    C47   1.081517 S    
C10   C58   1.399598 A    
O11   C7    1.319028 A    
C9    C57   1.393297 A    
O8    C4    1.321713 A    
N1    C87   1.375319 A    
C54   H26   1.079304 S    
C27   N11   1.429620 S    
C32   C38   1.405694 A    
O8    Zn4   1.953776 S    
C86   N6    1.424134 S    
C36   C52   1.426710 A    
N13   O34   1.301334 A    
C19   C63   1.397595 A    
C29   C39   1.420882 A    
C68   N4    1.356796 A    
C3    C64   1.456816 S    
C78   C80   1.414138 A    
C10   C42   1.416409 A    
C33   C61   1.412863 A    
C41   C47   1.389220 A    
C88   N20   1.442269 S    
N8    O24   1.301509 A    
C67   H17   1.070407 S    
C11   C59   1.399242 A    
C40   C56   1.390625 A    
Zn2   O12   1.953899 S    
O1    C1    1.318591 A    
O14   C6    1.311343 A    
C12   C44   1.421850 A    
O13   C5    1.304378 A    
N17   O42   1.301426 A    
C78   C86   1.411070 A    
C56   H28   1.074554 S    
N5    O17   1.300036 A    
C75   N3    1.353173 A    
C19   C23   1.378602 A    
O12   C8    1.317890 A    
C23   C27   1.393070 A    
C16   C56   1.392990 A    
C71   H19   1.072779 S    
C74   C78   1.417194 A    
C46   C50   1.405633 A    
Zn1   N1    2.080146 S    
O1    Zn1   1.960272 S    
C83   H23   1.067796 S    
O5    C1    1.323006 A    
C69   H21   1.082679 S    
C38   C54   1.383730 A    
C37   C53   1.392495 A    
N15   O37   1.301818 A    
C12   N10   1.435513 S    
C17   C21   1.380392 A    
C40   C44   1.420190 A    
O5    Zn3   1.940209 S    
C13   C53   1.384291 A    
C77   C79   1.416439 A    
C67   N3    1.353985 A    
N10   O27   1.300983 A    
C68   C70   1.383532 A    
O3    Zn2   1.960272 S    
C82   C84   1.376603 A    
N6    O20   1.301676 A    
N2    C86   1.360818 A    
C44   C46   1.408517 A    
O7    Zn4   1.940209 S    
N10   O28   1.301220 A    
Zn4   O15   1.960255 S    
O15   C7    1.326632 A    
C42   C48   1.395626 A    
O4    C4    1.313208 A    
C36   C64   1.405598 A    
C1    C62   1.475799 S    
C65   C79   1.383273 A    
O2    C2    1.312298 A    
C24   H32   1.083110 S    
C53   H25   1.076109 S    
C17   C61   1.400390 A    
O16   C8    1.316956 A    
C43   C45   1.397128 A    
N12   O31   1.301833 A    
H6    C46   1.079466 S    
C25   N13   1.427326 S    
C66   C88   1.386529 A    
H5    C45   1.081274 S    
N14   O35   1.301852 A    
N20   O48   1.301547 A    
C18   H10   1.081463 S    
C50   N16   1.442872 S    
C73   C77   1.416482 A    
Zn2   O11   1.940332 S    
C34   C50   1.412749 A    
C20   H12   1.071009 S    
C48   C52   1.395233 A    
C26   N14   1.444245 S    
C84   H24   1.067400 S    
C25   C29   1.429991 A    
C5    C14   1.443316 S    
O6    C2    1.321842 A    
C19   H11   1.078435 S    
C80   C82   1.389594 A    
C55   H27   1.077561 S    
Zn2   N2    2.080146 S    
C18   C62   1.404048 A    
C82   H14   1.084617 S    
C13   C57   1.393551 A    
C18   C22   1.392740 A    
C8    C15   1.455409 S    
C31   C35   1.415964 A    
C81   H13   1.084401 S    
C67   C69   1.382452 A    
Zn1   O9    1.940332 S    
C32   C36   1.411877 A    
N14   O36   1.301772 A    
O9    C5    1.323432 A    
Zn4   N4    2.067580 S    
C15   C59   1.395572 A    
N19   O45   1.298437 A    
C22   C26   1.403172 A    
N12   O32   1.302013 A    
N9    O25   1.301481 A    
C31   C37   1.425374 A    
C30   C40   1.415777 A    
C73   C75   1.410523 A    
Zn3   O13   1.960255 S    
C72   C74   1.414679 A    
C21   C25   1.392642 A    
C34   C62   1.416790 A    
C66   H16   1.084912 S    
C85   N5    1.430362 S    
C74   C76   1.409171 A    
N18   O44   1.301776 A    
N2    C88   1.383755 A    
C52   N18   1.441535 S    
O4    Zn2   1.975352 S    
C68   H18   1.081610 S    
N19   O46   1.301507 A    
C66   C80   1.378447 A    
C21   H29   1.083357 S    
N1    C85   1.361146 A    
C51   N17   1.432254 S    
C20   C24   1.381972 A    
C28   C32   1.432567 A    
C38   C42   1.419329 A    
Zn4   O16   1.975334 S    
C20   C64   1.397820 A    
H8    C48   1.081803 S    
C35   C63   1.412140 A    
C45   C49   1.394621 A    
C9    C41   1.418871 A    
C22   H30   1.082428 S    
C79   C81   1.390393 A    
C16   C60   1.399044 A    
C47   C51   1.388311 A    
C24   C28   1.392683 A    
C6    C13   1.445313 S    
C70   H22   1.082555 S    
C11   C43   1.420706 A    
N5    O18   1.301149 A    
C12   C60   1.407120 A    
