data_mof_unit_328.cif
_audit_creation_date              2012-10-26T20:51:07-0400
_audit_creation_method            fapswitch 2.2
_symmetry_space_group_name_H-M    P1
_symmetry_Int_Tables_number       1
_space_group_crystal_system       triclinic
_cell_length_a                    12.949841
_cell_length_b                    10.805451
_cell_length_c                    9.616339
_cell_angle_alpha                 88.728554
_cell_angle_beta                  94.839864
_cell_angle_gamma                 91.063667
_cell_volume                      1340.28729687

loop_
_atom_site_label
_atom_site_type_symbol
_atom_type_description
_atom_site_fract_x
_atom_site_fract_y
_atom_site_fract_z
_atom_type_partial_charge
C1    C     C_R   0.500343 0.262523 0.501123 0.535022
C2    C     C_R   0.563526 0.939248 0.406033 -0.137395
C3    C     C_R   0.506966 0.870634 0.500020 0.011863
C4    C     C_R   0.301130 0.501542 0.475251 0.571281
C5    C     C_R   0.459483 0.931774 0.602662 -0.004963
C6    C     C_3   0.349675 0.918968 0.635866 -0.249806
C7    C     C_3   0.347628 0.058631 0.636730 -0.291100
C8    C     C_R   0.566735 0.574530 0.078232 0.124215
C9    C     C_R   0.441465 0.418326 0.072531 -0.006693
C10   C     C_R   0.437271 0.419917 0.924215 0.081552
C11   C     C_R   0.569536 0.571926 0.932310 0.171737
C12   C     C_R   0.023578 0.557938 0.536509 0.057156
C13   C     C_3   0.587786 0.708880 0.919883 0.155961
C14   C     C_3   0.580284 0.713119 0.077751 0.152243
C15   C     C_R   0.501909 0.737295 0.499084 0.559415
C16   C     C_R   0.698686 0.502388 0.524616 0.544475
C17   C     C_R   0.810048 0.516575 0.535255 0.010472
C18   C     C_R   0.188943 0.494221 0.464032 0.019794
C19   C     C_R   0.033621 0.379956 0.385914 -0.157599
C20   C     C_R   0.139919 0.398380 0.386864 -0.200370
C21   C     C_R   0.131710 0.575317 0.538993 0.268181
C22   C     C_3   0.361018 0.327656 0.855470 -0.233345
C23   C     C_R   0.975229 0.458029 0.461272 0.006996
C24   C     C_3   0.249480 0.346904 0.894586 -0.325400
C25   C     C_3   0.169081 0.280139 0.796433 -0.450948
C26   C     C_3   0.701860 0.861750 0.856332 -0.144697
C27   C     C_3   0.396129 0.742976 0.073079 -0.098690
C28   C     C_3   0.193577 0.665918 0.744330 -0.147549
C29   C     C_R   0.868551 0.438914 0.460242 -0.125524
C30   C     C_R   0.856675 0.615710 0.608778 -0.146554
C31   C     C_R   0.962496 0.638061 0.607072 -0.131041
C32   C     C_R   0.458860 0.059396 0.605062 0.011545
C33   C     C_R   0.506386 0.129106 0.503965 0.012705
C34   C     C_R   0.562868 0.068549 0.407589 -0.156739
Cu1   Cu    Cu3+1 0.499990 0.499980 0.640670 0.946850
Cu2   Cu    Cu3+1 0.500010 0.500020 0.359330 0.937064
H1    H     H_    0.830733 0.363938 0.401146 0.108286
H2    H     H_    0.995623 0.718039 0.661174 0.143684
H3    H     H_    0.184634 0.335448 0.330534 0.117228
H4    H     H_    0.604391 0.120962 0.332071 0.131111
H5    H     H_    0.606293 0.893440 0.330670 0.156366
H6    H     H_    0.298554 0.878323 0.549361 0.188233
H7    H     H_    0.176406 0.310001 0.686539 0.160314
H8    H     H_    0.178883 0.178458 0.806747 0.145721
H9    H     H_    0.090030 0.302481 0.823811 0.151643
H10   H     H_    0.240891 0.311594 0.002425 0.145764
H11   H     H_    0.232318 0.446694 0.892068 0.153713
H12   H     H_    0.343416 0.875351 0.740599 0.132831
H13   H     H_    0.360144 0.328668 0.742317 0.221210
H14   H     H_    0.385999 0.234269 0.893157 0.110625
H15   H     H_    0.682575 0.917214 0.946556 0.125695
H16   H     H_    0.654213 0.890954 0.760146 0.131411
H17   H     H_    0.784218 0.881353 0.838964 0.133579
H18   H     H_    0.389666 0.698289 0.970165 0.059911
H19   H     H_    0.367296 0.678524 0.152843 0.182825
H20   H     H_    0.343597 0.823176 0.064114 0.120512
H21   H     H_    0.135003 0.604159 0.790266 0.099974
H22   H     H_    0.187055 0.758108 0.790923 0.113337
H23   H     H_    0.295376 0.099915 0.550966 0.129997
H24   H     H_    0.272599 0.632330 0.775504 0.157931
H25   H     H_    0.336911 0.092261 0.741853 0.129753
H26   H     H_    0.394327 0.353451 0.127856 0.128581
H27   H     H_    0.525610 0.758106 0.854943 0.141198
H28   H     H_    0.654703 0.740736 0.135893 0.135087
H29   H     H_    0.810470 0.678452 0.663035 0.160335
H30   H     H_    0.997177 0.304087 0.327205 0.118728
N1    N     N_R   0.500660 0.500930 0.148010 -0.261239
N2    N     N_R   0.500660 0.500890 0.852110 -0.262427
O1    O     O_R   0.500000 0.319640 0.618810 -0.520173
O2    O     O_3   0.497241 0.786583 0.117056 -0.581412
O3    O     O_3   0.179798 0.679848 0.597543 -0.589241
O4    O     O_R   0.500010 0.319680 0.381230 -0.512482
O5    O     O_R   0.348990 0.499960 0.599490 -0.513497
O6    O     O_R   0.349000 0.500000 0.361910 -0.524759
O7    O     O_R   0.499990 0.680320 0.618770 -0.509443
O8    O     O_R   0.500000 0.680360 0.381190 -0.466034
O9    O     O_R   0.651000 0.500000 0.638090 -0.470743
O10   O     O_R   0.651010 0.500040 0.400510 -0.505054
O11   O     O_3   0.689406 0.733743 0.882585 -0.589196

loop_
_geom_bond_atom_site_label_1
_geom_bond_atom_site_label_2
_ccdc_geom_bond_type
C15   O7    A    
C13   O11   S    
C18   C21   A    
C17   C29   A    
Cu1   Cu2   S    
C25   H7    S    
C27   H18   S    
C1    C33   S    
C28   H21   S    
C10   C22   S    
C12   C23   A    
Cu1   O7    S    
C6    H12   S    
C21   O3    S    
C34   H4    S    
C23   C29   A    
C30   C31   A    
C27   H19   S    
C2    H5    S    
C19   H30   S    
C16   O9    A    
C7    H25   S    
Cu2   O8    S    
C19   C20   A    
C16   C17   S    
C9    C10   A    
C4    O6    A    
C22   H14   S    
C5    C32   A    
C4    C18   S    
C2    C34   A    
C15   O8    A    
C13   C14   S    
C17   C30   A    
C14   O2    S    
C25   H8    S    
C7    H23   S    
C28   H24   S    
Cu2   N1    S    
C1    O4    A    
C9    H26   S    
C24   C25   S    
C20   H3    S    
C27   H20   S    
C12   C21   A    
Cu1   O9    S    
C1    O1    A    
C19   C23   A    
C9    N1    A    
C26   H16   S    
C13   H27   S    
C14   H28   S    
C33   C34   A    
C4    O5    A    
C27   O2    S    
Cu2   O6    S    
C22   H13   S    
C28   H22   S    
C12   C31   A    
C22   C24   S    
C28   O3    S    
C26   H17   S    
C25   H9    S    
C3    C15   S    
C11   N2    A    
C16   O10   A    
Cu1   O5    S    
C8    C14   S    
C7    C32   S    
C24   H11   S    
C3    C5    A    
C6    C7    S    
C10   N2    A    
C26   O11   S    
C31   H2    S    
C24   H10   S    
C32   C33   A    
C2    C3    A    
Cu2   O10   S    
C26   H15   S    
C11   C13   S    
C5    C6    S    
Cu1   N2    S    
C8    C11   A    
C18   C20   A    
C30   H29   S    
Cu1   O1    S    
C8    N1    A    
C6    H6    S    
C29   H1    S    
Cu2   O4    S    
