data_mof_unit_1220.cif
_audit_creation_date              2012-12-11T14:39:41-0500
_audit_creation_method            fapswitch 2.2
_symmetry_space_group_name_H-M    P1
_symmetry_Int_Tables_number       1
_space_group_crystal_system       monoclinic
_cell_length_a                    7.219378
_cell_length_b                    14.097344
_cell_length_c                    16.299579
_cell_angle_alpha                 90.0
_cell_angle_beta                  97.376376
_cell_angle_gamma                 90.0
_cell_volume                      1645.14571146

loop_
_atom_site_label
_atom_site_type_symbol
_atom_type_description
_atom_site_fract_x
_atom_site_fract_y
_atom_site_fract_z
_atom_type_partial_charge
O1    O     O_R   0.525340 0.338340 0.164530 -0.542408
O2    O     O_R   0.474660 0.661660 0.835470 -0.542408
O3    O     O_R   0.974660 0.838340 0.835470 -0.542408
O4    O     O_R   0.025340 0.161660 0.164530 -0.542408
O5    O     O_R   0.253520 0.352000 0.336710 -0.539427
O6    O     O_R   0.746480 0.648000 0.663290 -0.539427
O7    O     O_R   0.246480 0.852000 0.663290 -0.539427
O8    O     O_R   0.753520 0.148000 0.336710 -0.539427
O9    O     O_R   0.083330 0.168380 0.337300 -0.535463
O10   O     O_R   0.916670 0.831620 0.662700 -0.535463
O11   O     O_R   0.416670 0.668380 0.662700 -0.535463
O12   O     O_R   0.583330 0.331620 0.337300 -0.535463
C1    C     C_R   0.432317 0.368695 0.363670 0.689173
C2    C     C_R   0.567683 0.631304 0.636330 0.689173
C3    C     C_R   0.067683 0.868696 0.636330 0.689173
C4    C     C_R   0.932316 0.131304 0.363670 0.689173
O13   O     O_R   0.195840 0.349670 0.165140 -0.542236
O14   O     O_R   0.804160 0.650330 0.834860 -0.542236
O15   O     O_R   0.304160 0.849670 0.834860 -0.542237
O16   O     O_R   0.695840 0.150330 0.165140 -0.542237
C5    C     C_R   0.357192 0.371989 0.137695 0.738090
C6    C     C_R   0.642808 0.628011 0.862305 0.738090
C7    C     C_R   0.142808 0.871989 0.862305 0.738090
C8    C     C_R   0.857192 0.128011 0.137695 0.738090
O17   O     O_3   0.387830 0.193120 0.250910 -0.376186
O18   O     O_3   0.612170 0.806880 0.749090 -0.376186
O19   O     O_3   0.112170 0.693120 0.749090 -0.376186
O20   O     O_3   0.887830 0.306880 0.250910 -0.376186
V1    V     V_3+5 0.113010 0.264540 0.250910 1.402554
V2    V     V_3+5 0.886990 0.735460 0.749090 1.402554
V3    V     V_3+5 0.386990 0.764540 0.749090 1.402554
V4    V     V_3+5 0.613010 0.235460 0.250910 1.402554
H1    H     H_    0.157129 0.828482 0.265926 0.118238
H2    H     H_    0.842871 0.171518 0.734074 0.118239
H3    H     H_    0.342867 0.328483 0.734073 0.118238
H4    H     H_    0.657133 0.671517 0.265927 0.118238
C9    C     C_R   0.867856 0.185126 0.528066 -0.144784
C10   C     C_R   0.132144 0.814874 0.471934 -0.144784
C11   C     C_R   0.632143 0.685126 0.471934 -0.144784
C12   C     C_R   0.367857 0.314874 0.528066 -0.144784
C13   C     C_R   0.835534 0.212810 0.607044 -0.116367
C14   C     C_R   0.164466 0.787190 0.392956 -0.116367
C15   C     C_R   0.664467 0.712809 0.392956 -0.116366
C16   C     C_R   0.335533 0.287190 0.607044 -0.116366
C17   C     C_R   0.867483 0.149593 0.672749 -0.132505
C18   C     C_R   0.132517 0.850407 0.327251 -0.132505
C19   C     C_R   0.632519 0.649592 0.327251 -0.132505
C20   C     C_R   0.367480 0.350407 0.672748 -0.132505
C21   C     C_R   0.932190 0.058303 0.659937 -0.139731
C22   C     C_R   0.067810 0.941697 0.340062 -0.139731
C23   C     C_R   0.567812 0.558302 0.340063 -0.139731
C24   C     C_R   0.432188 0.441697 0.659937 -0.139731
C25   C     C_R   0.965290 0.028106 0.580255 0.062281
C26   C     C_R   0.034710 0.971894 0.419745 0.062281
C27   C     C_R   0.534710 0.528106 0.419745 0.062281
C28   C     C_R   0.465289 0.471894 0.580255 0.062281
C29   C     C_R   0.932478 0.092581 0.513113 0.056851
C30   C     C_R   0.067522 0.907418 0.486887 0.056851
C31   C     C_R   0.567521 0.592581 0.486887 0.056850
C32   C     C_R   0.432478 0.407418 0.513113 0.056850
C33   C     C_R   0.032791 0.935808 0.566909 -0.174429
C34   C     C_R   0.967209 0.064192 0.433091 -0.174429
C35   C     C_R   0.467209 0.435808 0.433091 -0.174429
C36   C     C_R   0.532790 0.564192 0.566909 -0.174429
H5    H     H_    0.842846 0.237322 0.479244 0.119100
H6    H     H_    0.157154 0.762678 0.520756 0.119100
H7    H     H_    0.657152 0.737322 0.520756 0.119099
H8    H     H_    0.342848 0.262677 0.479244 0.119099
H9    H     H_    0.786382 0.283845 0.617357 0.134874
H10   H     H_    0.213618 0.716155 0.382643 0.134874
H11   H     H_    0.713619 0.783845 0.382643 0.134874
H12   H     H_    0.286381 0.216155 0.617357 0.134874
H13   H     H_    0.138117 0.066175 0.056638 0.158380
H14   H     H_    0.861883 0.933825 0.943362 0.158380
H15   H     H_    0.361883 0.566175 0.943362 0.158380
H16   H     H_    0.638117 0.433825 0.056638 0.158380
C37   C     C_2   0.149943 0.942036 0.930592 -0.337465
C38   C     C_2   0.850057 0.057964 0.069408 -0.337465
C39   C     C_2   0.350057 0.442036 0.069408 -0.337465
C40   C     C_2   0.649943 0.557964 0.930592 -0.337465
C41   C     C_2   0.996125 0.965666 0.965477 -0.132587
C42   C     C_2   0.003875 0.034334 0.034522 -0.132587
C43   C     C_2   0.503875 0.465666 0.034522 -0.132588
C44   C     C_2   0.496125 0.534334 0.965477 -0.132588
H17   H     H_    0.716230 0.026151 0.046518 0.127657
H18   H     H_    0.283770 0.973849 0.953481 0.127657
H19   H     H_    0.783770 0.526150 0.953481 0.127657
H20   H     H_    0.216230 0.473849 0.046518 0.127657
H21   H     H_    0.956761 0.012051 0.713195 0.106390
H22   H     H_    0.043239 0.987949 0.286805 0.106390
H23   H     H_    0.543243 0.512050 0.286805 0.106390
H24   H     H_    0.456757 0.487950 0.713194 0.106390

loop_
_geom_bond_atom_site_label_1
_geom_bond_atom_site_label_2
_ccdc_geom_bond_type
O1    C5    A    
C12   C32   A    
C27   C31   A    
O13   V1    S    
O3    C7    A    
C40   C44   D    
O15   V3    S    
C41   C42   S    
C29   C34   A    
C31   C36   A    
C22   C26   A    
C32   C35   A    
O20   V1    S    
O9    C4    A    
C10   C14   A    
C40   H19   S    
O10   C3    A    
C26   C30   A    
O4    C8    A    
O11   C2    A    
H15   C44   S    
C14   H10   S    
H4    C19   S    
C14   C18   A    
O10   V2    S    
C23   H23   S    
C10   C30   A    
C25   C33   A    
C22   H22   S    
O16   C8    A    
C27   C35   A    
O2    C6    A    
C28   C36   A    
O14   V2    S    
C37   C41   D    
O5    C1    A    
O4    V1    S    
O9    V1    S    
C30   C33   A    
O7    C3    A    
O11   V3    S    
O18   V3    S    
O8    C4    A    
O12   V4    S    
O19   V2    S    
H1    C18   S    
C4    C34   S    
H3    C20   S    
H16   C43   S    
C39   H20   S    
O5    V1    S    
O7    V3    S    
O8    V4    S    
C10   H6    S    
C25   C29   A    
C19   C23   A    
C26   C34   A    
O1    V4    S    
O13   C5    A    
C28   C32   A    
C9    H5    S    
O2    V3    S    
O3    V2    S    
O15   C7    A    
O6    C2    A    
C38   C42   D    
C43   C44   S    
C1    C35   S    
C17   C21   A    
C11   C31   A    
C5    C39   S    
C3    C33   S    
H2    C17   S    
C7    C37   S    
C2    C36   S    
C38   H17   S    
C8    C38   S    
O6    V2    S    
C37   H18   S    
C24   H24   S    
H14   C41   S    
H13   C42   S    
C13   H9    S    
O16   V4    S    
C15   H11   S    
O14   C6    A    
C11   H7    S    
C21   H21   S    
C11   C15   A    
C18   C22   A    
C6    C40   S    
C39   C43   D    
O17   V4    S    
C21   C25   A    
C16   H12   S    
C23   C27   A    
C9    C13   A    
C16   C20   A    
C12   C16   A    
O12   C1    A    
C12   H8    S    
C13   C17   A    
C20   C24   A    
C15   C19   A    
C9    C29   A    
C24   C28   A    
