data_mof_unit_3376.cif
_audit_creation_date              2012-12-10T19:38:45-0500
_audit_creation_method            fapswitch 2.2
_symmetry_space_group_name_H-M    P1
_symmetry_Int_Tables_number       1
_space_group_crystal_system       triclinic
_cell_length_a                    10.617112
_cell_length_b                    15.861521
_cell_length_c                    17.014231
_cell_angle_alpha                 96.968073
_cell_angle_beta                  91.330336
_cell_angle_gamma                 92.997725
_cell_volume                      2838.93870281

loop_
_atom_site_label
_atom_site_type_symbol
_atom_type_description
_atom_site_fract_x
_atom_site_fract_y
_atom_site_fract_z
_atom_type_partial_charge
C1    C     C_R   0.500991 0.489089 0.348535 0.905928
C2    C     C_R   0.502889 0.511029 0.651556 0.906326
C3    C     C_R   0.505285 0.477323 0.096671 0.140560
C4    C     C_R   0.519522 0.535562 0.904531 0.060415
C5    C     C_R   0.421183 0.423373 0.132126 0.256830
C6    C     C_R   0.442822 0.587451 0.865287 0.272698
C7    C     C_R   0.423496 0.424475 0.215090 0.248922
C8    C     C_R   0.440295 0.580999 0.781835 0.259769
C9    C     C_R   0.428566 0.750724 0.468024 -0.120728
C10   C     C_R   0.579599 0.250459 0.526639 -0.155284
C11   C     C_R   0.426240 0.840008 0.474137 0.284587
C12   C     C_R   0.579892 0.160582 0.526647 0.294288
C13   C     C_R   0.519129 0.891374 0.522382 0.140155
C14   C     C_R   0.479077 0.108683 0.487318 0.120836
C15   C     C_R   0.603199 0.850027 0.567958 0.197048
C16   C     C_R   0.383500 0.148451 0.449941 0.246003
C17   C     C_R   0.603808 0.759471 0.558015 0.476349
C18   C     C_R   0.386996 0.237491 0.452111 0.461815
C19   C     C_R   0.259495 0.499681 0.499599 0.919419
C20   C     C_R   0.740560 0.500358 0.500950 0.867547
C21   C     C_3   0.034028 0.417194 0.494272 -0.392654
C22   C     C_3   0.966236 0.582767 0.506845 -0.385905
C23   C     C_3   0.951978 0.457285 0.433633 0.390083
C24   C     C_3   0.048069 0.542687 0.567347 0.401171
C25   C     C_3   0.876797 0.501395 0.501172 -0.149308
C26   C     C_3   0.123363 0.498640 0.499863 -0.158170
C27   C     C_3   0.958986 0.463085 0.561513 0.299582
C28   C     C_3   0.041167 0.536809 0.439451 0.324330
C29   C     C_R   0.507900 0.482125 0.262017 -0.253167
C30   C     C_R   0.510705 0.519330 0.738398 -0.322645
C31   C     C_R   0.598224 0.533090 0.226259 0.204955
C32   C     C_R   0.591308 0.468817 0.778254 0.283012
C33   C     C_R   0.596277 0.530930 0.143176 0.349374
C34   C     C_R   0.597589 0.478212 0.860866 0.361573
Cu1   Cu    Cu3+1 0.493870 0.415220 0.496180 0.981309
Cu2   Cu    Cu3+1 0.506130 0.584780 0.503820 1.031643
H1    H     H_    0.063736 0.350809 0.490773 0.202797
H2    H     H_    0.936496 0.649110 0.511534 0.185797
H3    H     H_    0.657040 0.290641 0.554738 0.195792
H4    H     H_    0.358675 0.711904 0.430588 0.199117
N1    N     N_2   0.500910 0.472239 0.012923 -0.167602
N2    N     N_2   0.517260 0.542658 0.988100 -0.125180
N3    N     N_R   0.515330 0.712130 0.509560 -0.219004
N4    N     N_R   0.484670 0.287870 0.490440 -0.257030
N5    N     N_2   0.528500 0.983222 0.531099 -0.121958
N6    N     N_2   0.471721 0.017038 0.478922 -0.138304
O1    O     O_R   0.494270 0.420530 0.382500 -0.569226
O2    O     O_R   0.505730 0.579470 0.617500 -0.492530
O3    O     O_R   0.504620 0.563720 0.388950 -0.580587
O4    O     O_R   0.495380 0.436280 0.611050 -0.596040
O5    O     O_R   0.311680 0.428420 0.496760 -0.592689
O6    O     O_R   0.688320 0.571580 0.503240 -0.553994
O7    O     O_R   0.322030 0.571610 0.503210 -0.560091
O8    O     O_R   0.677970 0.428390 0.496790 -0.576706
O9    O     O_3   0.890746 0.417776 0.363218 -0.617417
C35   C     C_3   0.971702 0.361501 0.321931 0.095942
H5    H     H_    0.987366 0.307012 0.355859 0.168336
H6    H     H_    0.064139 0.394493 0.311653 0.183923
C36   C     C_3   0.909331 0.327079 0.241822 -0.328577
H7    H     H_    0.813349 0.299142 0.251020 0.235884
H8    H     H_    0.899826 0.380209 0.205454 0.223082
C37   C     C_3   0.986069 0.258878 0.197390 -0.914552
H9    H     H_    0.082516 0.285067 0.187680 0.257422
H10   H     H_    0.939558 0.236554 0.138906 0.262092
H11   H     H_    0.992552 0.203742 0.231511 0.264159
O10   O     O_3   0.108088 0.584511 0.637284 -0.586647
C38   C     C_3   0.018405 0.619297 0.690418 0.113505
H12   H     H_    0.038995 0.598565 0.749215 0.158890
H13   H     H_    0.918350 0.597798 0.674091 0.157461
C39   C     C_3   0.031888 0.716349 0.697848 -0.348438
H14   H     H_    0.131350 0.738178 0.713967 0.237997
H15   H     H_    0.007229 0.737525 0.639901 0.218276
C40   C     C_3   0.945886 0.756836 0.760713 -0.941049
H16   H     H_    0.846020 0.734469 0.747116 0.268306
H17   H     H_    0.953940 0.827094 0.762223 0.257163
H18   H     H_    0.973795 0.740286 0.819982 0.265607
O11   O     O_3   0.687052 0.899359 0.620413 -0.587660
C41   C     C_3   0.649702 0.894996 0.699397 0.044997
H19   H     H_    0.731992 0.918405 0.739048 0.167833
H20   H     H_    0.625466 0.828705 0.711537 0.157314
C42   C     C_3   0.539242 0.951402 0.720907 -0.352234
H21   H     H_    0.563004 0.017137 0.707820 0.231798
H22   H     H_    0.453609 0.926280 0.685078 0.204893
C43   C     C_3   0.509309 0.953740 0.808390 -0.891213
H23   H     H_    0.483197 0.888630 0.822520 0.265593
H24   H     H_    0.428764 0.994466 0.822016 0.259027
H25   H     H_    0.592194 0.980556 0.846026 0.258126
O12   O     O_3   0.281919 0.099924 0.413141 -0.581073
C44   C     C_3   0.305959 0.081259 0.331772 0.110091
H26   H     H_    0.388708 0.040995 0.323464 0.158885
H27   H     H_    0.324438 0.140679 0.303964 0.159295
C45   C     C_3   0.190340 0.032545 0.290088 -0.316546
H28   H     H_    0.172612 0.971820 0.315480 0.236990
H29   H     H_    0.106385 0.071117 0.299986 0.226712
C46   C     C_3   0.208826 0.013067 0.201195 -0.908596
H30   H     H_    0.223522 0.073066 0.174217 0.258474
H31   H     H_    0.123586 0.977313 0.172853 0.261578
H32   H     H_    0.291529 0.973713 0.189803 0.266368
O13   O     O_3   0.691614 0.717363 0.597046 -0.714145
H33   H     H_    0.763065 0.757786 0.616197 0.318701
O14   O     O_3   0.289604 0.271166 0.413949 -0.721222
H34   H     H_    0.324851 0.320904 0.391006 0.385296
O15   O     O_3   0.911863 0.426073 0.626000 -0.752754
H35   H     H_    0.987283 0.413062 0.656764 0.339034
O16   O     O_3   0.089144 0.573516 0.374927 -0.729090
H36   H     H_    0.014555 0.592403 0.347131 0.343604
O17   O     O_3   0.670531 0.412406 0.739169 -0.669901
H37   H     H_    0.688509 0.429476 0.686457 0.348369
O18   O     O_3   0.691144 0.583658 0.270281 -0.717357
H38   H     H_    0.709170 0.559481 0.320057 0.340385
O19   O     O_3   0.684996 0.432572 0.896805 -0.663412
H39   H     H_    0.708566 0.462576 0.949983 0.356316
O20   O     O_3   0.685389 0.576988 0.105153 -0.700568
H40   H     H_    0.742671 0.612081 0.144269 0.375023
O21   O     O_3   0.339294 0.367251 0.084541 -0.588706
C47   C     C_3   0.223701 0.405849 0.075731 0.060367
H41   H     H_    0.238637 0.468211 0.052639 0.142807
H42   H     H_    0.176284 0.416042 0.133572 0.155504
C48   C     C_3   0.137855 0.347352 0.016936 -0.340915
H43   H     H_    0.184847 0.336540 0.959141 0.234025
H44   H     H_    0.121645 0.284898 0.039440 0.226151
C49   C     C_3   0.010962 0.385389 0.004252 -0.881377
H45   H     H_    0.963226 0.398838 0.061456 0.261269
H46   H     H_    0.949432 0.339693 0.963871 0.277208
H47   H     H_    0.024639 0.445075 0.976819 0.256606
O22   O     O_3   0.373152 0.646622 0.909193 -0.586027
C50   C     C_3   0.250161 0.610610 0.916809 0.060510
H48   H     H_    0.253053 0.558959 0.955368 0.154232
H49   H     H_    0.206576 0.584128 0.858115 0.142249
C51   C     C_3   0.167732 0.679741 0.954414 -0.339060
H50   H     H_    0.210794 0.708150 0.012427 0.241261
H51   H     H_    0.162816 0.730688 0.915154 0.218845
C52   C     C_3   0.034384 0.644270 0.967231 -0.905958
H52   H     H_    0.990623 0.612734 0.910531 0.256314
H53   H     H_    0.975471 0.696960 0.990537 0.270015
H54   H     H_    0.036696 0.597846 0.011029 0.261606
O23   O     O_3   0.342270 0.371903 0.252040 -0.742642
H55   H     H_    0.302129 0.327244 0.212348 0.350022
O24   O     O_3   0.367405 0.632211 0.741062 -0.682986
H56   H     H_    0.333465 0.677566 0.778482 0.347312
O25   O     O_3   0.684006 0.122032 0.554328 -0.560935
C53   C     C_3   0.727200 0.159252 0.630754 0.075718
H57   H     H_    0.732038 0.107335 0.668815 0.176431
H58   H     H_    0.663580 0.206026 0.660887 0.142195
C54   C     C_3   0.860626 0.199522 0.626169 -0.337560
H59   H     H_    0.923731 0.150257 0.600482 0.234062
H60   H     H_    0.860103 0.250459 0.586822 0.242471
C55   C     C_3   0.913032 0.237046 0.707959 -0.849552
H61   H     H_    0.853465 0.288171 0.733992 0.310199
H62   H     H_    0.010377 0.264548 0.702754 0.249331
H63   H     H_    0.916099 0.186810 0.748017 0.245041
O26   O     O_3   0.333308 0.875112 0.432236 -0.578174
C56   C     C_3   0.232441 0.897029 0.482566 0.097425
H64   H     H_    0.193685 0.955449 0.464067 0.210225
H65   H     H_    0.261785 0.913079 0.546363 0.118497
C57   C     C_3   0.127416 0.826163 0.473322 -0.404426
H66   H     H_    0.103964 0.807296 0.409384 0.249257
H67   H     H_    0.160130 0.769676 0.499017 0.229354
C58   C     C_3   0.008632 0.855505 0.515030 -0.865479
H68   H     H_    0.029436 0.874287 0.579235 0.254073
H69   H     H_    0.934346 0.803052 0.507917 0.257261
H70   H     H_    0.972014 0.910541 0.488816 0.274429

loop_
_geom_bond_atom_site_label_1
_geom_bond_atom_site_label_2
_ccdc_geom_bond_type
C13   N5    S    
C21   C26   S    
O14   H34   S    
C7    C29   A    
C40   H16   S    
C46   H30   S    
C43   H25   S    
O9    C35   S    
Cu1   O1    S    
C54   C55   S    
C50   H49   S    
C42   H21   S    
C46   H32   S    
C14   N6    S    
O11   C41   S    
C47   H41   S    
O22   C50   S    
C8    O24   S    
C57   H66   S    
C24   C26   S    
C41   H20   S    
C20   C25   S    
C3    C33   A    
O21   C47   S    
C22   H2    S    
C12   O25   S    
N1    N2    D    
C27   O15   S    
C19   C26   S    
C37   H10   S    
Cu2   O7    S    
C2    O4    A    
C54   H60   S    
C57   H67   S    
Cu1   Cu2   S    
C47   H42   S    
C32   O17   S    
C52   H54   S    
O17   H37   S    
C24   C27   S    
C39   H14   S    
C14   C16   A    
C44   H27   S    
Cu2   O6    S    
C24   O10   S    
C19   O7    A    
C23   C25   S    
O10   C38   S    
C21   C27   S    
C36   H7    S    
C56   H64   S    
C22   C28   S    
C5    O21   S    
Cu1   O8    S    
C34   O19   S    
C40   H17   S    
C53   C54   S    
Cu1   O4    S    
C1    C29   S    
C42   H22   S    
C54   H59   S    
C48   H44   S    
C4    C34   A    
C9    N3    A    
C36   H8    S    
C31   C33   A    
C10   N4    A    
C38   H12   S    
C47   C48   S    
C55   H63   S    
C43   H23   S    
C6    O22   S    
C20   O8    A    
C5    C7    A    
C41   H19   S    
C1    O1    A    
C6    C8    A    
C2    O2    A    
N5    N6    D    
C22   C25   S    
C9    H4    S    
C10   H3    S    
C38   H13   S    
C18   O14   S    
C32   C34   A    
C51   H51   S    
C17   N3    A    
C37   H9    S    
C18   N4    A    
C9    C11   A    
C58   H68   S    
C35   C36   S    
C28   O16   S    
O24   H56   S    
C39   C40   S    
C58   H69   S    
C31   O18   S    
C58   H70   S    
C16   C18   A    
C23   C28   S    
C55   H61   S    
C44   C45   S    
Cu1   N4    S    
C17   O13   S    
C10   C12   A    
C4    C6    A    
C12   C14   A    
C21   C23   S    
Cu1   O5    S    
C52   H52   S    
C40   H18   S    
C22   C24   S    
C51   C52   S    
C56   H65   S    
C35   H5    S    
C49   H46   S    
C50   H48   S    
C42   C43   S    
C7    O23   S    
O20   H40   S    
O23   H55   S    
C48   C49   S    
C15   C17   A    
C3    N1    S    
C36   C37   S    
O19   H39   S    
C26   C28   S    
C57   C58   S    
C55   H62   S    
C3    C5    A    
C48   H43   S    
C46   H31   S    
C23   O9    S    
C25   C27   S    
O16   H36   S    
C33   O20   S    
O13   H33   S    
C2    C30   S    
C38   C39   S    
C8    C30   A    
C49   H47   S    
C13   C15   A    
C51   H50   S    
C49   H45   S    
C50   C51   S    
C29   C31   A    
O18   H38   S    
C30   C32   A    
C11   C13   A    
C41   C42   S    
C45   H29   S    
C15   O11   S    
C4    N2    S    
C16   O12   S    
C56   C57   S    
C45   H28   S    
C37   H11   S    
C35   H6    S    
Cu2   O2    S    
C53   H58   S    
C45   C46   S    
C19   O5    A    
C11   O26   S    
C21   H1    S    
O12   C44   S    
C20   O6    A    
O15   H35   S    
C52   H53   S    
C53   H57   S    
C43   H24   S    
Cu2   N3    S    
C39   H15   S    
O26   C56   S    
C44   H26   S    
O25   C53   S    
C1    O3    A    
Cu2   O3    S    
