data_mof_unit_2303.cif
_audit_creation_date              2012-12-11T14:56:23-0500
_audit_creation_method            fapswitch 2.2
_symmetry_space_group_name_H-M    P1
_symmetry_Int_Tables_number       1
_space_group_crystal_system       triclinic
_cell_length_a                    10.655091
_cell_length_b                    10.966553
_cell_length_c                    17.053596
_cell_angle_alpha                 80.033975
_cell_angle_beta                  89.688834
_cell_angle_gamma                 120.552365
_cell_volume                      1679.87475855

loop_
_atom_site_label
_atom_site_type_symbol
_atom_type_description
_atom_site_fract_x
_atom_site_fract_y
_atom_site_fract_z
_atom_type_partial_charge
C1    C     C_R   0.223537 0.854711 0.128411 0.551205
C2    C     C_1   0.629326 0.290162 0.702904 -0.032864
C3    C     C_R   0.656482 0.734926 0.805864 -0.011857
C4    C     C_R   0.637195 0.280943 0.085663 0.534399
C5    C     C_R   0.603890 0.706379 0.732678 -0.008663
C6    C     C_R   0.654855 0.822824 0.665592 -0.013857
C7    C     C_R   0.723032 0.965521 0.677034 0.009323
C8    C     C_R   0.743440 0.988579 0.755602 0.182905
C9    C     C_R   0.699216 0.869515 0.820053 0.007154
C10   C     C_R   0.133971 0.925590 0.776378 0.005019
C11   C     C_R   0.159020 0.944206 0.694124 0.223663
C12   C     C_R   0.794831 0.400192 0.266466 -0.135618
C13   C     C_R   0.158562 0.832776 0.662183 0.023681
C14   C     C_R   0.178216 0.730580 0.711548 -0.042130
C15   C     C_R   0.181031 0.728344 0.793502 -0.137541
C16   C     C_R   0.643666 0.856279 0.124021 0.547702
C17   C     C_R   0.159517 0.825642 0.826407 -0.030623
C18   C     C_R   0.711903 0.773743 0.353236 0.555087
C19   C     C_R   0.689799 0.397957 0.394265 0.527906
C20   C     C_R   0.102581 0.810954 0.359290 0.537569
C21   C     C_R   0.676153 0.796425 0.586937 0.551684
C22   C     C_R   0.672119 0.369628 0.621571 0.542967
C23   C     C_R   0.788022 0.392212 0.187282 -0.148459
C24   C     C_R   0.099812 0.805239 0.585634 0.550991
C25   C     C_R   0.218107 0.860528 0.901736 0.538348
C26   C     C_R   0.611530 0.216350 0.860093 0.594791
C27   C     C_R   0.648233 0.871757 0.898070 0.561678
C28   C     C_R   0.536165 0.341663 0.197796 0.003170
C29   C     C_R   0.544153 0.346238 0.279275 -0.110666
C30   C     C_R   0.671188 0.371025 0.313879 0.013372
C31   C     C_3   0.399812 0.322691 0.159747 -0.259370
C32   C     C_3   0.323015 0.389092 0.196365 -0.438526
C33   C     C_3   0.232336 0.649699 0.675438 -0.293305
C34   C     C_R   0.656000 0.349931 0.154134 0.022417
C35   C     C_3   0.128045 0.486927 0.700362 -0.381487
C36   C     C_3   0.695731 0.638185 0.862358 -0.260412
C37   C     C_3   0.580883 0.538972 0.933621 -0.394745
C38   C     C_3   0.467708 0.561056 0.734197 -0.279827
C39   C     C_3   0.499385 0.443994 0.746623 -0.426213
C40   C     C_3   0.759440 0.088345 0.606564 -0.235195
C41   C     C_3   0.619861 0.067835 0.571032 -0.424179
C42   C     C_3   0.059666 0.996070 0.809087 -0.200054
C43   C     C_3   0.160284 0.156006 0.811128 -0.341326
C44   C     C_1   0.685676 0.832582 0.201278 -0.040170
C45   C     C_1   0.704562 0.808764 0.269960 -0.039121
C46   C     C_1   0.181045 0.826416 0.211223 -0.043576
C47   C     C_1   0.151379 0.821813 0.279724 -0.039915
C48   C     C_1   0.616153 0.248276 0.774453 -0.000208
Cl1   Cl    Cl    0.199944 0.112410 0.633750 -0.645903
Cl2   Cl    Cl    0.855857 0.165512 0.771460 -0.708295
Cr1   Cr    Cr6+3 0.402240 0.783890 0.019450 0.994940
Cr2   Cr    Cr6+3 0.382360 0.097900 0.991800 0.965460
Cr3   Cr    Cr6+3 0.715380 0.118170 0.988700 1.049930
Cr4   Cr    Cr6+3 0.936650 0.882420 0.465510 1.057403
Cr5   Cr    Cr6+3 0.605770 0.565620 0.493360 1.042913
Cr6   Cr    Cr6+3 0.921340 0.550490 0.496380 1.000857
H1    H     H_    0.210869 0.657800 0.830159 0.148888
H2    H     H_    0.015886 0.458909 0.686914 0.240749
H3    H     H_    0.163061 0.429782 0.666288 0.159436
H4    H     H_    0.125981 0.449704 0.765421 0.169861
H5    H     H_    0.255768 0.681158 0.609254 0.167610
H6    H     H_    0.340295 0.689299 0.696124 0.135545
H7    H     H_    0.467516 0.498421 0.917597 0.155221
H8    H     H_    0.594964 0.446471 0.955330 0.174865
H9    H     H_    0.598690 0.595120 0.984322 0.158692
H10   H     H_    0.722450 0.574389 0.829411 0.154513
H11   H     H_    0.799891 0.706610 0.886554 0.116275
H12   H     H_    0.452922 0.332034 0.316113 0.141997
H13   H     H_    0.615886 0.493419 0.724595 0.173038
H14   H     H_    0.479769 0.396295 0.810747 0.163676
H15   H     H_    0.427420 0.359435 0.713438 0.184835
H16   H     H_    0.384964 0.538301 0.783345 0.133269
H17   H     H_    0.415719 0.553880 0.678465 0.189711
H18   H     H_    0.567984 0.971067 0.543541 0.145601
H19   H     H_    0.539468 0.055220 0.618222 0.160659
H20   H     H_    0.646903 0.162981 0.523630 0.178400
H21   H     H_    0.816202 0.193618 0.624259 0.226185
H22   H     H_    0.837731 0.098191 0.559458 0.179541
H23   H     H_    0.898389 0.429670 0.290256 0.151314
H24   H     H_    0.272473 0.180665 0.819856 0.181465
H25   H     H_    0.163579 0.225855 0.754909 0.201231
H26   H     H_    0.118620 0.183332 0.861118 0.149781
H27   H     H_    0.974937 0.985731 0.770002 0.193641
H28   H     H_    0.002323 0.935917 0.869960 0.136430
H29   H     H_    0.883733 0.407928 0.153885 0.140587
H30   H     H_    0.258641 0.319719 0.254480 0.149500
H31   H     H_    0.404170 0.499176 0.205285 0.187555
H32   H     H_    0.245436 0.397090 0.155565 0.141621
H33   H     H_    0.431433 0.377292 0.095641 0.151501
H34   H     H_    0.320084 0.205662 0.163879 0.189115
O1    O     O_R   0.521780 0.757110 0.108900 -0.526195
O2    O     O_R   0.805020 0.410040 0.421340 -0.533106
O3    O     O_R   0.049240 0.685450 0.403290 -0.501880
O4    O     O_R   0.275160 0.783810 0.101120 -0.493305
O5    O     O_R   0.077520 0.903010 0.551800 -0.443651
O6    O     O_R   0.802980 0.872780 0.546830 -0.485072
O7    O     O_R   0.578090 0.681300 0.569920 -0.528148
O8    O     O_R   0.608530 0.436370 0.586530 -0.476446
O9    O     O_R   0.798770 0.401880 0.597100 -0.527112
O10   O     O_R   0.043450 0.677890 0.566230 -0.509960
O11   O     O_3   0.821250 0.666180 0.485090 -0.285384
O12   O     O_R   0.513330 0.228330 0.898660 -0.555196
O13   O     O_R   0.237900 0.972600 0.090980 -0.519934
O14   O     O_R   0.511190 0.220540 0.061620 -0.523269
O15   O     O_R   0.736920 0.257720 0.063840 -0.516586
O16   O     O_R   0.710450 0.984050 0.081720 -0.493904
O17   O     O_R   0.524090 0.765520 0.933110 -0.530717
O18   O     O_R   0.277300 0.791600 0.938160 -0.506930
O19   O     O_R   0.240210 0.981010 0.915190 -0.528610
O20   O     O_R   0.739230 0.266130 0.888050 -0.459163
O21   O     O_R   0.712580 0.991850 0.918770 -0.465370
O22   O     O_3   0.499990 0.999980 0.999980 -0.270891
O23   O     O_R   0.083770 0.911170 0.376030 -0.514741
O24   O     O_R   0.808770 0.880340 0.383890 -0.493016
O25   O     O_R   0.584340 0.689460 0.394160 -0.505067
O26   O     O_R   0.614320 0.443940 0.423590 -0.511083

loop_
_geom_bond_atom_site_label_1
_geom_bond_atom_site_label_2
_ccdc_geom_bond_type
Cr3   O20   S    
C8    C9    A    
C20   O3    A    
C12   H23   S    
Cr2   O13   S    
Cr1   O22   S    
C22   O8    A    
C10   C42   S    
C11   C13   A    
Cr4   O11   S    
C18   O24   A    
C14   C33   S    
C36   H11   S    
C7    C8    A    
C3    C36   S    
C16   O16   A    
C12   C23   A    
Cr2   O12   S    
C35   H2    S    
C11   Cl1   S    
C19   O26   A    
C36   C37   S    
Cr6   O11   S    
C38   C39   S    
C36   H10   S    
C1    C46   S    
Cr5   O26   S    
Cr2   O22   S    
C10   C17   A    
C32   H32   S    
Cr4   O23   S    
C4    O14   A    
C1    O13   A    
C35   H3    S    
C19   O2    A    
Cr1   O1    S    
C41   H18   S    
Cr3   O16   S    
Cr2   O14   S    
Cr1   O18   S    
C31   H33   S    
C37   H9    S    
C2    C22   S    
C7    C40   S    
C16   C44   S    
Cr4   O6    S    
C25   O19   A    
Cr3   O21   S    
C27   O21   A    
C13   C14   A    
C15   H1    S    
C37   H7    S    
C4    C34   S    
Cr6   O3    S    
C38   H16   S    
C42   H28   S    
C24   O5    A    
C33   H6    S    
C2    C48   T    
C43   H24   S    
C6    C21   S    
C13   C24   S    
C35   H4    S    
C29   C30   A    
C3    C9    A    
C41   H19   S    
C29   H12   S    
C21   O7    A    
C31   C32   S    
C14   C15   A    
C27   O17   A    
C31   H34   S    
C32   H30   S    
Cr5   O7    S    
C39   H13   S    
Cr4   O5    S    
Cr3   O22   S    
C33   H5    S    
C40   C41   S    
C43   H25   S    
C40   H22   S    
C42   C43   S    
Cr6   O10   S    
C18   C45   S    
C8    Cl2   S    
C37   H8    S    
C44   C45   T    
C9    C27   S    
C15   C17   A    
C26   O20   A    
C46   C47   T    
C28   C29   A    
C23   C34   A    
C22   O9    A    
C12   C30   A    
C24   O10   A    
C28   C31   S    
C42   H27   S    
C3    C5    A    
C18   O25   A    
C1    O4    A    
C6    C7    A    
C21   O6    A    
C26   C48   S    
C4    O15   A    
Cr5   O11   S    
C17   C25   S    
C26   O12   A    
C41   H20   S    
C32   H31   S    
C5    C6    A    
Cr5   O25   S    
Cr2   O19   S    
Cr4   O24   S    
Cr5   O8    S    
C33   C35   S    
C39   H14   S    
C20   O23   A    
C20   C47   S    
C10   C11   A    
Cr1   O4    S    
C28   C34   A    
Cr3   O15   S    
Cr6   O2    S    
C16   O1    A    
Cr1   O17   S    
C23   H29   S    
C43   H26   S    
C39   H15   S    
C40   H21   S    
Cr6   O9    S    
C5    C38   S    
C19   C30   S    
C25   O18   A    
C38   H17   S    
