data_mof_unit_1821.cif
_audit_creation_date              2012-12-10T16:48:40-0500
_audit_creation_method            fapswitch 2.2
_symmetry_space_group_name_H-M    P1
_symmetry_Int_Tables_number       1
_space_group_crystal_system       triclinic
_cell_length_a                    7.812608
_cell_length_b                    8.632698
_cell_length_c                    10.767826
_cell_angle_alpha                 88.289124
_cell_angle_beta                  99.996631
_cell_angle_gamma                 92.820154
_cell_volume                      714.164539478

loop_
_atom_site_label
_atom_site_type_symbol
_atom_type_description
_atom_site_fract_x
_atom_site_fract_y
_atom_site_fract_z
_atom_type_partial_charge
C1    C     C_R   0.542856 0.793869 0.495677 0.900702
C2    C     C_2   0.446873 0.044806 0.525650 -0.238667
C3    C     C_3   0.632774 0.680323 0.093358 -0.867459
C4    C     C_3   0.367215 0.319685 0.906634 -0.867448
C5    C     C_3   0.187305 0.509749 0.071475 -0.962536
C6    C     C_3   0.812696 0.490241 0.928528 -0.962531
C7    C     C_1   0.655403 0.008549 0.378889 0.216201
C8    C     C_1   0.344582 0.991450 0.621105 0.216206
C9    C     C_R   0.457144 0.206131 0.504324 0.900704
C10   C     C_R   0.573769 0.488063 0.735990 0.910967
C11   C     C_R   0.426231 0.511936 0.264010 0.910975
C12   C     C_2   0.623596 0.479422 0.871996 0.002580
C13   C     C_2   0.376406 0.520573 0.128004 0.002582
C14   C     C_2   0.498955 0.454003 0.942231 0.204549
C15   C     C_2   0.501045 0.545995 0.057768 0.204546
C16   C     C_2   0.553124 0.955194 0.474350 -0.238660
H1    H     H_    0.984814 0.385333 0.407402 0.202541
H2    H     H_    0.166846 0.551415 0.971834 0.267730
H3    H     H_    0.135600 0.388534 0.079827 0.256219
H4    H     H_    0.885560 0.412876 0.877946 0.262945
H5    H     H_    0.864409 0.611452 0.920165 0.256219
H6    H     H_    0.833152 0.448593 0.028174 0.267730
H7    H     H_    0.015186 0.614667 0.592598 0.202541
H8    H     H_    0.650680 0.750436 0.008111 0.241126
H9    H     H_    0.586478 0.760762 0.157877 0.229517
H10   H     H_    0.759195 0.638236 0.142241 0.252984
H11   H     H_    0.349301 0.249566 0.991877 0.241124
H12   H     H_    0.240799 0.361787 0.857752 0.252985
H13   H     H_    0.413501 0.239247 0.842109 0.229516
H14   H     H_    0.114435 0.587099 0.122067 0.262946
N1    N     N_2   0.940600 0.458860 0.467170 -0.171456
N2    N     N_2   0.059400 0.541140 0.532830 -0.171456
N3    N     N_1   0.736566 0.050564 0.303042 -0.208284
N4    N     N_1   0.263408 0.949434 0.696944 -0.208285
O1    O     O_R   0.391630 0.738350 0.508060 -0.603282
O2    O     O_R   0.608370 0.261650 0.491940 -0.603282
O3    O     O_R   0.674540 0.711990 0.487010 -0.621029
O4    O     O_R   0.325460 0.288010 0.512990 -0.621030
O5    O     O_R   0.411370 0.508250 0.688780 -0.613089
O6    O     O_R   0.588630 0.491750 0.311220 -0.613088
O7    O     O_R   0.694270 0.481880 0.667740 -0.615809
O8    O     O_R   0.305730 0.518120 0.332260 -0.615811
Zn1   Zn    Zn3+2 0.311100 0.517600 0.514050 0.953533
Zn2   Zn    Zn3+2 0.688900 0.482400 0.485950 0.953535

loop_
_geom_bond_atom_site_label_1
_geom_bond_atom_site_label_2
_ccdc_geom_bond_type
C9    O2    A    
C5    H3    S    
C2    C16   D    
C6    H4    S    
C5    C13   S    
C4    H13   S    
C1    O3    A    
H7    N2    S    
C4    H11   S    
O3    Zn2   S    
O4    Zn1   S    
C1    C16   S    
C8    N4    T    
C6    H5    S    
C10   O7    A    
C4    C14   S    
C11   C13   S    
C3    H8    S    
C10   C12   S    
C9    O4    A    
C4    H12   S    
N2    Zn1   S    
C12   C14   D    
C13   C15   D    
C6    C12   S    
C11   O6    A    
H1    N1    S    
O7    Zn2   S    
O2    Zn2   S    
N1    Zn2   S    
C7    N3    T    
C6    H6    S    
O1    Zn1   S    
O6    Zn2   S    
C3    H9    S    
C3    C15   S    
C1    O1    A    
C11   O8    A    
C5    H14   S    
O8    Zn1   S    
C14   C15   S    
C7    C16   S    
O5    Zn1   S    
C5    H2    S    
C2    C9    S    
C3    H10   S    
C2    C8    S    
N1    N2    D    
C10   O5    A    
