data_mof_unit_3446.cif
_audit_creation_date              2012-12-10T17:43:42-0500
_audit_creation_method            fapswitch 2.2
_symmetry_space_group_name_H-M    P1
_symmetry_Int_Tables_number       1
_space_group_crystal_system       triclinic
_cell_length_a                    14.973959
_cell_length_b                    10.62164
_cell_length_c                    9.924396
_cell_angle_alpha                 89.939574
_cell_angle_beta                  89.735119
_cell_angle_gamma                 91.638434
_cell_volume                      1577.7920454

loop_
_atom_site_label
_atom_site_type_symbol
_atom_type_description
_atom_site_fract_x
_atom_site_fract_y
_atom_site_fract_z
_atom_type_partial_charge
C1    C     C_R   0.501951 0.260727 0.500064 0.845310
C2    C     C_R   0.183751 0.442287 0.603927 -0.182291
C3    C     C_R   0.231523 0.502602 0.500792 -0.105088
C4    C     C_R   0.327008 0.499795 0.500294 0.866559
C5    C     C_R   0.188889 0.567119 0.398610 -0.174350
C6    C     C_R   0.654491 0.137198 0.614306 -0.174084
C7    C     C_R   0.726451 0.074413 0.668913 -0.118719
C8    C     C_R   0.726733 0.943380 0.668226 -0.096852
C9    C     C_R   0.655044 0.874759 0.613017 -0.149247
C10   C     C_R   0.581192 0.937124 0.558278 0.094899
C11   C     C_R   0.580962 0.069052 0.558784 0.099851
C12   C     C_R   0.909723 0.582088 0.400730 -0.015785
C13   C     C_R   0.507742 0.128600 0.499796 -0.081261
C14   C     C_R   0.438368 0.061818 0.437221 -0.204981
C15   C     C_R   0.438491 0.933150 0.437000 -0.180520
C16   C     C_R   0.502244 0.739373 0.499836 0.882229
C17   C     C_R   0.508047 0.871876 0.499196 -0.088782
C18   C     C_R   0.383642 0.333861 0.140802 -0.153496
C19   C     C_R   0.326676 0.251599 0.071053 -0.141808
C20   C     C_R   0.326848 0.251480 0.931579 -0.122139
C21   C     C_R   0.383784 0.333850 0.860996 -0.160197
C22   C     C_R   0.442790 0.418027 0.928194 0.173156
C23   C     C_R   0.948630 0.382890 0.704190 -0.225502
C24   C     C_R   0.442791 0.418032 0.072719 0.167454
C25   C     C_R   0.554338 0.578905 0.070910 -0.069785
C26   C     C_R   0.554460 0.578724 0.927905 -0.098744
C27   C     C_R   0.673091 0.504742 0.499682 0.907780
C28   C     C_R   0.816340 0.584880 0.402636 0.345299
C29   C     C_R   0.769025 0.512703 0.499684 -0.144951
C30   C     C_R   0.813091 0.447322 0.600004 -0.285675
C31   C     C_R   0.905189 0.448065 0.602545 0.071469
C32   C     C_R   0.954041 0.513496 0.501521 0.009442
C33   C     C_R   0.041233 0.381174 0.707009 0.392452
C34   C     C_R   0.091093 0.444092 0.605320 0.048442
C35   C     C_R   0.047199 0.510392 0.501775 -0.015533
C36   C     C_R   0.096475 0.573240 0.398392 0.043330
C37   C     C_R   0.052232 0.640584 0.297774 0.364013
C38   C     C_R   0.959726 0.645390 0.300253 -0.175191
Cl1   Cl    Cl    0.759119 0.685162 0.291034 -0.654872
Cl2   Cl    Cl    0.091241 0.298250 0.839597 -0.620205
Cl3   Cl    Cl    0.109454 0.720806 0.165981 -0.586897
H1    H     H_    0.657663 0.238870 0.614267 0.145887
H2    H     H_    0.379446 0.329014 0.754165 0.198898
H3    H     H_    0.775370 0.394482 0.675839 0.165189
H4    H     H_    0.598978 0.643163 0.873827 0.155076
H5    H     H_    0.910475 0.333207 0.781815 0.180748
H6    H     H_    0.219538 0.392528 0.681060 0.191527
H7    H     H_    0.228729 0.614138 0.321254 0.207653
H8    H     H_    0.927756 0.697562 0.221191 0.235798
H9    H     H_    0.383236 0.109588 0.390935 0.143779
H10   H     H_    0.782482 0.127623 0.710741 0.147298
H11   H     H_    0.782983 0.894747 0.709521 0.157876
H12   H     H_    0.658793 0.773254 0.611899 0.146978
H13   H     H_    0.383398 0.880958 0.390687 0.163552
H14   H     H_    0.598466 0.643813 0.123991 0.202856
H15   H     H_    0.379197 0.328790 0.247665 0.198495
H16   H     H_    0.282012 0.187696 0.125746 0.172809
H17   H     H_    0.282404 0.187401 0.877518 0.192583
N1    N     N_R   0.499150 0.498800 0.142780 -0.127827
N2    N     N_R   0.499120 0.498720 0.857170 -0.124099
O1    O     O_R   0.500000 0.316780 0.614690 -0.644528
O2    O     O_R   0.499990 0.316750 0.385360 -0.631527
O3    O     O_R   0.367850 0.499980 0.614680 -0.626761
O4    O     O_R   0.367840 0.499960 0.385350 -0.641471
O5    O     O_R   0.500010 0.683250 0.614640 -0.619986
O6    O     O_R   0.500000 0.683220 0.385310 -0.596758
O7    O     O_R   0.632160 0.500040 0.614650 -0.643351
O8    O     O_R   0.632150 0.500020 0.385320 -0.562356
Zn1   Zn    Zn3+2 0.500010 0.500020 0.653130 0.946365
Zn2   Zn    Zn3+2 0.499990 0.499980 0.346870 0.980564

loop_
_geom_bond_atom_site_label_1
_geom_bond_atom_site_label_2
_ccdc_geom_bond_type
C28   Cl1   S    
C15   H13   S    
C6    C7    A    
C27   O8    A    
O4    Zn2   S    
C2    H6    S    
C27   C29   S    
C9    C10   A    
C4    O4    A    
C10   C17   A    
C31   C32   A    
C27   O7    A    
C18   H15   S    
C38   H8    S    
C1    O2    A    
C2    C34   A    
C33   C34   A    
O3    Zn1   S    
C7    H10   S    
C7    C8    A    
C23   H5    S    
O6    Zn2   S    
C13   C14   A    
C19   H16   S    
O7    Zn1   S    
C12   C38   A    
C11   C13   A    
C4    O3    A    
C30   H3    S    
C29   C30   A    
C16   O6    A    
N2    Zn1   S    
C12   C28   A    
C24   N1    A    
C18   C24   A    
C12   C32   A    
C36   C37   A    
C37   C38   A    
C2    C3    A    
C3    C5    A    
C37   Cl3   S    
C22   N2    A    
C30   C31   A    
C5    H7    S    
C22   C24   A    
C33   Cl2   S    
C1    C13   S    
C10   C11   A    
C14   H9    S    
N1    Zn2   S    
C20   H17   S    
C3    C4    S    
C5    C36   A    
C25   H14   S    
C9    H12   S    
C20   C21   A    
O2    Zn2   S    
O8    Zn2   S    
C34   C35   A    
C6    H1    S    
O1    Zn1   S    
C6    C11   A    
C15   C17   A    
C18   C19   A    
C8    H11   S    
C14   C15   A    
C28   C29   A    
C16   O5    A    
C25   N1    A    
C26   H4    S    
O5    Zn1   S    
C25   C26   A    
C21   C22   A    
C26   N2    A    
C21   H2    S    
C32   C35   A    
C19   C20   A    
C16   C17   S    
C23   C31   A    
C8    C9    A    
C23   C33   A    
C35   C36   A    
C1    O1    A    
