data_mof_unit_534.cif
_audit_creation_date              2012-12-10T17:05:22-0500
_audit_creation_method            fapswitch 2.2
_symmetry_space_group_name_H-M    P1
_symmetry_Int_Tables_number       1
_space_group_crystal_system       triclinic
_cell_length_a                    10.028445
_cell_length_b                    10.646301
_cell_length_c                    15.576821
_cell_angle_alpha                 90.144861
_cell_angle_beta                  68.474853
_cell_angle_gamma                 90.347694
_cell_volume                      1547.05558363

loop_
_atom_site_label
_atom_site_type_symbol
_atom_type_description
_atom_site_fract_x
_atom_site_fract_y
_atom_site_fract_z
_atom_type_partial_charge
C1    C     C_R   0.500547 0.737700 0.500100 0.927945
C2    C     C_R   0.737382 0.514227 0.032367 0.156701
C3    C     C_R   0.589209 0.513567 0.086179 0.042043
C4    C     C_R   0.411025 0.498373 0.675413 0.859375
C5    C     C_R   0.837029 0.518537 0.076022 -0.219200
C6    C     C_R   0.789309 0.512576 0.171934 -0.243923
C7    C     C_R   0.545747 0.546406 0.179602 0.091068
C8    C     C_2   0.568804 0.064546 0.559960 0.193051
C9    C     C_2   0.479553 0.131499 0.530643 -0.427264
C10   C     C_2   0.551309 0.927909 0.561624 -0.138446
C11   C     C_2   0.502590 0.870584 0.502328 -0.379807
C12   C     C_R   0.428502 0.474686 0.908489 0.095717
C13   C     C_2   0.106618 0.432650 0.443630 -0.141604
C14   C     C_2   0.958614 0.438353 0.440195 -0.145934
C15   C     C_R   0.495136 0.262694 0.508290 0.931221
C16   C     C_R   0.588747 0.507144 0.324712 0.875892
C17   C     C_R   0.359580 0.483773 0.775110 -0.049961
C18   C     C_R   0.642351 0.522713 0.224544 -0.071765
C19   C     C_R   0.191970 0.401052 0.918660 -0.227907
C20   C     C_R   0.226623 0.428949 0.825447 -0.204798
C21   C     C_R   0.456773 0.509817 0.817682 -0.265842
C22   C     C_3   0.686207 0.125059 0.587319 -0.319085
C23   C     C_R   0.290638 0.426802 0.961303 0.183495
C24   C     C_3   0.757681 0.037992 0.635403 -0.933930
C25   C     C_3   0.413032 0.629125 0.222806 -0.393305
C26   C     C_3   0.450312 0.755404 0.255685 -0.827207
C27   C     C_R   0.533653 0.488117 0.948210 0.076711
C28   C     C_R   0.489761 0.481847 0.044867 0.056809
C29   C     C_R   0.351393 0.435123 0.097259 -0.251835
C30   C     C_R   0.254347 0.404967 0.055393 -0.241976
C31   C     C_R   0.681718 0.501530 0.894561 -0.230305
C32   C     C_R   0.782563 0.509418 0.936478 -0.226760
H1    H     H_    0.149827 0.367596 0.097017 0.144120
H2    H     H_    0.867085 0.503050 0.204728 0.166676
H3    H     H_    0.895643 0.512255 0.893901 0.147844
H4    H     H_    0.089695 0.357080 0.956755 0.138895
H5    H     H_    0.151801 0.404965 0.792431 0.154070
H6    H     H_    0.555122 0.558647 0.778747 0.152537
H7    H     H_    0.319396 0.417131 0.170435 0.150291
H8    H     H_    0.722996 0.496657 0.820124 0.145826
H9    H     H_    0.676935 0.999514 0.699899 0.261935
H10   H     H_    0.813909 0.960203 0.588740 0.264946
H11   H     H_    0.838358 0.092041 0.653914 0.259642
H12   H     H_    0.950746 0.520746 0.036472 0.151279
H13   H     H_    0.771910 0.162272 0.524464 0.224999
H14   H     H_    0.639175 0.204237 0.635441 0.218798
H15   H     H_    0.491920 0.743056 0.311860 0.251308
H16   H     H_    0.532277 0.805484 0.197372 0.254592
H17   H     H_    0.352710 0.814427 0.282328 0.241702
H18   H     H_    0.364751 0.653055 0.171237 0.210123
H19   H     H_    0.327244 0.580598 0.279526 0.228197
H20   H     H_    0.384615 0.088232 0.525163 0.152539
H21   H     H_    0.584557 0.871855 0.608352 0.167613
H22   H     H_    0.469831 0.919284 0.452287 0.142242
H23   H     H_    0.183376 0.370552 0.395169 0.157212
H24   H     H_    0.078833 0.562569 0.541556 0.161979
H25   H     H_    0.939836 0.386678 0.385547 0.154564
H26   H     H_    0.867445 0.542066 0.553726 0.162489
N1    N     N_2   0.148330 0.498670 0.499030 -0.189287
N2    N     N_2   0.852680 0.498640 0.499000 -0.190588
O1    O     O_R   0.386950 0.680940 0.500010 -0.607637
O2    O     O_R   0.613110 0.680900 0.499990 -0.601721
O3    O     O_R   0.322330 0.500030 0.632270 -0.613609
O4    O     O_R   0.548480 0.499990 0.632240 -0.626524
O5    O     O_R   0.386890 0.319100 0.500010 -0.604510
O6    O     O_R   0.613050 0.319060 0.499990 -0.618253
O7    O     O_R   0.451520 0.500010 0.367760 -0.610478
O8    O     O_R   0.677670 0.499970 0.367730 -0.612220
Zn1   Zn    Zn3+2 0.349000 0.500030 0.500020 0.934142
Zn2   Zn    Zn3+2 0.651000 0.499970 0.499980 0.925090

loop_
_geom_bond_atom_site_label_1
_geom_bond_atom_site_label_2
_ccdc_geom_bond_type
C19   C23   A    
C25   H19   S    
C29   C30   A    
C16   O8    A    
O4    Zn2   S    
C14   N2    D    
C32   H3    S    
C4    O4    A    
C8    C22   S    
C19   C20   A    
C7    C25   S    
H24   N1    S    
C26   H16   S    
C7    C18   A    
C1    O2    A    
C29   H7    S    
C13   N1    D    
C2    C3    A    
C9    C15   S    
O8    Zn2   S    
C16   O7    A    
C31   C32   A    
C13   C14   S    
C24   H9    S    
C11   H22   S    
C12   C23   A    
N2    Zn2   S    
O6    Zn2   S    
C9    H20   S    
C26   H15   S    
N1    Zn1   S    
O5    Zn1   S    
C4    C17   S    
C2    C32   A    
C4    O3    A    
C28   C29   A    
C22   H14   S    
C5    H12   S    
C3    C7    A    
C19   H4    S    
C5    C6    A    
C6    C18   A    
C22   C24   S    
C2    C5    A    
C10   C11   D    
C12   C27   A    
C27   C31   A    
C15   O5    A    
C23   C30   A    
O3    Zn1   S    
C17   C20   A    
C24   H10   S    
C31   H8    S    
O2    Zn2   S    
C16   C18   S    
C22   H13   S    
C26   H17   S    
O1    Zn1   S    
C27   C28   A    
C10   H21   S    
C14   H25   S    
C25   H18   S    
C3    C28   A    
C24   H11   S    
C30   H1    S    
O7    Zn1   S    
C25   C26   S    
C15   O6    A    
H26   N2    S    
C12   C21   A    
C8    C10   S    
C17   C21   A    
C21   H6    S    
C6    H2    S    
C20   H5    S    
C1    O1    A    
C8    C9    D    
C13   H23   S    
C1    C11   S    
