data_mof_unit_3555.cif
_audit_creation_date              2013-03-05T16:08:21-0500
_audit_creation_method            fapswitch 2.2
_symmetry_space_group_name_H-M    P1
_symmetry_Int_Tables_number       1
_space_group_crystal_system       triclinic
_cell_length_a                    6.96534
_cell_length_b                    14.518874
_cell_length_c                    16.082922
_cell_angle_alpha                 90.003814
_cell_angle_beta                  90.003212
_cell_angle_gamma                 89.980896
_cell_volume                      1626.4480148

loop_
_atom_site_label
_atom_site_type_symbol
_atom_site_description
_atom_site_fract_x
_atom_site_fract_y
_atom_site_fract_z
_atom_type_partial_charge
O1    O     O_R   0.505700 0.583890 0.413310 -0.590445
O2    O     O_R   0.175960 0.594920 0.586080 -0.598221
O3    O     O_R   0.005660 0.416110 0.586690 -0.592197
C1    C     C_R   0.344725 0.616880 0.614850 0.936653
O4    O     O_R   0.175980 0.594920 0.413930 -0.599407
O5    O     O_R   0.005680 0.416110 0.413310 -0.592573
C2    C     C_R   0.344696 0.616888 0.385146 0.941548
O6    O     O_R   0.505680 0.583890 0.586690 -0.591781
O7    O     O_3   0.339200 0.441330 0.500000 -0.278435
V1    V     V_3+5 0.064350 0.510880 0.500000 1.138336
O8    O     O_R   0.675960 0.405080 0.413920 -0.593083
C3    C     C_R   0.845083 0.382912 0.385375 0.942723
O9    O     O_R   0.675940 0.405080 0.586070 -0.598680
C4    C     C_R   0.844718 0.383186 0.614903 0.936509
V2    V     V_3+5 0.564340 0.489120 0.500000 1.140609
O10   O     O_3   0.839360 0.558670 0.500000 -0.280218
C5    C     C_R   0.006429 0.317847 0.741897 0.170642
C6    C     C_R   0.852592 0.317864 0.685708 -0.231003
C7    C     C_R   0.701107 0.255994 0.701357 -0.159946
H1    H     H_    0.578766 0.253709 0.660122 0.137259
C8    C     C_R   0.712260 0.191816 0.766907 -0.150453
H2    H     H_    0.597611 0.142298 0.774305 0.129865
C9    C     C_R   0.875529 0.187348 0.818620 -0.234020
C10   C     C_R   0.017864 0.254112 0.806542 0.217539
C11   C     C_3   0.228738 0.242351 0.795298 -0.459095
C12   C     C_3   0.216404 0.312166 0.725114 -0.481091
H3    H     H_    0.266048 0.171871 0.773726 0.175672
H4    H     H_    0.311627 0.267559 0.849804 0.233676
H5    H     H_    0.247295 0.282414 0.662852 0.191673
H6    H     H_    0.291519 0.377897 0.739172 0.200799
C13   C     C_R   0.737316 0.254830 0.184623 0.105753
C14   C     C_R   0.883155 0.188442 0.180575 -0.249330
C15   C     C_R   0.030929 0.194785 0.240386 -0.100832
H7    H     H_    0.150506 0.147255 0.238601 0.111650
C16   C     C_R   0.019196 0.258443 0.306614 -0.175335
H8    H     H_    0.130895 0.258563 0.353379 0.126133
C17   C     C_R   0.858595 0.316959 0.315327 -0.207938
C18   C     C_R   0.724211 0.316231 0.250716 0.154155
C19   C     C_3   0.510242 0.314078 0.251217 -0.601178
C20   C     C_3   0.523971 0.248203 0.177271 0.200394
H9    H     H_    0.446397 0.382365 0.236533 0.230270
H10   H     H_    0.453468 0.280732 0.308274 0.174967
H11   H     H_    0.467126 0.177936 0.189428 0.062439
C21   C     C_R   0.507124 0.682621 0.741424 0.176884
C22   C     C_R   0.352667 0.682292 0.685574 -0.232010
C23   C     C_R   0.201003 0.744047 0.701372 -0.159387
H12   H     H_    0.078411 0.746195 0.660278 0.138281
C24   C     C_R   0.212247 0.808256 0.766895 -0.159193
H13   H     H_    0.097341 0.857640 0.774460 0.130665
C25   C     C_R   0.375818 0.812891 0.818412 -0.225900
C26   C     C_R   0.518698 0.746424 0.806026 0.183398
C27   C     C_3   0.729189 0.758813 0.794064 -0.479689
C28   C     C_3   0.716710 0.688895 0.723992 -0.461324
H14   H     H_    0.813420 0.733919 0.848300 0.203636
H15   H     H_    0.765109 0.829382 0.772305 0.183709
H16   H     H_    0.792964 0.623396 0.737870 0.194977
H17   H     H_    0.746211 0.718674 0.661616 0.189789
C29   C     C_R   0.509307 0.747209 0.310300 0.156026
C30   C     C_R   0.352728 0.687390 0.318539 -0.226757
C31   C     C_R   0.200282 0.698040 0.261809 -0.141447
H18   H     H_    0.077001 0.653145 0.265448 0.140401
C32   C     C_R   0.211929 0.761953 0.195998 -0.151741
H19   H     H_    0.096147 0.765236 0.151335 0.138463
C33   C     C_R   0.377028 0.816595 0.184610 -0.217954
C34   C     C_R   0.521249 0.810146 0.244982 0.157611
C35   C     C_3   0.730688 0.793432 0.234127 -0.480064
C36   C     C_3   0.717760 0.725243 0.305541 -0.449093
H20   H     H_    0.817824 0.855373 0.249139 0.186093
H21   H     H_    0.763350 0.760362 0.173424 0.199585
H22   H     H_    0.796820 0.747908 0.361987 0.188828
H23   H     H_    0.743678 0.652709 0.286398 0.196144
O11   O     O_R   0.229000 0.916070 0.913330 -0.601144
O12   O     O_R   0.558770 0.905070 0.086080 -0.596997
O13   O     O_R   0.729000 0.083900 0.086690 -0.603963
C37   C     C_R   0.389768 0.882807 0.114628 0.926623
O14   O     O_R   0.558720 0.905070 0.913930 -0.599615
O15   O     O_R   0.728960 0.083900 0.913310 -0.591168
C38   C     C_R   0.389689 0.883151 0.885090 0.925337
O16   O     O_R   0.229050 0.916070 0.086710 -0.603431
O17   O     O_3   0.395460 0.058650 0.000020 -0.237006
V3    V     V_3+5 0.670340 0.989120 0.000000 1.160469
O18   O     O_R   0.058670 0.094960 0.913900 -0.585168
C39   C     C_R   0.889568 0.116959 0.885166 0.951150
O19   O     O_R   0.058720 0.094960 0.086050 -0.559129
C40   C     C_R   0.889980 0.117592 0.114276 0.961657
V4    V     V_3+5 0.170330 0.010930 0.999970 1.188685
O20   O     O_3   0.895340 0.941350 0.999980 -0.288413
N1    N     N_R   0.453425 0.289300 0.099931 0.257004
O21   O     O_R   0.319726 0.248047 0.057626 -0.379572
O22   O     O_R   0.520308 0.367744 0.073404 -0.399255

loop_
_geom_bond_atom_site_label_1
_geom_bond_atom_site_label_2
_geom_bond_distance
_ccdc_geom_bond_type
C35   H20   1.111637 S    
C4    C6    1.483016 S    
C7    H1    1.080283 S    
C1    O6    1.300424 A    
C19   H9    1.111863 S    
C22   C23   1.408466 A    
C21   C22   1.401487 A    
C11   H4    1.111658 S    
C17   C18   1.398565 A    
C9    C39   1.483069 S    
C5    C12   1.489521 S    
C7    C8    1.409172 A    
O19   V4    2.002168 S    
O5    C3    1.298361 A    
C18   C19   1.490724 S    
C35   H21   1.111434 S    
O15   C39   1.298912 A    
V2    O10   2.165759 S    
C13   C20   1.493844 S    
C31   C32   1.410013 A    
C6    C7    1.408644 A    
C2    C30   1.482779 S    
C3    C17   1.481469 S    
C32   C33   1.409271 A    
O8    V2    2.002286 S    
C21   C28   1.489352 S    
C20   H11   1.111791 S    
C16   H8    1.082102 S    
O17   V4    1.714560 S    
C9    C10   1.400335 A    
O1    V2    2.000942 S    
O7    V1    2.164117 S    
C27   H15   1.111332 S    
C24   C25   1.410328 A    
C35   C36   1.519101 S    
C30   C31   1.408424 A    
O9    C4    1.303005 A    
O12   C37   1.304348 A    
C25   C38   1.483190 S    
O12   V3    2.002664 S    
C27   H14   1.111549 S    
C5    C6    1.401680 A    
C19   H10   1.110433 S    
C1    C22   1.482789 S    
C23   C24   1.409118 A    
C5    C10   1.394141 A    
C26   C27   1.489680 S    
C10   C11   1.489665 S    
C19   C20   1.529082 S    
O4    C2    1.302833 A    
C28   H17   1.111612 S    
V4    O20   2.165778 S    
C25   C26   1.400268 A    
C29   C30   1.400718 A    
O18   V4    2.002246 S    
O18   C39   1.304843 A    
C31   H18   1.079826 S    
O2    C1    1.302975 A    
C32   H19   1.080989 S    
C29   C34   1.394868 A    
C13   C14   1.401619 A    
O15   V3    2.001233 S    
C15   H7    1.081837 S    
O19   C40   1.302016 A    
V3    O20   1.713600 S    
O3    C4    1.300580 A    
C21   C26   1.394289 A    
C24   H13   1.081242 S    
N1    O22   1.302549 A    
C12   H6    1.111722 S    
O6    V2    2.000872 S    
C8    C9    1.410349 A    
O13   V3    2.001129 S    
O2    V1    2.002512 S    
C27   C28   1.519214 S    
C28   H16   1.111735 S    
C23   H12   1.080203 S    
C16   C17   1.411430 A    
O1    C2    1.300754 A    
O14   C38   1.304897 A    
O17   V3    2.164167 S    
O14   V3    2.002519 S    
O5    V1    2.001045 S    
O11   V4    2.001227 S    
O8    C3    1.304542 A    
C11   H3    1.111232 S    
C13   C18   1.390253 A    
C36   H22   1.111619 S    
C14   C15   1.411795 A    
C20   N1    1.464416 S    
O9    V2    2.002170 S    
C11   C12   1.519558 S    
O4    V1    2.002629 S    
O3    V1    2.001232 S    
V1    O10   1.713655 S    
C33   C34   1.400172 A    
C14   C40   1.482288 S    
C15   C16   1.412549 A    
C33   C37   1.482897 S    
C36   H23   1.111864 S    
O13   C40   1.301416 A    
O7    V2    1.715034 S    
C29   C36   1.488428 S    
N1    O21   1.299668 A    
C12   H5    1.111524 S    
C34   C35   1.489056 S    
O11   C38   1.298886 A    
C8    H2    1.081275 S    
C37   O16   1.299089 A    
O16   V4    2.002514 S    
