data_mof_unit_1321.cif
_audit_creation_date              2013-03-05T15:42:26-0500
_audit_creation_method            fapswitch 2.2
_symmetry_space_group_name_H-M    P1
_symmetry_Int_Tables_number       1
_space_group_crystal_system       triclinic
_cell_length_a                    13.068612
_cell_length_b                    10.879795
_cell_length_c                    9.889844
_cell_angle_alpha                 89.93878
_cell_angle_beta                  95.363124
_cell_angle_gamma                 93.517156
_cell_volume                      1397.3676421

loop_
_atom_site_label
_atom_site_type_symbol
_atom_site_description
_atom_site_fract_x
_atom_site_fract_y
_atom_site_fract_z
_atom_type_partial_charge
O1    O     O_R   0.500020 0.321960 0.617050 -0.614663
O2    O     O_R   0.499980 0.321920 0.382890 -0.542101
C1    C     C_R   0.508467 0.266063 0.500526 0.817328
O3    O     O_R   0.349010 0.500000 0.598060 -0.612831
O4    O     O_R   0.348980 0.499950 0.363910 -0.580068
C2    C     C_R   0.301807 0.499633 0.475396 0.790671
Cu1   Cu    Cu3+1 0.500020 0.500020 0.638640 0.948740
Cu2   Cu    Cu3+1 0.499980 0.499980 0.361360 0.956744
O5    O     O_R   0.500020 0.678080 0.617110 -0.585735
O6    O     O_R   0.499980 0.678040 0.382950 -0.615002
O7    O     O_R   0.651020 0.500050 0.636090 -0.548484
O8    O     O_R   0.650990 0.500000 0.401940 -0.585895
C3    C     C_R   0.487742 0.732864 0.498205 0.734727
C4    C     C_R   0.698826 0.497914 0.524976 0.828825
C5    C     C_R   0.812067 0.500182 0.538728 -0.264994
C6    C     C_R   0.189792 0.492482 0.463717 -0.126551
C7    C     C_R   0.031635 0.380965 0.369015 0.531681
C8    C     C_R   0.139093 0.402093 0.377860 -0.357410
C9    C     C_R   0.135019 0.563088 0.548476 0.067308
C10   C     C_R   0.027488 0.538863 0.545901 -0.058567
C11   C     C_R   0.974769 0.452656 0.451413 -0.070018
C12   C     C_R   0.865472 0.442016 0.441152 0.397496
C13   C     C_R   0.867858 0.566688 0.645806 0.422755
C14   C     C_R   0.971778 0.595872 0.639915 -0.286311
H1    H     H_    0.007447 0.660548 0.715123 0.177919
H2    H     H_    0.185113 0.343948 0.322385 0.158676
C15   C     C_2   0.465383 0.932480 0.382318 -0.096023
C16   C     C_2   0.459808 0.862477 0.496131 0.226861
C17   C     C_2   0.502902 0.065809 0.385985 0.457280
C18   C     C_2   0.530284 0.134150 0.501012 -0.144995
C19   C     C_2   0.448989 0.418133 0.919199 0.294983
N1    N     N_2   0.498860 0.498660 0.846770 0.007902
C20   C     C_2   0.467013 0.408924 0.071536 0.085456
N2    N     N_2   0.498840 0.498630 0.152900 0.012364
H3    H     H_    0.445927 0.321472 0.116880 0.112679
O9    O     O_3   0.809800 0.373300 0.338319 -0.545048
C21   C     C_3   0.805714 0.442441 0.216925 -0.234882
H4    H     H_    0.871363 0.424830 0.158110 0.167634
H5    H     H_    0.805338 0.543612 0.234386 0.103828
H6    H     H_    0.734170 0.412444 0.153071 0.182963
C22   C     C_3   0.597023 0.086662 0.622262 -0.394278
C23   C     C_3   0.700500 0.162315 0.645620 -0.373884
C24   C     C_3   0.769479 0.110017 0.762051 -0.855672
H7    H     H_    0.731128 0.110847 0.857666 0.249729
H8    H     H_    0.786970 0.014143 0.738524 0.259445
H9    H     H_    0.843008 0.167293 0.777087 0.240528
H10   H     H_    0.740953 0.162108 0.551555 0.235438
H11   H     H_    0.687845 0.259051 0.671376 0.242636
H12   H     H_    0.555249 0.091364 0.714857 0.244096
H13   H     H_    0.615997 0.990210 0.605625 0.218784
C25   C     C_3   0.370337 0.322667 0.853369 -0.490097
C26   C     C_3   0.267934 0.317082 0.919986 -0.421528
C27   C     C_3   0.179696 0.256960 0.825885 -0.842328
H14   H     H_    0.165151 0.313786 0.733437 0.264964
H15   H     H_    0.198569 0.163319 0.795576 0.251627
H16   H     H_    0.108478 0.249261 0.879165 0.233179
H17   H     H_    0.275833 0.263340 0.015407 0.220816
H18   H     H_    0.247294 0.410241 0.948596 0.219594
H19   H     H_    0.354320 0.338689 0.744449 0.271072
H20   H     H_    0.403313 0.230977 0.862839 0.182521
O10   O     O_3   0.592307 0.541134 0.903520 -0.506855
C28   C     C_3   0.610641 0.664232 0.859132 0.065533
H21   H     H_    0.542177 0.719762 0.863544 0.148617
H22   H     H_    0.642396 0.670827 0.761069 0.211179
H23   H     H_    0.675035 0.711354 0.922963 0.056423
O11   O     O_3   0.507819 0.613228 0.101975 -0.480635
C29   C     C_3   0.606333 0.666530 0.152062 -0.065312
H24   H     H_    0.668642 0.616000 0.114808 0.124808
H25   H     H_    0.626650 0.667339 0.260816 0.179263
H26   H     H_    0.613009 0.764056 0.119753 0.070004
O12   O     O_3   0.820369 0.612405 0.752316 -0.586546
C30   C     C_3   0.845657 0.540235 0.868227 -0.299063
H27   H     H_    0.930254 0.541498 0.896051 0.135199
H28   H     H_    0.813067 0.443720 0.853118 0.182247
H29   H     H_    0.811813 0.579140 0.956045 0.172043
O13   O     O_3   0.982007 0.280451 0.297268 -0.536338
C31   C     C_3   0.023687 0.258869 0.173108 -0.361090
H30   H     H_    0.964068 0.207420 0.104375 0.190499
H31   H     H_    0.090246 0.200083 0.189673 0.170159
H32   H     H_    0.045642 0.345771 0.120332 0.141875
C32   C     C_3   0.190472 0.666289 0.637088 -0.373903
C33   C     C_3   0.213353 0.625587 0.785293 -0.324126
C34   C     C_3   0.262544 0.731152 0.873878 -0.851327
H33   H     H_    0.336861 0.764017 0.836316 0.283763
H34   H     H_    0.210151 0.807836 0.872602 0.246659
H35   H     H_    0.277874 0.699028 0.980085 0.255988
H36   H     H_    0.143051 0.588115 0.829326 0.201386
H37   H     H_    0.267578 0.551931 0.790059 0.261419
H38   H     H_    0.263785 0.698264 0.596808 0.203593
H39   H     H_    0.144580 0.749086 0.631389 0.175875
C35   C     C_3   0.417360 0.882858 0.244023 -0.326624
C36   C     C_3   0.320715 0.950641 0.191203 -0.300444
C37   C     C_3   0.329412 0.005751 0.050090 -0.817803
H40   H     H_    0.381740 0.089771 0.055885 0.282679
H41   H     H_    0.360074 0.939646 0.981601 0.253820
H42   H     H_    0.252318 0.030541 0.005566 0.227171
H43   H     H_    0.252116 0.884318 0.185023 0.182741
H44   H     H_    0.304432 0.024952 0.261819 0.221127
H45   H     H_    0.476924 0.889368 0.170984 0.220929
H46   H     H_    0.389979 0.784862 0.246931 0.208558
O14   O     O_3   0.434978 0.910809 0.618280 -0.598028
C38   C     C_3   0.337053 0.960608 0.601006 -0.348858
H47   H     H_    0.280492 0.904502 0.531690 0.145934
H48   H     H_    0.343041 0.056380 0.562882 0.165174
H49   H     H_    0.305941 0.964037 0.701382 0.189587
O15   O     O_3   0.500000 0.124069 0.261213 -0.581502
C39   C     C_3   0.599803 0.128292 0.217059 -0.311240
H50   H     H_    0.628407 0.034482 0.209324 0.139098
H51   H     H_    0.654882 0.187175 0.285282 0.214244
H52   H     H_    0.596827 0.169644 0.114289 0.170220

loop_
_geom_bond_atom_site_label_1
_geom_bond_atom_site_label_2
_geom_bond_distance
_ccdc_geom_bond_type
C37   H40   1.105732 S    
C15   C17   1.501823 S    
C22   C23   1.537853 S    
C9    C10   1.411674 A    
C8    H2    1.082590 S    
N2    O11   1.346730 S    
C32   C33   1.538436 S    
C36   H44   1.112098 S    
Cu1   Cu2   2.742207 S    
C31   H30   1.109399 S    
Cu1   O7    1.975856 S    
C28   H21   1.114054 S    
C34   H33   1.110704 S    
O9    C21   1.414604 S    
N1    O10   1.350231 S    
C21   H6    1.110010 S    
O3    Cu1   1.976771 S    
O4    C2    1.312457 A    
O7    C4    1.314769 A    
C31   H32   1.114598 S    
O15   C39   1.411754 S    
C33   H36   1.108334 S    
C38   H49   1.108854 S    
O5    C3    1.318651 A    
C28   H22   1.090586 S    
C16   O14   1.391663 S    
C5    C12   1.414301 A    
C10   C14   1.400869 A    
C7    O13   1.395942 S    
C13   C14   1.382196 A    
C19   C20   1.507172 S    
C18   C22   1.524484 S    
C15   C35   1.534774 S    
C35   H46   1.104836 S    
C17   C18   1.366781 D    
C32   H38   1.108075 S    
C31   H31   1.110820 S    
O11   C29   1.424421 S    
C37   H41   1.106244 S    
C11   C12   1.420051 A    
C39   H51   1.112353 S    
C38   H47   1.113438 S    
C30   H29   1.106636 S    
C22   H12   1.111857 S    
C36   H43   1.112920 S    
C7    C8    1.403594 A    
C27   H15   1.110830 S    
C29   H24   1.101136 S    
O14   C38   1.415805 S    
C13   O12   1.379606 S    
O13   C31   1.414559 S    
C30   H28   1.113513 S    
C35   C36   1.549860 S    
Cu2   N2    2.060360 S    
C27   H14   1.111322 S    
C7    C11   1.417900 A    
C25   C26   1.543847 S    
C29   H25   1.083397 S    
C1    C18   1.480209 S    
C24   H7    1.111138 S    
C21   H4    1.106718 S    
C19   N1    1.311994 D    
Cu2   O8    1.976771 S    
C20   N2    1.289324 D    
C3    C16   1.477818 S    
C23   H11   1.108936 S    
C14   H1    1.077833 S    
C38   H48   1.108457 S    
C24   H8    1.110913 S    
C26   H18   1.108383 S    
C32   H39   1.110946 S    
O3    C2    1.308450 A    
C34   H34   1.110626 S    
O8    C4    1.315837 A    
C37   H42   1.109893 S    
C39   H52   1.109383 S    
C17   O15   1.385082 S    
C25   H19   1.093840 S    
C23   C24   1.526370 S    
C39   H50   1.113378 S    
C22   H13   1.108906 S    
C26   C27   1.527046 S    
C27   H16   1.110365 S    
Cu1   O5    1.948697 S    
Cu1   N1    2.059877 S    
C28   H23   1.103622 S    
O1    Cu1   1.949216 S    
Cu2   O6    1.949216 S    
O2    Cu2   1.948697 S    
C19   C25   1.518074 S    
C30   H27   1.113320 S    
O6    C3    1.314484 A    
O4    Cu2   1.975856 S    
C12   O9    1.385324 S    
C29   H26   1.108464 S    
C35   H45   1.109481 S    
O2    C1    1.310636 A    
O12   C30   1.413838 S    
C21   H5    1.114739 S    
C6    C9    1.409311 A    
C33   H37   1.099964 S    
C5    C13   1.403273 A    
C36   C37   1.529571 S    
C20   H3    1.082740 S    
C23   H10   1.112202 S    
O10   C28   1.422258 S    
C24   H9    1.110769 S    
C26   H17   1.109551 S    
C2    C6    1.454923 S    
C34   H35   1.110872 S    
C10   C11   1.424713 A    
C6    C8    1.394191 A    
C33   C34   1.518619 S    
C15   C16   1.363455 D    
C4    C5    1.472118 S    
C25   H20   1.111146 S    
O1    C1    1.320441 A    
C9    C32   1.528868 S    
