data_mof_unit_1317.cif
_audit_creation_date              2012-12-10T20:41:49-0500
_audit_creation_method            fapswitch 2.2
_symmetry_space_group_name_H-M    P1
_symmetry_Int_Tables_number       1
_space_group_crystal_system       triclinic
_cell_length_a                    14.027203
_cell_length_b                    16.943563
_cell_length_c                    10.045004
_cell_angle_alpha                 90.885411
_cell_angle_beta                  90.299347
_cell_angle_gamma                 88.852858
_cell_volume                      2386.61177832

loop_
_atom_site_label
_atom_site_type_symbol
_atom_type_description
_atom_site_fract_x
_atom_site_fract_y
_atom_site_fract_z
_atom_type_partial_charge
C1    C     C_R   0.382790 0.878679 0.499255 0.870344
C2    C     C_R   0.381161 0.120133 0.500342 0.862972
C3    C     C_R   0.880981 0.379638 0.499627 0.862484
C4    C     C_R   0.887086 0.624789 0.499437 0.862197
C5    C     C_3   0.288806 0.230493 0.757639 -0.089732
C6    C     C_3   0.320949 0.747190 0.757893 -0.055616
C7    C     C_3   0.832915 0.741241 0.740434 -0.067462
C8    C     C_3   0.800825 0.261806 0.758686 -0.052223
C9    C     C_R   0.425475 0.970947 0.068887 0.158224
C10   C     C_R   0.925676 0.469883 0.070403 0.142870
C11   C     C_R   0.581142 0.010285 0.076009 -0.141441
C12   C     C_R   0.080343 0.512023 0.076589 -0.134268
C13   C     C_R   0.582782 0.008893 0.933740 0.176517
C14   C     C_R   0.082437 0.510555 0.935032 0.190198
C15   C     C_R   0.421323 0.981338 0.933275 0.021703
C16   C     C_R   0.920703 0.479562 0.933352 0.020810
C17   C     C_3   0.312290 0.988052 0.932054 0.250092
C18   C     C_3   0.812334 0.499931 0.940653 0.261703
C19   C     C_3   0.319544 0.973471 0.085169 -0.536574
C20   C     C_3   0.822115 0.481580 0.092224 -0.498460
C21   C     C_R   0.619000 0.120224 0.499469 0.867888
C22   C     C_R   0.620049 0.879916 0.499325 0.863120
C23   C     C_R   0.120831 0.619131 0.499375 0.867660
C24   C     C_R   0.118570 0.379752 0.499141 0.860924
C25   C     C_R   0.258183 0.205008 0.616312 0.076085
C26   C     C_R   0.304665 0.764553 0.610120 0.112946
C27   C     C_R   0.832936 0.757158 0.597439 0.072502
C28   C     C_R   0.771733 0.286316 0.617837 0.095431
C29   C     C_R   0.309775 0.182656 0.499117 -0.119425
C30   C     C_R   0.321840 0.809508 0.496964 -0.135047
C31   C     C_R   0.838716 0.702553 0.491737 -0.125381
C32   C     C_R   0.811955 0.315487 0.499056 -0.121552
C33   C     C_R   0.279314 0.215079 0.376365 -0.214043
C34   C     C_R   0.275437 0.786084 0.377165 -0.214031
C35   C     C_R   0.792937 0.723992 0.372517 -0.204741
C36   C     C_R   0.777744 0.284014 0.376308 -0.213428
C37   C     C_R   0.719324 0.781610 0.374356 -0.216865
C38   C     C_R   0.712387 0.221386 0.374267 -0.211875
C39   C     C_R   0.213147 0.277888 0.374959 -0.224134
C40   C     C_R   0.209895 0.723654 0.375541 -0.218479
C41   C     C_R   0.693541 0.817891 0.496314 -0.097267
C42   C     C_R   0.678548 0.190621 0.495463 -0.091975
C43   C     C_R   0.174153 0.307152 0.495840 -0.087033
C44   C     C_R   0.188988 0.683713 0.493999 -0.087194
C45   C     C_R   0.754403 0.807881 0.605452 0.103332
C46   C     C_R   0.704876 0.229204 0.613313 0.090894
C47   C     C_R   0.189019 0.261502 0.611995 0.114373
C48   C     C_R   0.239537 0.706689 0.605065 0.099222
C49   C     C_3   0.735890 0.782264 0.745636 -0.546761
C50   C     C_3   0.729312 0.197624 0.743775 -0.575427
C51   C     C_3   0.202392 0.285843 0.756377 -0.535867
C52   C     C_3   0.251713 0.682243 0.740183 -0.614830
H1    H     H_    0.310422 0.195265 0.281733 0.167794
H2    H     H_    0.288820 0.816228 0.284935 0.161580
H3    H     H_    0.812435 0.694830 0.279836 0.161570
H4    H     H_    0.804710 0.304519 0.281303 0.160102
H5    H     H_    0.296017 0.023327 0.151153 0.210563
H6    H     H_    0.293334 0.915084 0.115577 0.167151
H7    H     H_    0.809573 0.530602 0.165046 0.221288
H8    H     H_    0.790246 0.424900 0.123468 0.161748
H9    H     H_    0.681596 0.793481 0.281892 0.172586
H10   H     H_    0.692615 0.195519 0.278024 0.161724
H11   H     H_    0.197320 0.306173 0.280268 0.171092
H12   H     H_    0.176011 0.707495 0.282154 0.165123
H13   H     H_    0.730233 0.827129 0.825638 0.207238
H14   H     H_    0.763436 0.139034 0.729367 0.219263
H15   H     H_    0.224690 0.344881 0.787839 0.219567
H16   H     H_    0.286001 0.624409 0.737145 0.231978
H17   H     H_    0.677102 0.738677 0.748160 0.193350
H18   H     H_    0.667384 0.205665 0.813339 0.182559
H19   H     H_    0.139920 0.263348 0.817112 0.191198
H20   H     H_    0.184738 0.694379 0.796960 0.193215
H21   H     H_    0.269557 0.200117 0.848314 0.197870
H22   H     H_    0.283160 0.780996 0.834843 0.170570
H23   H     H_    0.832079 0.679250 0.750480 0.193886
H24   H     H_    0.770266 0.293818 0.845227 0.166508
H25   H     H_    0.644772 0.023040 0.133102 0.144617
H26   H     H_    0.143253 0.526507 0.134389 0.146689
N1    N     N_R   0.499140 1.000000 0.142800 -0.119427
N2    N     N_R   0.999140 0.500000 0.142800 -0.122462
N3    N     N_R   0.499160 1.000000 0.857150 -0.145943
N4    N     N_R   0.999160 0.500000 0.857150 -0.143643
O1    O     O_R   0.408400 0.908380 0.614690 -0.619669
O2    O     O_R   0.408400 0.091620 0.614690 -0.629078
O3    O     O_R   0.908400 0.408380 0.614690 -0.616359
O4    O     O_R   0.908400 0.591620 0.614690 -0.640217
O5    O     O_R   0.408370 0.908370 0.385350 -0.615633
O6    O     O_R   0.408370 0.091630 0.385350 -0.620800
O7    O     O_R   0.908370 0.408370 0.385350 -0.614175
O8    O     O_R   0.908370 0.591630 0.385350 -0.619993
O9    O     O_R   0.591610 0.091610 0.614650 -0.622987
O10   O     O_R   0.591610 0.908390 0.614650 -0.620376
O11   O     O_R   0.091610 0.591610 0.614650 -0.640348
O12   O     O_R   0.091610 0.408390 0.614650 -0.620027
O13   O     O_R   0.591590 0.091600 0.385310 -0.627790
O14   O     O_R   0.591590 0.908400 0.385310 -0.617022
O15   O     O_R   0.091590 0.591600 0.385310 -0.629565
O16   O     O_R   0.091590 0.408400 0.385310 -0.620039
Zn1   Zn    Zn3+2 0.500010 0.000000 0.653130 0.929296
Zn2   Zn    Zn3+2 0.000010 0.500000 0.653130 0.925593
Zn3   Zn    Zn3+2 0.499980 0.000000 0.346870 0.947012
Zn4   Zn    Zn3+2 0.999980 0.500000 0.346870 0.943822
C53   C     C_3   0.388755 0.269378 0.771595 -0.310413
C54   C     C_3   0.445155 0.229986 0.886372 -0.899860
H27   H     H_    0.406289 0.239143 0.982710 0.244609
H28   H     H_    0.454027 0.165409 0.867168 0.272814
H29   H     H_    0.516865 0.256354 0.897234 0.242501
H30   H     H_    0.430339 0.260837 0.677971 0.214376
H31   H     H_    0.382434 0.333894 0.793949 0.201764
C55   C     C_3   0.420040 0.718955 0.805955 -0.350348
C56   C     C_3   0.459202 0.777900 0.909964 -0.888800
H32   H     H_    0.478019 0.833628 0.860519 0.282271
H33   H     H_    0.405148 0.790424 0.989459 0.245678
H34   H     H_    0.523771 0.752477 0.958570 0.247652
H35   H     H_    0.414392 0.661264 0.857757 0.214533
H36   H     H_    0.470510 0.711971 0.721637 0.211471
C57   C     C_3   0.915335 0.784019 0.813834 -0.303560
C58   C     C_3   0.981935 0.724114 0.884270 -0.910924
H37   H     H_    0.951140 0.708130 0.982936 0.249320
H38   H     H_    0.993941 0.669998 0.821431 0.283997
H39   H     H_    0.052039 0.751189 0.905540 0.237122
H40   H     H_    0.959267 0.819092 0.741786 0.201921
H41   H     H_    0.885897 0.827119 0.890832 0.199984
C59   C     C_3   0.904075 0.231335 0.783698 -0.324450
C60   C     C_3   0.943081 0.269407 0.912581 -0.889738
H42   H     H_    0.961587 0.331566 0.892182 0.271941
H43   H     H_    0.889595 0.268619 0.995404 0.246803
H44   H     H_    0.007730 0.236205 0.946617 0.241234
H45   H     H_    0.907708 0.165842 0.797633 0.205581
H46   H     H_    0.950405 0.246143 0.698245 0.213774
C61   C     C_3   0.671257 0.042290 0.878865 -0.404878
C62   C     C_3   0.740950 0.985365 0.809447 -0.848417
H47   H     H_    0.702886 0.940866 0.755353 0.301382
H48   H     H_    0.785007 0.015234 0.734308 0.225475
H49   H     H_    0.789131 0.956592 0.881987 0.231635
H50   H     H_    0.641330 0.085636 0.816147 0.254616
H51   H     H_    0.712111 0.076731 0.954461 0.178472
C63   C     C_3   0.171465 0.543829 0.883021 -0.432657
C64   C     C_3   0.243440 0.484590 0.827744 -0.863407
H52   H     H_    0.209287 0.459192 0.736388 0.293318
H53   H     H_    0.312441 0.509253 0.786651 0.213801
H54   H     H_    0.266117 0.442548 0.909963 0.247916
H55   H     H_    0.144509 0.581572 0.810603 0.263624
H56   H     H_    0.208536 0.582176 0.957229 0.189090
C65   C     C_3   0.273681 0.069773 0.906911 -0.305139
C66   C     C_3   0.164218 0.080639 0.917417 -0.884528
H57   H     H_    0.133021 0.092847 0.816849 0.242840
H58   H     H_    0.129124 0.028610 0.959750 0.277120
H59   H     H_    0.145617 0.133434 0.979426 0.231599
H60   H     H_    0.308343 0.110771 0.979284 0.169134
H61   H     H_    0.296417 0.082328 0.804118 0.227603
C67   C     C_3   0.264184 0.924108 0.847103 -0.341696
C68   C     C_3   0.209533 0.946493 0.718455 -0.821092
H62   H     H_    0.136966 0.969320 0.738569 0.247792
H63   H     H_    0.249784 0.988561 0.656650 0.261497
H64   H     H_    0.198201 0.892587 0.657013 0.230278
H65   H     H_    0.325374 0.889573 0.811819 0.233763
H66   H     H_    0.215652 0.889422 0.910070 0.175797
C69   C     C_3   0.782764 0.586846 0.919163 -0.291703
C70   C     C_3   0.710550 0.624707 0.018442 -0.897150
H67   H     H_    0.658504 0.581815 0.058895 0.271565
H68   H     H_    0.752361 0.650382 0.101852 0.236924
H69   H     H_    0.672576 0.676352 0.972511 0.244246
H70   H     H_    0.849502 0.620097 0.926663 0.191881
H71   H     H_    0.749374 0.593907 0.819543 0.212384
C71   C     C_3   0.751764 0.439206 0.862133 -0.376438
C72   C     C_3   0.684379 0.465201 0.748420 -0.881853
H72   H     H_    0.625720 0.504904 0.786014 0.263002
H73   H     H_    0.725787 0.494072 0.667759 0.257356
H74   H     H_    0.650401 0.411691 0.703048 0.243800
H75   H     H_    0.806301 0.404325 0.809190 0.237119
H76   H     H_    0.709298 0.403416 0.932206 0.188316

loop_
_geom_bond_atom_site_label_1
_geom_bond_atom_site_label_2
_ccdc_geom_bond_type
C1    O5    A    
C44   C48   A    
C5    C53   S    
C71   H76   S    
C29   C33   A    
O7    Zn4   S    
C3    O3    A    
C11   C13   A    
C7    C57   S    
C2    O2    A    
C56   H32   S    
C54   H28   S    
C65   C66   S    
C18   C71   S    
C72   H73   S    
C6    C26   S    
C19   H5    S    
C28   C46   A    
C33   C39   A    
C49   H13   S    
C2    C29   S    
C34   C40   A    
C32   C36   A    
C35   C37   A    
C38   C42   A    
C55   H36   S    
C63   H55   S    
C9    N1    A    
C64   H54   S    
C22   C41   S    
C4    O4    A    
C13   N3    A    
C8    H24   S    
C7    C27   S    
C18   C20   S    
C42   C46   A    
C58   H37   S    
O8    Zn4   S    
C18   C69   S    
C11   H25   S    
C55   C56   S    
C9    C19   S    
C14   C63   S    
C10   C20   S    
C62   H47   S    
C12   H26   S    
C60   H44   S    
C2    O6    A    
C53   H30   S    
O12   Zn2   S    
C20   H8    S    
O4    Zn2   S    
C25   C47   A    
C40   C44   A    
C66   H58   S    
O15   Zn4   S    
C52   H16   S    
C26   C48   A    
C27   C45   A    
C57   H41   S    
C71   H75   S    
C49   H17   S    
O14   Zn3   S    
C25   C29   A    
C6    C55   S    
N4    Zn2   S    
C54   H27   S    
C6    H22   S    
C72   H74   S    
C4    O8    A    
C19   H6    S    
C33   H1    S    
C67   H66   S    
C59   C60   S    
C30   C34   A    
C27   C31   A    
C70   H69   S    
C28   C32   A    
C7    C49   S    
C15   N3    A    
C61   H50   S    
C72   H72   S    
C10   C16   A    
C10   N2    A    
C8    C59   S    
C7    H23   S    
C21   O13   A    
O16   Zn4   S    
C35   H3    S    
C23   C44   S    
C23   O11   A    
N2    Zn4   S    
C68   H64   S    
C58   H39   S    
C70   H68   S    
C17   C65   S    
C57   H40   S    
C36   H4    S    
C24   O12   A    
C66   H59   S    
C37   H9    S    
C69   C70   S    
C45   C49   S    
C52   H20   S    
C16   N4    A    
C13   C61   S    
C59   H46   S    
C56   H33   S    
C51   H15   S    
C20   H7    S    
C50   H14   S    
O11   Zn2   S    
C65   H61   S    
C11   N1    A    
C5    C25   S    
C16   C18   S    
C23   O15   A    
C12   C14   A    
C34   H2    S    
C71   C72   S    
C8    C28   S    
C24   O16   A    
C17   C67   S    
C68   H63   S    
C14   N4    A    
O5    Zn3   S    
C61   C62   S    
C8    C50   S    
C39   H11   S    
C66   H57   S    
C21   O9    A    
C15   C17   S    
C67   H65   S    
C22   O10   A    
O2    Zn1   S    
C22   O14   A    
C5    H21   S    
O6    Zn3   S    
C65   H60   S    
C47   C51   S    
C64   H52   S    
C51   H19   S    
C26   C30   A    
C1    O1    A    
N3    Zn1   S    
C46   C50   S    
C40   H12   S    
C53   H31   S    
C3    O7    A    
C6    C52   S    
C70   H67   S    
C36   C38   A    
C9    C15   A    
O3    Zn2   S    
C63   H56   S    
C57   C58   S    
C64   H53   S    
C60   H42   S    
N1    Zn3   S    
C62   H49   S    
C12   N2    A    
C1    C30   S    
C17   C19   S    
C59   H45   S    
C56   H34   S    
C31   C35   A    
C37   C41   A    
C3    C32   S    
C58   H38   S    
C50   H18   S    
C4    C31   S    
C63   C64   S    
C21   C42   S    
C69   H71   S    
C48   C52   S    
C67   C68   S    
C39   C43   A    
C62   H48   S    
C53   C54   S    
C60   H43   S    
C24   C43   S    
C41   C45   A    
C69   H70   S    
C5    C51   S    
O1    Zn1   S    
O9    Zn1   S    
C68   H62   S    
C43   C47   A    
C55   H35   S    
C54   H29   S    
O13   Zn3   S    
O10   Zn1   S    
C61   H51   S    
C38   H10   S    
