data_mof_unit_794.cif
_audit_creation_date              2012-12-10T18:00:45-0500
_audit_creation_method            fapswitch 2.2
_symmetry_space_group_name_H-M    P1
_symmetry_Int_Tables_number       1
_space_group_crystal_system       triclinic
_cell_length_a                    15.887137
_cell_length_b                    10.770667
_cell_length_c                    9.576094
_cell_angle_alpha                 90.5515
_cell_angle_beta                  91.636483
_cell_angle_gamma                 90.859253
_cell_volume                      1637.67854123

loop_
_atom_site_label
_atom_site_type_symbol
_atom_type_description
_atom_site_fract_x
_atom_site_fract_y
_atom_site_fract_z
_atom_type_partial_charge
C1    C     C_R   0.499531 0.262838 0.499116 0.822102
C2    C     C_R   0.501831 0.737352 0.500059 0.825805
C3    C     C_R   0.423176 0.932410 0.508921 0.107411
C4    C     C_R   0.576978 0.068122 0.478323 0.102742
C5    C     C_R   0.501100 0.871653 0.497591 -0.092203
C6    C     C_R   0.499654 0.128854 0.495980 -0.112006
C7    C     C_R   0.446350 0.423216 0.069263 -0.003408
C8    C     C_R   0.553249 0.576894 0.931473 0.126484
C9    C     C_R   0.446542 0.424277 0.921291 -0.059160
C10   C     C_R   0.553067 0.576158 0.079272 -0.044958
C11   C     C_R   0.340058 0.498522 0.498126 0.807565
C12   C     C_R   0.660060 0.499833 0.501768 0.796187
C13   C     C_3   0.970313 0.382820 0.532847 0.044840
C14   C     C_3   0.030260 0.607281 0.462500 0.042901
C15   C     C_3   0.022444 0.410542 0.402239 -0.067225
C16   C     C_3   0.978609 0.579766 0.593394 -0.063147
C17   C     C_1   0.250667 0.495050 0.493702 -0.081993
C18   C     C_1   0.749685 0.500108 0.505569 -0.097860
C19   C     C_3   0.032147 0.464142 0.623624 -0.085413
C20   C     C_3   0.968501 0.525877 0.371882 -0.081353
C21   C     C_3   0.083835 0.491743 0.493102 -0.023307
C22   C     C_3   0.916761 0.498856 0.502772 -0.020532
C23   C     C_1   0.175323 0.492533 0.491608 0.094843
C24   C     C_1   0.825140 0.500185 0.506181 0.085088
C25   C     C_R   0.422138 0.063171 0.503908 0.110774
C26   C     C_R   0.576882 0.937409 0.471860 0.112604
Cu1   Cu    Cu3+1 0.500000 0.500020 0.640660 0.978028
Cu2   Cu    Cu3+1 0.500000 0.499980 0.359340 0.959778
H1    H     H_    0.403510 0.364429 0.862089 0.135478
H2    H     H_    0.595530 0.637067 0.139316 0.136352
N1    N     N_R   0.500020 0.500030 0.852070 -0.203845
N2    N     N_R   0.499980 0.499970 0.147930 -0.208171
O1    O     O_R   0.500000 0.319660 0.618740 -0.590845
O2    O     O_R   0.500000 0.680340 0.381260 -0.600390
O3    O     O_R   0.499990 0.319630 0.381170 -0.585394
O4    O     O_R   0.500010 0.680370 0.618830 -0.557523
O5    O     O_R   0.379080 0.500000 0.618760 -0.576975
O6    O     O_R   0.620920 0.500000 0.381240 -0.577017
O7    O     O_R   0.379080 0.499970 0.381190 -0.551643
O8    O     O_R   0.620920 0.500030 0.618810 -0.561856
C27   C     C_2   0.046302 0.317046 0.293751 0.884117
O9    O     O_2   0.991166 0.260348 0.226994 -0.575065
O10   O     O_R   0.131113 0.294961 0.269769 -0.733268
H3    H     H_    0.139045 0.229833 0.194345 0.348856
C28   C     C_2   0.959707 0.675606 0.701990 0.895506
O11   O     O_2   0.017620 0.725903 0.768792 -0.569169
O12   O     O_R   0.876805 0.708838 0.724637 -0.786783
H4    H     H_    0.872999 0.777273 0.797536 0.328060
C29   C     C_3   0.931999 0.256915 0.572252 -0.382436
C30   C     C_3   0.998726 0.158156 0.596014 -0.767662
H5    H     H_    0.034342 0.141985 0.499776 0.248679
H6    H     H_    0.043352 0.186199 0.682159 0.260635
H7    H     H_    0.967548 0.069459 0.624802 0.245538
H8    H     H_    0.895927 0.268579 0.669047 0.230787
H9    H     H_    0.887524 0.225203 0.487186 0.215415
C31   C     C_3   0.067338 0.733513 0.421468 -0.389499
C32   C     C_3   0.999909 0.831493 0.398954 -0.764858
H10   H     H_    0.954328 0.802380 0.314638 0.260246
H11   H     H_    0.965465 0.848362 0.496223 0.246552
H12   H     H_    0.030337 0.920154 0.368091 0.248875
H13   H     H_    0.112457 0.766124 0.505160 0.219773
H14   H     H_    0.102089 0.721723 0.323375 0.231056
C33   C     C_2   0.934463 0.558877 0.229317 0.892056
O13   O     O_2   0.983153 0.577141 0.134896 -0.531289
O14   O     O_R   0.847714 0.568815 0.205067 -0.764313
H15   H     H_    0.832825 0.591715 0.105020 0.356599
C34   C     C_2   0.066013 0.430212 0.766039 0.896737
O15   O     O_2   0.017211 0.412006 0.860313 -0.531408
O16   O     O_R   0.152691 0.419198 0.790275 -0.768587
H16   H     H_    0.167437 0.395519 0.890131 0.356479
C35   C     C_3   0.339033 0.133238 0.501408 -0.363398
C36   C     C_3   0.310465 0.163826 0.648374 -0.816559
H17   H     H_    0.358211 0.223372 0.703168 0.259816
H18   H     H_    0.250121 0.214512 0.642083 0.266068
H19   H     H_    0.301232 0.078523 0.710328 0.253432
H20   H     H_    0.288471 0.080645 0.443731 0.224646
H21   H     H_    0.344401 0.220889 0.442182 0.225805
C37   C     C_3   0.655936 0.867920 0.431226 -0.437952
C38   C     C_3   0.705682 0.822558 0.558291 -0.768999
H22   H     H_    0.766886 0.785790 0.524788 0.263091
H23   H     H_    0.717785 0.898752 0.635451 0.257695
H24   H     H_    0.670263 0.746780 0.607840 0.272133
H25   H     H_    0.639702 0.787911 0.361323 0.211086
H26   H     H_    0.698233 0.925654 0.368104 0.222776
C39   C     C_3   0.341511 0.856143 0.517073 -0.421727
C40   C     C_3   0.308036 0.817494 0.371577 -0.794883
H27   H     H_    0.355225 0.763304 0.314953 0.278577
H28   H     H_    0.250858 0.758467 0.381319 0.227332
H29   H     H_    0.291562 0.900067 0.308678 0.260741
H30   H     H_    0.350971 0.772108 0.581306 0.209361
H31   H     H_    0.291773 0.906658 0.571479 0.218249
C41   C     C_3   0.659349 0.143265 0.471791 -0.417209
C42   C     C_3   0.678937 0.183000 0.322955 -0.783824
H32   H     H_    0.678211 0.102423 0.250018 0.246073
H33   H     H_    0.632679 0.250735 0.283113 0.275986
H34   H     H_    0.742322 0.227890 0.322643 0.248493
H35   H     H_    0.657610 0.226961 0.540078 0.191761
H36   H     H_    0.713158 0.090479 0.515546 0.214022
C43   C     C_2   0.387410 0.335911 0.134506 0.892992
O17   O     O_2   0.316121 0.368905 0.158766 -0.531832
O18   O     O_R   0.409415 0.212518 0.157641 -0.748935
H37   H     H_    0.468990 0.194274 0.129252 0.296859
C44   C     C_2   0.613085 0.662309 0.868661 0.832352
O19   O     O_2   0.592136 0.768442 0.842180 -0.604026
O20   O     O_R   0.696599 0.626528 0.856840 -0.752002
H38   H     H_    0.734058 0.698024 0.828514 0.347614

loop_
_geom_bond_atom_site_label_1
_geom_bond_atom_site_label_2
_ccdc_geom_bond_type
C14   C31   S    
C33   O14   S    
C42   H32   S    
C5    C26   A    
C3    C39   S    
C27   O9    D    
C39   H31   S    
C1    O1    A    
C28   O11   D    
Cu1   O1    S    
C26   C37   S    
C7    C43   S    
C18   C24   T    
C14   C21   S    
C19   C21   S    
C35   H20   S    
C40   H28   S    
C32   H11   S    
C6    C25   A    
C29   H8    S    
C31   C32   S    
C11   O5    A    
C37   H25   S    
O12   H4    S    
Cu2   O3    S    
C30   H6    S    
C19   C34   S    
C25   C35   S    
C9    H1    S    
C31   H14   S    
C2    O2    A    
Cu2   O2    S    
C42   H33   S    
C27   O10   S    
C36   H19   S    
Cu2   N2    S    
C41   H35   S    
C28   O12   S    
C15   C20   S    
C30   H7    S    
C13   C19   S    
C41   H36   S    
C34   O15   D    
O18   H37   S    
C14   C20   S    
C3    C25   A    
C38   H22   S    
C15   C27   S    
C36   H18   S    
C38   H23   S    
C40   H27   S    
C32   H12   S    
Cu2   O7    S    
C39   C40   S    
Cu1   N1    S    
C1    C6    S    
C34   O16   S    
C12   O8    A    
O10   H3    S    
C10   N2    A    
C10   H2    S    
C43   O17   D    
Cu2   O6    S    
Cu1   O8    S    
C30   H5    S    
C44   O20   S    
C17   C23   T    
C11   O7    A    
C13   C29   S    
C4    C6    A    
C43   O18   S    
C20   C22   S    
O14   H15   S    
C42   H34   S    
C13   C15   S    
C14   C16   S    
C2    C5    S    
C35   H21   S    
C1    O3    A    
C2    O4    A    
C7    C9    A    
C11   C17   S    
C16   C22   S    
C7    N2    A    
C37   C38   S    
C8    N1    A    
C36   H17   S    
C3    C5    A    
C40   H29   S    
C16   C28   S    
C38   H24   S    
C4    C26   A    
C39   H30   S    
Cu1   O4    S    
O20   H38   S    
C20   C33   S    
C21   C23   S    
C35   C36   S    
C29   H9    S    
C32   H10   S    
Cu1   O5    S    
C16   C19   S    
C41   C42   S    
C13   C22   S    
C22   C24   S    
C12   O6    A    
O16   H16   S    
C8    C44   S    
C9    N1    A    
C33   O13   D    
C37   H26   S    
C15   C21   S    
C8    C10   A    
C29   C30   S    
C12   C18   S    
C44   O19   D    
C31   H13   S    
C4    C41   S    
Cu1   Cu2   S    
