data_mof_unit_2065.cif
_audit_creation_date              2012-12-11T15:23:31-0500
_audit_creation_method            fapswitch 2.2
_symmetry_space_group_name_H-M    P1
_symmetry_Int_Tables_number       1
_space_group_crystal_system       triclinic
_cell_length_a                    6.941439
_cell_length_b                    17.47842
_cell_length_c                    19.378085
_cell_angle_alpha                 109.456456
_cell_angle_beta                  90.304713
_cell_angle_gamma                 90.464392
_cell_volume                      2216.64354416

loop_
_atom_site_label
_atom_site_type_symbol
_atom_type_description
_atom_site_fract_x
_atom_site_fract_y
_atom_site_fract_z
_atom_type_partial_charge
O1    O     O_R   0.505810 0.439670 0.562310 -0.557436
O2    O     O_R   0.169070 0.404920 0.411210 -0.516998
O3    O     O_R   0.005550 0.560330 0.437690 -0.541535
C1    C     C_R   0.338201 0.381997 0.383101 0.834507
O4    O     O_R   0.175650 0.430000 0.560110 -0.520146
O5    O     O_R   0.012170 0.585580 0.587650 -0.529086
C2    C     C_R   0.344604 0.415990 0.582265 0.759936
O6    O     O_R   0.499180 0.414420 0.412350 -0.561735
O7    O     O_3   0.341430 0.551020 0.508860 -0.368144
V1    V     V_3+5 0.063930 0.490540 0.498360 1.610279
O8    O     O_R   0.682850 0.595080 0.588790 -0.526555
C3    C     C_R   0.852832 0.618835 0.616219 0.803703
O9    O     O_R   0.676280 0.570000 0.439890 -0.540475
C4    C     C_R   0.844957 0.584334 0.418187 0.641023
V2    V     V_3+5 0.564760 0.509460 0.501640 1.556015
O10   O     O_3   0.837130 0.448980 0.491140 -0.376543
C5    C     C_R   0.989402 0.899243 0.204392 -0.045923
C6    C     C_R   0.919731 0.866461 0.131621 -0.141364
C7    C     C_R   0.854056 0.785133 0.104461 -0.075848
C8    C     C_R   0.854418 0.736390 0.150516 -0.046131
C9    C     C_R   0.905057 0.771842 0.225568 -0.073356
C10   C     C_R   0.971735 0.853625 0.252738 -0.163263
C11   C     C_R   0.818641 0.651791 0.122457 0.604055
C12   C     C_R   0.815351 0.604423 0.168404 -0.185831
C13   C     C_R   0.831004 0.642396 0.245535 -0.004367
C14   C     C_R   0.891890 0.724976 0.273379 -0.025041
C15   C     C_R   0.941998 0.760544 0.348731 -0.133181
C16   C     C_R   0.007244 0.841969 0.374290 0.601826
C17   C     C_R   0.017621 0.887723 0.327995 0.535191
C18   C     C_R   0.793844 0.599919 0.295520 -0.032212
C19   C     C_R   0.856883 0.633197 0.368826 -0.151388
C20   C     C_R   0.929392 0.713261 0.395806 -0.081900
C21   C     C_3   0.835365 0.820661 0.739550 -0.219673
C22   C     C_3   0.000350 0.763755 0.700721 0.639575
H1    H     H_    0.795532 0.878148 0.730787 0.185521
C23   C     C_3   0.867433 0.689035 0.686260 -0.369693
C24   C     C_3   0.703378 0.744953 0.725564 0.557082
C25   C     C_3   0.767289 0.736724 0.798850 -0.179985
C26   C     C_3   0.932619 0.681353 0.759609 0.473747
C27   C     C_3   0.069046 0.755768 0.774093 -0.123335
C28   C     C_3   0.901637 0.811374 0.812968 -0.284156
H2    H     H_    0.220360 0.759788 0.793472 0.234473
C29   C     C_3   0.554248 0.274918 0.283867 -0.259807
C30   C     C_3   0.460879 0.189259 0.263876 -0.165167
H3    H     H_    0.695537 0.293564 0.311853 0.193739
C31   C     C_3   0.412432 0.190326 0.186237 -0.216818
C32   C     C_3   0.501726 0.276056 0.206249 0.659959
C33   C     C_3   0.306242 0.314832 0.234777 -0.221549
C34   C     C_3   0.215251 0.229385 0.215020 -0.256259
C35   C     C_3   0.265081 0.227806 0.292295 0.688125
C36   C     C_3   0.355355 0.313078 0.311990 -0.237848
C37   C     C_R   0.355582 0.096240 0.793922 -0.025279
C38   C     C_R   0.417294 0.132771 0.867674 -0.182201
C39   C     C_R   0.471242 0.215822 0.893769 -0.104039
C40   C     C_R   0.480341 0.260396 0.844256 0.006894
C41   C     C_R   0.400280 0.226599 0.773124 -0.061991
C42   C     C_R   0.332691 0.144926 0.748372 -0.153137
C43   C     C_R   0.578910 0.335617 0.862327 0.672013
C44   C     C_R   0.577648 0.381577 0.814873 -0.176959
C45   C     C_R   0.464683 0.354978 0.749503 0.001013
C46   C     C_R   0.388982 0.274475 0.726326 -0.100404
C47   C     C_R   0.302728 0.241433 0.656069 -0.245231
C48   C     C_R   0.229250 0.161781 0.633453 0.667974
C49   C     C_R   0.242815 0.114504 0.678608 0.500297
C50   C     C_R   0.430099 0.404612 0.705074 -0.140546
C51   C     C_R   0.356259 0.368989 0.633217 -0.258932
C52   C     C_R   0.292608 0.288208 0.609402 0.684309
O11   O     O_R   0.271890 0.085690 0.087580 -0.563096
O12   O     O_R   0.595690 0.070020 0.939870 -0.562593
O13   O     O_R   0.758900 0.914390 0.912370 -0.533503
C53   C     C_R   0.426910 0.084004 0.917556 0.687419
O14   O     O_R   0.602020 0.095100 0.088770 -0.508404
O15   O     O_R   0.765280 0.939660 0.062330 -0.532326
C54   C     C_R   0.432200 0.119552 0.115988 0.771955
O16   O     O_R   0.265520 0.060430 0.937620 -0.522938
O17   O     O_3   0.429560 0.949050 0.991100 -0.354522
V3    V     V_3+5 0.707160 0.009450 0.001650 1.579398
O18   O     O_R   0.094540 0.929890 0.060190 -0.543252
C55   C     C_R   0.926491 0.915845 0.082262 0.815132
O19   O     O_R   0.088200 0.904800 0.911290 -0.513232
C56   C     C_R   0.917972 0.881375 0.883460 0.872548
V4    V     V_3+5 0.206300 0.990390 0.998440 1.597456
O20   O     O_3   0.934030 0.050940 0.008900 -0.394459
C57   C     C_2   0.091225 0.979102 0.228096 0.550524
H4    H     H_    0.226838 0.986458 0.257761 0.106875
O21   O     O_2   0.024241 0.037239 0.215279 -0.480019
F1    F     F_    0.515202 0.739427 0.700559 -0.618483
C58   C     C_2   0.632296 0.718044 0.851071 0.539278
H5    H     H_    0.641559 0.660453 0.860574 0.126857
O22   O     O_2   0.510502 0.766926 0.882587 -0.519593
F2    F     F_    0.981757 0.609431 0.770017 -0.642497
C59   C     C_2   0.546595 0.121186 0.284051 0.601880
H6    H     H_    0.576207 0.129274 0.341062 0.107944
O23   O     O_2   0.583219 0.056724 0.236998 -0.520525
F3    F     F_    0.624274 0.302162 0.162455 -0.683625
C60   C     C_2   0.216842 0.382954 0.215664 0.492234
H7    H     H_    0.198736 0.377798 0.158660 0.095760
O24   O     O_2   0.163030 0.443890 0.263627 -0.537912
C61   C     C_2   0.024612 0.208123 0.176716 0.589336
H8    H     H_    0.002043 0.216841 0.124420 0.023881
O25   O     O_2   0.894724 0.180891 0.203846 -0.472211
C62   C     C_2   0.791083 0.751211 0.026863 0.494269
H9    H     H_    0.653167 0.720009 0.012875 0.114986
O26   O     O_2   0.896511 0.755701 0.978110 -0.532503
F4    F     F_    0.141984 0.202495 0.336478 -0.592700
C63   C     C_2   0.332410 0.006364 0.762405 0.502947
H10   H     H_    0.392066 0.974166 0.709053 0.145621
O27   O     O_2   0.244205 0.967774 0.794330 -0.517947
C64   C     C_2   0.504027 0.256051 0.973894 0.566475
H11   H     H_    0.576254 0.224460 0.006064 0.032769
O28   O     O_2   0.441593 0.323783 0.005392 -0.448669
F5    F     F_    0.697409 0.359735 0.921922 -0.585700
C65   C     C_2   0.716970 0.450520 0.829404 0.652403
H12   H     H_    0.777840 0.465874 0.784183 0.019234
O29   O     O_2   0.765277 0.490876 0.891681 -0.390866
C66   C     C_2   0.441326 0.494839 0.735487 0.429706
H13   H     H_    0.489312 0.529967 0.701906 0.044475
O30   O     O_2   0.387330 0.530957 0.797627 -0.472469
F6    F     F_    0.219563 0.255825 0.540380 -0.591129
F7    F     F_    0.140688 0.128868 0.567316 -0.500468
F8    F     F_    0.157464 0.040023 0.654221 -0.593058
F9    F     F_    0.805754 0.612784 0.049079 -0.600335
C67   C     C_2   0.824009 0.514546 0.133784 0.723288
H14   H     H_    0.900441 0.478653 0.161006 -0.004634
O31   O     O_2   0.745560 0.479610 0.075019 -0.384706
C68   C     C_2   0.671605 0.525145 0.274875 0.400526
H15   H     H_    0.703715 0.476305 0.295898 0.063516
O32   O     O_2   0.528662 0.519201 0.236402 -0.496910
C69   C     C_2   0.979001 0.747023 0.474827 0.613478
H16   H     H_    0.101306 0.723493 0.496208 0.072879
O33   O     O_2   0.877134 0.798147 0.516733 -0.436482
F10   F     F_    0.063817 0.879512 0.444738 -0.545209
F11   F     F_    0.066642 0.967214 0.359440 -0.580625
F12   F     F_    0.121217 0.777812 0.649680 -0.587238

loop_
_geom_bond_atom_site_label_1
_geom_bond_atom_site_label_2
_ccdc_geom_bond_type
C17   F11   S    
C9    C14   A    
C18   C68   S    
C68   H15   S    
C10   C17   A    
O12   V3    S    
C7    C8    A    
C4    C19   S    
C1    O6    A    
C67   H14   S    
C38   C39   A    
C66   H13   S    
C31   C34   S    
C14   C15   A    
C47   C48   A    
C47   C52   A    
C43   F5    S    
C16   C17   A    
C24   C25   S    
C57   O21   D    
C65   H12   S    
C64   O28   D    
O5    C3    A    
C18   C19   A    
C7    C62   S    
C67   O31   D    
C63   H10   S    
V3    O20   S    
O11   C54   A    
C49   F8    S    
C41   C42   A    
C6    C7    A    
O12   C53   A    
O13   C56   A    
C31   C32   S    
O8    V2    S    
C33   C36   S    
C19   C20   A    
C66   O30   D    
C6    C55   S    
C60   O24   D    
C35   F4    S    
C68   O32   D    
C11   C12   A    
O1    V2    S    
C3    C23   S    
C29   C32   S    
O7    V1    S    
C30   C59   S    
C58   H5    S    
C27   H2    S    
C51   C52   A    
C37   C63   S    
C44   C45   A    
O9    C4    A    
O13   V3    S    
C62   H9    S    
C26   F2    S    
C20   C69   S    
C30   C31   S    
C35   C36   S    
C11   F9    S    
O17   V3    S    
C1    C36   S    
C12   C13   A    
C25   C28   S    
O19   V4    S    
O17   V4    S    
C26   C27   S    
O4    C2    A    
O18   C55   A    
C43   C44   A    
C12   C67   S    
C21   C24   S    
C39   C64   S    
C25   C58   S    
C45   C46   A    
C16   F10   S    
O2    C1    A    
C29   C30   S    
O14   V3    S    
C34   C61   S    
O18   V4    S    
C32   C33   S    
C8    C11   A    
C44   C65   S    
C28   C56   S    
C60   H7    S    
C40   C41   A    
C59   O23   D    
C5    C6    A    
O15   C55   A    
C57   H4    S    
C62   O26   D    
C29   H3    S    
O3    C4    A    
O14   C54   A    
C27   C28   S    
C61   O25   D    
C58   O22   D    
C45   C50   A    
V4    O20   S    
O6    V2    S    
O9    V2    S    
C50   C66   S    
C22   C27   S    
O2    V1    S    
C31   C54   S    
C37   C38   A    
C42   C49   A    
C69   H16   S    
C30   C35   S    
C13   C18   A    
C39   C40   A    
C33   C34   S    
O15   V3    S    
C33   C60   S    
C15   C20   A    
O1    C2    A    
C24   F1    S    
C23   C26   S    
O19   C56   A    
O5    V1    S    
O8    C3    A    
O16   V4    S    
C5    C10   A    
C61   H8    S    
C5    C57   S    
O11   V4    S    
C13   C14   A    
C21   C28   S    
O4    V1    S    
O3    V1    S    
V1    O10   S    
C64   H11   S    
C2    C51   S    
C53   O16   A    
C48   F7    S    
C29   C36   S    
C25   C26   S    
C63   O27   D    
C59   H6    S    
C21   H1    S    
C21   C22   S    
C22   C23   S    
C50   C51   A    
O7    V2    S    
C46   C47   A    
C22   F12   S    
C37   C42   A    
C48   C49   A    
C8    C9    A    
C23   C24   S    
C34   C35   S    
C40   C43   A    
C15   C16   A    
C32   F3    S    
C41   C46   A    
C65   O29   D    
C9    C10   A    
C52   F6    S    
V2    O10   S    
C69   O33   D    
C38   C53   S    
