data_mof_unit_4844.cif
_audit_creation_date              2012-12-10T17:02:11-0500
_audit_creation_method            fapswitch 2.2
_symmetry_space_group_name_H-M    P1
_symmetry_Int_Tables_number       1
_space_group_crystal_system       triclinic
_cell_length_a                    10.634873
_cell_length_b                    10.705376
_cell_length_c                    10.043102
_cell_angle_alpha                 89.589433
_cell_angle_beta                  89.934851
_cell_angle_gamma                 90.028986
_cell_volume                      1143.38007205

loop_
_atom_site_label
_atom_site_type_symbol
_atom_type_description
_atom_site_fract_x
_atom_site_fract_y
_atom_site_fract_z
_atom_type_partial_charge
C1    C     C_R   0.493658 0.262773 0.500427 0.938237
C2    C     C_2   0.472459 0.131713 0.502616 -0.347940
C3    C     C_2   0.575333 0.568584 0.924381 -0.120744
C4    C     C_R   0.260699 0.502925 0.500045 0.889354
C5    C     C_2   0.570575 0.573435 0.074289 -0.114720
C6    C     C_R   0.500811 0.737402 0.499466 0.892115
C7    C     C_R   0.739359 0.502026 0.499899 0.915239
C8    C     C_R   0.130314 0.719117 0.602888 -0.152828
C9    C     C_R   0.064234 0.821345 0.652185 -0.132368
C10   C     C_R   0.933417 0.820788 0.652066 -0.149517
C11   C     C_R   0.868240 0.718136 0.602362 -0.157745
C12   C     C_R   0.065584 0.613725 0.553290 0.095449
C13   C     C_R   0.933837 0.613050 0.552983 0.040345
C14   C     C_3   0.858983 0.211498 0.483874 0.075590
C15   C     C_3   0.810278 0.094819 0.415446 -0.782821
C16   C     C_R   0.128551 0.509763 0.499947 -0.167332
C17   C     C_R   0.065635 0.409331 0.444087 -0.302462
C18   C     C_R   0.936712 0.406473 0.445906 0.465177
C19   C     C_R   0.871805 0.507971 0.499851 -0.229104
C20   C     C_2   0.461264 0.932810 0.392712 -0.149513
C21   C     C_2   0.505223 0.869597 0.497863 -0.337180
C22   C     C_2   0.466245 0.067437 0.389522 -0.176150
H1    H     H_    0.116880 0.331591 0.401452 0.166037
H2    H     H_    0.766721 0.722759 0.601790 0.133951
H3    H     H_    0.425194 0.885360 0.305368 0.173028
H4    H     H_    0.547172 0.913525 0.583986 0.142542
H5    H     H_    0.468805 0.113154 0.292615 0.175860
H6    H     H_    0.789274 0.240215 0.560547 0.140989
H7    H     H_    0.949553 0.187176 0.533607 0.131851
H8    H     H_    0.883436 0.057188 0.347720 0.250975
H9    H     H_    0.785947 0.022448 0.490902 0.200779
H10   H     H_    0.725178 0.117596 0.356332 0.270459
H11   H     H_    0.459369 0.088785 0.599793 0.153738
H12   H     H_    0.644335 0.627055 0.874340 0.160741
H13   H     H_    0.431805 0.450565 0.898273 0.164300
H14   H     H_    0.630850 0.640765 0.123165 0.160567
H15   H     H_    0.448842 0.433326 0.102784 0.162261
H16   H     H_    0.231848 0.724258 0.602485 0.142588
H17   H     H_    0.114685 0.901576 0.689665 0.134432
H18   H     H_    0.882263 0.900504 0.689708 0.127122
N1    N     N_2   0.501340 0.501330 0.852150 -0.191519
N2    N     N_2   0.501380 0.501360 0.147810 -0.191048
O1    O     O_R   0.499980 0.319060 0.613040 -0.621495
O2    O     O_R   0.500020 0.319100 0.386900 -0.605886
O3    O     O_R   0.316750 0.499980 0.613090 -0.618950
O4    O     O_R   0.316790 0.500020 0.386950 -0.611299
O5    O     O_R   0.499980 0.680900 0.613100 -0.627204
O6    O     O_R   0.500020 0.680940 0.386960 -0.613189
O7    O     O_R   0.683210 0.499980 0.613050 -0.630819
O8    O     O_R   0.683250 0.500020 0.386910 -0.573574
O9    O     O_3   0.874281 0.307369 0.387884 -0.592812
Zn1   Zn    Zn3+2 0.499970 0.499970 0.650990 0.933276
Zn2   Zn    Zn3+2 0.500030 0.500030 0.349010 0.961214

loop_
_geom_bond_atom_site_label_1
_geom_bond_atom_site_label_2
_ccdc_geom_bond_type
C2    C22   D    
C21   H4    S    
C15   H9    S    
O5    Zn1   S    
C9    C10   A    
N1    Zn1   S    
C22   H5    S    
C14   O9    S    
C17   H1    S    
C8    C12   A    
O7    Zn1   S    
O3    Zn1   S    
C17   C18   A    
C15   H10   S    
C4    O4    A    
C12   C13   A    
C11   C13   A    
C7    O7    A    
C6    O6    A    
C8    H16   S    
O4    Zn2   S    
C4    C16   S    
C20   C22   S    
C18   O9    S    
C1    C2    S    
C7    C19   S    
C4    O3    A    
N2    Zn2   S    
O6    Zn2   S    
H13   N1    S    
O1    Zn1   S    
O8    Zn2   S    
C16   C17   A    
C10   C11   A    
C13   C19   A    
C14   H7    S    
C5    H14   S    
C11   H2    S    
C9    H17   S    
C5    N2    D    
C20   C21   D    
C2    H11   S    
C15   H8    S    
C10   H18   S    
C18   C19   A    
C6    O5    A    
H15   N2    S    
C14   C15   S    
C3    N1    D    
C1    O2    A    
C3    H12   S    
C14   H6    S    
C6    C21   S    
O2    Zn2   S    
C1    O1    A    
C12   C16   A    
C7    O8    A    
C8    C9    A    
C3    C5    S    
C20   H3    S    
