data_mof_unit_568.cif
_audit_creation_date              2012-10-26T18:32:23-0400
_audit_creation_method            fapswitch 2.2
_symmetry_space_group_name_H-M    P1
_symmetry_Int_Tables_number       1
_space_group_crystal_system       triclinic
_cell_length_a                    12.333756
_cell_length_b                    13.213491
_cell_length_c                    15.883535
_cell_angle_alpha                 77.649396
_cell_angle_beta                  101.382386
_cell_angle_gamma                 116.237322
_cell_volume                      2252.47413148

loop_
_atom_site_label
_atom_site_type_symbol
_atom_type_description
_atom_site_fract_x
_atom_site_fract_y
_atom_site_fract_z
_atom_type_partial_charge
C1    C     C_R   0.854874 0.286695 0.504728 0.546506
C2    C     C_R   0.228257 0.836766 0.475982 0.051135
C3    C     C_R   0.814857 0.079140 0.542295 0.102711
C4    C     C_R   0.999881 0.499855 0.659588 0.550284
C5    C     C_R   0.731596 0.967934 0.567253 -0.120681
C6    C     C_R   0.607696 0.938633 0.550386 -0.139667
C7    C     C_R   0.562343 0.015394 0.498588 0.015664
C8    C     C_R   0.644710 0.129296 0.475082 -0.026954
C9    C     C_R   0.435645 0.983064 0.474836 -0.022920
C10   C     C_R   0.390985 0.067964 0.446615 0.092347
C11   C     C_R   0.472371 0.177787 0.413535 0.112229
C12   C     C_3   0.074592 0.430254 0.073154 0.053214
C13   C     C_R   0.596695 0.204332 0.422735 -0.132081
C14   C     C_R   0.352673 0.868630 0.472457 0.047427
C15   C     C_R   0.186037 0.922380 0.468417 0.047811
C16   C     C_R   0.145254 0.713867 0.487157 0.591222
C17   C     C_R   0.771662 0.163908 0.504098 0.019925
C18   C     C_R   0.347867 0.327658 0.637068 0.078093
C19   C     C_R   0.758634 0.641291 0.380950 0.036691
C20   C     C_R   0.656776 0.661951 0.346339 -0.154915
C21   C     C_R   0.548639 0.602769 0.384891 0.085587
C22   C     C_R   0.545830 0.527592 0.464544 0.025428
C23   C     C_3   0.011757 0.506729 0.083762 0.070222
C24   C     C_R   0.651640 0.504602 0.493852 0.139610
C25   C     C_R   0.443089 0.470165 0.514686 -0.028471
C26   C     C_R   0.445657 0.385593 0.586643 0.055196
C27   C     C_R   0.547163 0.360905 0.609149 -0.149561
C28   C     C_R   0.000367 0.500363 0.340419 0.543267
C29   C     C_R   0.647842 0.420382 0.565170 -0.115912
C30   C     C_R   0.339426 0.494941 0.499402 0.020476
C31   C     C_R   0.248098 0.356300 0.617168 0.262152
C32   C     C_3   0.070830 0.426583 0.974834 0.047194
C33   C     C_3   0.878212 0.462725 0.940240 -0.260589
C34   C     C_3   0.074954 0.631762 0.036345 0.053726
C35   C     C_3   0.879094 0.454888 0.038788 -0.281728
C36   C     C_1   0.002339 0.502077 0.250881 -0.035907
C37   C     C_3   0.009427 0.504151 0.917630 0.062379
C38   C     C_3   0.084440 0.629016 0.939483 0.026236
C39   C     C_1   0.005913 0.504055 0.175623 -0.081208
C40   C     C_1   0.004038 0.502364 0.824819 -0.085547
C41   C     C_1   0.001042 0.501075 0.749112 -0.040833
C42   C     C_R   0.266214 0.038241 0.448392 0.115686
Cu1   Cu    Cu3+1 0.098280 0.475420 0.519630 0.986195
Cu2   Cu    Cu3+1 0.901720 0.524580 0.480370 0.926941
H1    H     H_    0.021503 0.342348 0.105159 0.162910
H2    H     H_    0.020081 0.921216 0.420310 0.223133
H3    H     H_    0.471829 0.333579 0.392659 0.246071
H4    H     H_    0.455526 0.279413 0.301584 0.221577
H5    H     H_    0.187985 0.122077 0.490798 0.222586
H6    H     H_    0.153349 0.111076 0.383008 0.232351
H7    H     H_    0.414495 0.743035 0.498635 0.235670
H8    H     H_    0.460275 0.836692 0.407063 0.231516
H9    H     H_    0.958564 0.036071 0.591838 0.202096
H10   H     H_    0.974155 0.124407 0.497679 0.228790
H11   H     H_    0.762762 0.904089 0.602569 0.113964
H12   H     H_    0.548407 0.856164 0.580377 0.117558
H13   H     H_    0.012560 0.305466 0.892343 0.237205
H14   H     H_    0.919911 0.270493 0.969607 0.227757
H15   H     H_    0.653749 0.284245 0.387733 0.150712
H16   H     H_    0.182406 0.322358 0.731877 0.200941
H17   H     H_    0.114938 0.214287 0.671838 0.226996
H18   H     H_    0.551350 0.296503 0.663257 0.159963
H19   H     H_    0.277414 0.163885 0.697037 0.225483
H20   H     H_    0.343371 0.263772 0.765357 0.225530
H21   H     H_    0.331036 0.561359 0.450467 0.197765
H22   H     H_    0.840033 0.685131 0.348598 0.138481
H23   H     H_    0.720976 0.396143 0.589347 0.189767
H24   H     H_    0.426045 0.582649 0.277625 0.243579
H25   H     H_    0.457241 0.697745 0.323975 0.233798
H26   H     H_    0.660034 0.720634 0.286703 0.101039
H27   H     H_    0.839198 0.523718 0.904791 0.117035
H28   H     H_    0.816837 0.378891 0.918717 0.127301
H29   H     H_    0.831369 0.364000 0.067152 0.117904
H30   H     H_    0.826832 0.500470 0.049702 0.120750
H31   H     H_    0.214797 0.663818 0.859859 0.223591
H32   H     H_    0.251574 0.762355 0.921972 0.230246
H33   H     H_    0.222675 0.783339 0.053288 0.220794
H34   H     H_    0.043009 0.684636 0.896602 0.097103
H35   H     H_    0.181696 0.700282 0.145574 0.229729
H36   H     H_    0.165613 0.460795 0.958574 0.194301
H37   H     H_    0.257460 0.544237 0.085997 0.288162
H38   H     H_    0.202809 0.471986 0.181279 0.248568
H39   H     H_    0.014577 0.675090 0.034755 0.092521
H40   H     H_    0.059266 0.929911 0.528254 0.218025
N1    N     N_R   0.246300 0.438200 0.549400 -0.231223
N2    N     N_3   0.149148 0.302499 0.668914 -0.533841
N3    N     N_3   0.351096 0.240998 0.708458 -0.669503
N4    N     N_3   0.441296 0.611678 0.337029 -0.658666
N5    N     N_3   0.211989 0.674044 0.922703 -0.623503
N6    N     N_3   0.193347 0.698323 0.082653 -0.617816
N7    N     N_R   0.754300 0.561180 0.451130 -0.238815
N8    N     N_3   0.199967 0.465346 0.116420 -0.635698
N9    N     N_3   0.061456 0.891458 0.477940 -0.611990
N10   N     N_3   0.429016 0.259453 0.363815 -0.575426
N11   N     N_3   0.222818 0.125674 0.434815 -0.578060
N12   N     N_3   0.388300 0.791687 0.444888 -0.626089
N13   N     N_3   0.942830 0.106384 0.558069 -0.610497
N14   N     N_3   0.010645 0.307921 0.957351 -0.659652
O1    O     O_R   0.972520 0.318130 0.524690 -0.433895
O2    O     O_R   0.806530 0.359650 0.491530 -0.545209
O3    O     O_R   0.083030 0.479240 0.637150 -0.466614
O4    O     O_R   0.917040 0.520750 0.603990 -0.515538
O5    O     O_R   0.193470 0.640350 0.508470 -0.499555
O6    O     O_R   0.027480 0.681870 0.475310 -0.469469
O7    O     O_R   0.082960 0.479250 0.396010 -0.493659
O8    O     O_R   0.916970 0.520760 0.362850 -0.517128

loop_
_geom_bond_atom_site_label_1
_geom_bond_atom_site_label_2
_ccdc_geom_bond_type
C35   H30   S    
C8    C13   A    
C31   N1    A    
C10   C42   A    
C11   C13   A    
C19   C20   A    
H14   N14   S    
Cu1   Cu2   S    
C1    O1    A    
C34   N6    S    
Cu2   O6    S    
C7    C8    A    
C38   N5    S    
C26   C27   A    
H4    N10   S    
Cu1   O1    S    
C37   C40   S    
C5    C6    A    
H6    N11   S    
C27   C29   A    
C4    C41   S    
H38   N8    S    
C19   H22   S    
Cu1   O7    S    
C24   C29   A    
H35   N6    S    
C33   H28   S    
C29   H23   S    
H37   N8    S    
C16   O6    A    
C28   O8    A    
C22   C25   A    
C4    O4    A    
H10   N13   S    
H8    N12   S    
C2    C16   S    
C9    C10   A    
H20   N3    S    
H7    N12   S    
C21   N4    S    
C31   N2    S    
C21   C22   A    
C12   C32   S    
C20   H26   S    
C1    O2    A    
C14   N12   S    
C5    H11   S    
H33   N6    S    
C42   N11   S    
Cu1   N1    S    
H17   N2    S    
H16   N2    S    
C38   H34   S    
H9    N13   S    
C25   C26   A    
C33   C37   S    
C9    C14   A    
Cu1   O3    S    
C37   C38   S    
C27   H18   S    
C32   H36   S    
C3    N13   S    
C16   O5    A    
C12   C23   S    
C28   O7    A    
C23   C34   S    
C4    O3    A    
C32   C37   S    
H5    N11   S    
C30   N1    A    
C2    C15   A    
Cu2   N7    S    
H25   N4    S    
C11   N10   S    
C40   C41   T    
C23   C35   S    
H24   N4    S    
C22   C24   A    
C34   H39   S    
C24   N7    A    
C25   C30   A    
C7    C9    A    
C35   H29   S    
Cu2   O4    S    
H19   N3    S    
C34   C38   S    
C18   C26   A    
C12   N8    S    
C36   C39   T    
C8    C17   A    
C15   C42   A    
C6    H12   S    
C12   H1    S    
C3    C5    A    
C15   N9    S    
C6    C7    A    
C13   H15   S    
Cu2   O8    S    
H32   N5    S    
C1    C17   S    
C18   N3    S    
Cu2   O2    S    
H2    N9    S    
C23   C39   S    
H13   N14   S    
C33   C35   S    
H3    N10   S    
C32   N14   S    
C3    C17   A    
H40   N9    S    
C2    C14   A    
Cu1   O5    S    
C30   H21   S    
C19   N7    A    
C10   C11   A    
C33   H27   S    
C20   C21   A    
C28   C36   S    
H31   N5    S    
C18   C31   A    
