data_mof_unit_278.cif
_audit_creation_date              2012-12-11T20:57:55-0500
_audit_creation_method            fapswitch 2.2
_symmetry_space_group_name_H-M    P1
_symmetry_Int_Tables_number       1
_space_group_crystal_system       triclinic
_cell_length_a                    8.432412
_cell_length_b                    18.794695
_cell_length_c                    22.580702
_cell_angle_alpha                 99.165152
_cell_angle_beta                  90.371386
_cell_angle_gamma                 92.59103
_cell_volume                      3529.05415287

loop_
_atom_site_label
_atom_site_type_symbol
_atom_type_description
_atom_site_fract_x
_atom_site_fract_y
_atom_site_fract_z
_atom_type_partial_charge
Ba1   Ba    Ba6+2 0.157800 0.534120 0.474430 1.818544
Ba2   Ba    Ba6+2 0.652390 0.465870 0.525520 1.836080
C1    C     C_3   0.433106 0.723901 0.253417 0.668912
C2    C     C_R   0.067694 0.903611 0.558955 -0.038689
C3    C     C_R   0.206517 0.045994 0.546270 -0.053923
C4    C     C_3   0.906611 0.724624 0.360996 0.399921
C5    C     C_R   0.051984 0.022348 0.525064 0.059177
C6    C     C_R   0.261396 0.117188 0.548474 -0.077323
C7    C     C_R   0.166068 0.168084 0.528729 -0.010343
C8    C     C_R   0.016831 0.144439 0.501554 0.014393
C9    C     C_R   0.959700 0.071214 0.499419 0.042253
C10   C     C_R   0.216376 0.241741 0.534468 -0.038994
C11   C     C_R   0.118199 0.290515 0.513349 -0.306870
C12   C     C_3   0.475608 0.728842 0.320761 0.268131
C13   C     C_R   0.977002 0.267597 0.482051 0.058855
C14   C     C_R   0.925903 0.193599 0.475585 -0.019653
C15   C     C_R   0.839432 0.927714 0.500563 0.053390
C16   C     C_3   0.892720 0.801101 0.346909 0.045477
C17   C     C_R   0.782810 0.854393 0.498626 0.033115
C18   C     C_R   0.874860 0.805365 0.524393 -0.040563
C19   C     C_R   0.011350 0.832825 0.557648 0.002450
C20   C     C_R   0.788753 0.166631 0.442684 0.051296
C21   C     C_R   0.731055 0.096033 0.441593 -0.060834
C22   C     C_R   0.810367 0.047701 0.472049 0.009094
C23   C     C_3   0.464446 0.689914 0.702808 0.739430
C24   C     C_R   0.748268 0.976185 0.473837 0.030082
C25   C     C_R   0.595946 0.951620 0.450749 -0.060827
C26   C     C_R   0.634692 0.830309 0.470673 -0.036191
C27   C     C_R   0.541284 0.880501 0.449052 -0.070738
C28   C     C_3   0.819916 0.365594 0.337994 0.315467
C29   C     C_R   0.585724 0.756530 0.463798 -0.047644
C30   C     C_R   0.685812 0.707595 0.484805 -0.181725
C31   C     C_R   0.827485 0.730818 0.516699 0.068450
C32   C     C_R   0.647516 0.520855 0.332566 -0.337062
C33   C     C_R   0.520029 0.474430 0.919316 0.000064
C34   C     C_3   0.378748 0.752177 0.739160 -0.279929
C35   C     C_R   0.474604 0.461987 0.858362 0.625373
C36   C     C_R   0.252383 0.387737 0.880396 0.662755
C37   C     C_R   0.321543 0.384289 0.937153 -0.082655
C38   C     C_R   0.447052 0.432612 0.958405 -0.046052
C39   C     C_R   0.639183 0.526691 0.941671 -0.041610
C40   C     C_3   0.844008 0.343366 0.270709 0.266255
C41   C     C_R   0.676890 0.539862 0.002789 -0.028139
C42   C     C_R   0.606821 0.496661 0.041990 -0.015699
C43   C     C_R   0.499724 0.439341 0.018813 -0.091338
C44   C     C_R   0.266685 0.334291 0.973288 -0.063488
C45   C     C_3   0.897072 0.236302 0.658661 0.294338
C46   C     C_R   0.335727 0.332003 0.029921 0.407474
C47   C     C_R   0.447677 0.388555 0.055282 -0.113376
C48   C     C_R   0.509646 0.397940 0.115089 0.652994
C49   C     C_R   0.637541 0.510999 0.104061 0.632892
C50   C     C_2   0.147944 0.381925 0.750152 -0.103635
C51   C     C_3   0.106583 0.377999 0.684141 -0.171838
C52   C     C_3   0.020847 0.683586 0.671728 0.732934
C53   C     C_1   0.311750 0.476113 0.682795 0.045325
C54   C     C_2   0.340103 0.480338 0.740925 -0.024356
C55   C     C_2   0.268610 0.426913 0.777487 0.206101
C56   C     C_3   0.812260 0.162215 0.643024 0.001806
C57   C     C_R   0.746219 0.515747 0.231876 -0.041776
C58   C     C_R   0.765805 0.538561 0.293527 -0.027761
C59   C     C_R   0.507158 0.482435 0.310854 0.009750
C60   C     C_R   0.478599 0.467499 0.247739 0.147853
C61   C     C_R   0.601883 0.481791 0.207043 0.171827
C62   C     C_2   0.209244 0.428063 0.652620 -0.108259
C63   C     C_3   0.994489 0.740868 0.726646 -0.295965
C64   C     C_3   0.318603 0.312698 0.394600 0.298767
C65   C     C_3   0.345945 0.231939 0.379829 0.342253
C66   C     C_3   0.379673 0.259606 0.673486 0.272342
C67   C     C_3   0.424342 0.218187 0.724121 0.189845
C68   C     C_R   0.988671 0.951379 0.527911 0.034787
H1    H     H_    0.540914 0.680006 0.325826 -0.089126
H2    H     H_    0.361644 0.672896 0.238874 0.001123
H3    H     H_    0.323434 0.205826 0.419777 -0.074941
H4    H     H_    0.471643 0.224161 0.366973 0.064310
H5    H     H_    0.552186 0.778042 0.334915 0.010109
H6    H     H_    0.314274 0.733582 0.776895 0.108282
H7    H     H_    0.465495 0.796127 0.758721 0.146845
H8    H     H_    0.296517 0.776958 0.711114 0.117230
H9    H     H_    0.789399 0.826310 0.369669 0.000827
H10   H     H_    0.996297 0.239304 0.627129 -0.066773
H11   H     H_    0.942738 0.242975 0.705514 0.076775
H12   H     H_    0.811832 0.387095 0.246459 -0.108682
H13   H     H_    0.789733 0.148936 0.594017 0.066949
H14   H     H_    0.697010 0.162125 0.665538 0.134066
H15   H     H_    0.258437 0.240452 0.657287 -0.056465
H16   H     H_    0.383986 0.317798 0.691381 0.035692
H17   H     H_    0.982314 0.726787 0.401687 0.048407
H18   H     H_    0.459358 0.163261 0.704933 0.090081
H19   H     H_    0.159105 0.346307 0.516569 0.046766
H20   H     H_    0.379728 0.131449 0.566232 0.100714
H21   H     H_    0.078370 0.800321 0.583086 0.077555
H22   H     H_    0.723070 0.199387 0.417057 0.113503
H23   H     H_    0.971055 0.333156 0.262205 0.101198
H24   H     H_    0.425663 0.865194 0.429221 0.136762
H25   H     H_    0.648854 0.651037 0.479034 0.073944
H26   H     H_    0.289242 0.010413 0.561343 0.081317
H27   H     H_    0.173192 0.919699 0.585824 0.100566
H28   H     H_    0.624639 0.080676 0.415148 0.098202
H29   H     H_    0.785711 0.703953 0.370247 -0.147274
H30   H     H_    0.514464 0.986226 0.433709 0.104438
H31   H     H_    0.174004 0.294634 0.955878 0.197012
H32   H     H_    0.762787 0.583278 0.019114 0.147413
H33   H     H_    0.845901 0.524102 0.203517 0.145150
H34   H     H_    0.134836 0.696086 0.651086 -0.028974
H35   H     H_    0.697590 0.559970 0.912533 0.139517
H36   H     H_    0.384652 0.531733 0.765202 0.131799
H37   H     H_    0.087681 0.340821 0.770568 0.165648
H38   H     H_    0.668194 0.534345 0.380464 0.072221
H39   H     H_    0.190094 0.427009 0.605050 0.067129
H40   H     H_    0.874032 0.800225 0.298442 0.186362
H41   H     H_    0.692121 0.371943 0.347345 -0.019864
H42   H     H_    0.888016 0.417476 0.352854 -0.037880
H43   H     H_    0.784836 0.284853 0.151565 0.345221
H44   H     H_    0.857580 0.551169 0.752458 0.378905
H45   H     H_    0.030521 0.795211 0.716660 0.078974
H46   H     H_    0.133684 0.210503 0.235012 0.401804
H47   H     H_    0.776040 0.801320 0.183178 0.380566
H48   H     H_    0.379643 0.738426 0.572717 0.350395
H49   H     H_    0.071427 0.809355 0.221517 0.371459
H50   H     H_    0.121617 0.161371 0.043935 0.396333
H51   H     H_    0.058669 0.730248 0.766874 0.117561
H52   H     H_    0.868391 0.742526 0.738518 0.188261
H53   H     H_    0.190855 0.321461 0.401056 -0.020041
H54   H     H_    0.385836 0.334168 0.436560 -0.009724
I1    I     I_    0.608606 0.661663 0.773168 -0.354281
I2    I     I_    0.939653 0.079544 0.674100 -0.395517
I3    I     I_    0.230891 0.201318 0.781350 -0.303830
I4    I     I_    0.609114 0.274062 0.781132 -0.283022
I5    I     I_    0.243980 0.432054 0.215936 -0.274537
I6    I     I_    0.090261 0.872079 0.378715 -0.306768
N1    N     N_R   0.330597 0.425100 0.839212 -0.421812
N2    N     N_R   0.581875 0.463522 0.141397 -0.443115
O1    O     O_2   0.110690 0.676100 0.539200 -0.517620
O2    O     O_2   0.787549 0.420558 0.712312 -0.399525
O3    O     O_3   0.788236 0.289360 0.653384 -0.551673
O4    O     O_3   0.863220 0.586720 0.534720 -0.409214
O5    O     O_3   0.450900 0.461390 0.429220 -0.506422
O6    O     O_2   0.599830 0.538970 0.641850 -0.375508
O7    O     O_3   0.352214 0.634707 0.679256 -0.627079
O8    O     O_2   0.533981 0.244501 0.514254 -0.494045
O9    O     O_3   0.489824 0.247781 0.627017 -0.569769
O10   O     O_2   0.566832 0.482492 0.822519 -0.565514
O11   O     O_2   0.121116 0.358864 0.869242 -0.557392
O12   O     O_3   0.372020 0.345525 0.346636 -0.567224
O13   O     O_2   0.499939 0.348379 0.143817 -0.447373
O14   O     O_2   0.712648 0.566430 0.124687 -0.500963
O15   O     O_3   0.368310 0.629070 0.432760 -0.460495
O16   O     O_2   0.252953 0.754440 0.468776 -0.482964
O17   O     O_3   0.896150 0.685672 0.632428 -0.561005
O18   O     O_3   0.338354 0.731859 0.356152 -0.556610
O19   O     O_2   0.210480 0.460990 0.358130 -0.454975
O20   O     O_3   0.959520 0.592090 0.401630 -0.518270
O21   O     O_2   0.102441 0.555616 0.300017 -0.444936
O22   O     O_2   0.553782 0.278470 0.246131 -0.178738
O23   O     O_3   0.971031 0.679455 0.312148 -0.498172
O24   O     O_2   0.762727 0.203207 0.273971 -0.185817
O25   O     O_3   0.770527 0.239128 0.167880 -0.390125
O26   O     O_2   0.055266 0.546132 0.636256 -0.355115
O27   O     O_2   0.129539 0.593893 0.742449 -0.406622
O28   O     O_3   0.838210 0.566960 0.713313 -0.454938
O29   O     O_2   0.055279 0.176955 0.343337 -0.286875
O30   O     O_2   0.283385 0.115192 0.296669 -0.189173
O31   O     O_3   0.213025 0.236629 0.264067 -0.408238
O32   O     O_2   0.725579 0.673451 0.229634 -0.328016
O33   O     O_2   0.561651 0.694094 0.144568 -0.213821
O34   O     O_2   0.699610 0.323860 0.460780 -0.486895
O35   O     O_3   0.690585 0.805667 0.213246 -0.476375
O36   O     O_2   0.686035 0.779973 0.662871 -0.301468
O37   O     O_2   0.603007 0.666254 0.596581 -0.344148
O38   O     O_3   0.413836 0.771404 0.609561 -0.554964
O39   O     O_2   0.366762 0.865034 0.280243 -0.223533
O40   O     O_2   0.349157 0.810828 0.174409 -0.181741
O41   O     O_3   0.126784 0.775798 0.243340 -0.481639
O42   O     O_2   0.417407 0.218366 0.080174 -0.154556
O43   O     O_2   0.188234 0.283851 0.122263 -0.228105
O44   O     O_3   0.152162 0.199689 0.020163 -0.486736
O45   O     O_3   0.947090 0.413280 0.465240 -0.497453
O46   O     O_3   0.442000 0.370930 0.567190 -0.494256
O47   O     O_3   0.876785 0.311085 0.366383 -0.589852
O48   O     O_3   0.359410 0.538600 0.570730 -0.424688
O49   O     O_3   0.850780 0.407910 0.598320 -0.411724
P1    P     P_3+3 0.935930 0.665430 0.555670 1.143989
P2    P     P_3+3 0.382700 0.439650 0.365620 1.053943
P3    P     P_3+3 0.948801 0.589745 0.324825 1.057590
P4    P     P_3+3 0.874370 0.334570 0.444280 1.007283
P5    P     P_3+3 0.886483 0.374353 0.664375 1.094987
P6    P     P_3+3 0.389236 0.720687 0.429972 0.992546
P7    P     P_3+3 0.413322 0.547486 0.646950 1.160347
P8    P     P_3+3 0.416915 0.276795 0.562228 0.949674
S1    S     S_3+6 0.727037 0.263832 0.240625 0.058056
S2    S     S_3+6 0.014307 0.595915 0.691885 -0.077982
S3    S     S_3+6 0.219592 0.187534 0.320048 0.031841
S4    S     S_3+6 0.607983 0.721813 0.208757 -0.030914
S5    S     S_3+6 0.550720 0.727136 0.642007 -0.084796
S6    S     S_3+6 0.320249 0.797481 0.237482 0.064432
S7    S     S_3+6 0.274471 0.257673 0.065567 0.033603

loop_
_geom_bond_atom_site_label_1
_geom_bond_atom_site_label_2
_ccdc_geom_bond_type
C58   P3    S    
C53   C54   D    
O42   S7    D    
C66   H15   S    
C25   C27   A    
C40   H23   S    
O35   S4    S    
C12   H1    S    
O2    P5    D    
H46   O31   S    
C17   C18   A    
C40   H12   S    
C51   P5    S    
C5    C68   A    
O30   S3    D    
Ba1   P2    S    
C52   C63   S    
C42   C43   A    
O16   P6    D    
C5    C9    A    
C10   P8    S    
C13   P4    S    
C24   C25   A    
C1    S4    S    
C39   H35   S    
C15   C24   A    
C52   H34   S    
C26   C27   A    
C23   O7    S    
C22   C24   A    
C34   H7    S    
C36   C37   A    
C51   C62   S    
C64   O12   S    
H48   O38   S    
C13   C14   A    
O34   P4    D    
C9    C22   A    
O45   P4    S    
C54   C55   S    
Ba1   O20   S    
Ba1   Ba2   S    
C36   O11   D    
C4    H29   S    
C23   I1    S    
O25   S1    S    
H43   O25   S    
O48   P7    S    
C15   C17   A    
C66   C67   S    
Ba1   O45   S    
H50   O44   S    
C50   H37   S    
C16   H9    S    
O41   S6    S    
C21   C22   A    
Ba1   O19   S    
O31   S3    S    
C65   H3    S    
Ba2   O45   S    
C63   H51   S    
O20   P3    S    
Ba1   O4    S    
C34   H6    S    
C7    C8    A    
Ba2   O34   S    
O3    P5    S    
C4    O23   S    
C11   H19   S    
C64   C65   S    
O22   S1    D    
O12   P2    S    
C15   C68   A    
O36   S5    D    
C2    H27   S    
C46   S7    S    
C32   C58   A    
O8    P8    D    
C39   C41   A    
C60   I5    S    
C21   H28   S    
Ba2   O48   S    
C45   H10   S    
O29   S3    D    
Ba1   O1    S    
C2    C68   A    
C52   O17   S    
C38   C43   A    
C4    C16   S    
C44   H31   S    
C44   C46   A    
C25   H30   S    
C59   P2    S    
C35   O10   D    
Ba2   O6    S    
O27   S2    D    
O49   P5    S    
O9    P8    S    
C67   I4    S    
O39   S6    D    
C50   C55   D    
C37   C38   A    
C3    C5    A    
O46   P8    S    
O23   P3    S    
C6    C7    A    
C49   O14   D    
O15   P6    S    
C53   P7    S    
C32   C59   A    
Ba2   O4    S    
C4    H17   S    
C35   N1    Am   
C28   H42   S    
Ba2   O49   S    
O6    P7    D    
C41   C42   A    
C60   C61   A    
C56   H14   S    
C65   S3    S    
C40   S1    S    
C29   C30   A    
O21   P3    D    
C43   C47   A    
C49   N2    Am   
H44   O28   S    
C53   C62   D    
C12   O18   S    
C66   O9    S    
C65   H4    S    
C63   H52   S    
O44   S7    S    
C17   C26   A    
C67   H18   S    
C54   H36   S    
C1    C12   S    
C48   N2    Am   
C37   C44   A    
O47   P4    S    
C66   H16   S    
C42   C49   A    
C46   C47   A    
C56   I2    S    
C11   C13   A    
O17   P1    S    
C64   H54   S    
C16   I6    S    
C6    H20   S    
C18   C31   A    
O4    P1    S    
O7    P7    S    
O43   S7    D    
O18   P6    S    
C3    H26   S    
Ba1   O5    S    
C50   C51   S    
C48   O13   D    
O38   S5    S    
C19   H21   S    
C33   C35   A    
C14   C20   A    
C64   H53   S    
C45   O3    S    
O32   S4    D    
Ba2   O5    S    
C55   N1    S    
C26   C29   A    
C16   H40   S    
O28   S2    S    
O33   S4    D    
C3    C6    A    
Ba1   P1    S    
O19   P2    D    
O37   S5    D    
O5    P2    S    
C57   C61   A    
C28   H41   S    
C32   H38   S    
C30   C31   A    
C33   C38   A    
C63   H45   S    
C41   H32   S    
C57   H33   S    
C34   H8    S    
C56   H13   S    
C36   N1    Am   
C45   C56   S    
C2    C19   A    
C62   H39   S    
C27   H24   S    
C28   O47   S    
H47   O35   S    
Ba1   O48   S    
C61   N2    S    
C1    H2    S    
C45   H11   S    
C59   C60   A    
C33   C39   A    
C7    C10   A    
C1    S6    S    
Ba2   P4    S    
Ba1   O15   S    
C8    C9    A    
C23   C34   S    
C52   S2    S    
O1    P1    D    
C57   C58   A    
C30   H25   S    
C18   C19   A    
C67   I3    S    
C47   C48   A    
C29   P6    S    
C31   P1    S    
C20   H22   S    
C20   C21   A    
C28   C40   S    
O40   S6    D    
C8    C14   A    
Ba2   O46   S    
C10   C11   A    
O26   S2    D    
H49   O41   S    
C23   S5    S    
C12   H5    S    
O24   S1    D    
