data_mof_unit_4528.cif
_audit_creation_date              2012-12-10T17:00:05-0500
_audit_creation_method            fapswitch 2.2
_symmetry_space_group_name_H-M    P1
_symmetry_Int_Tables_number       1
_space_group_crystal_system       triclinic
_cell_length_a                    15.136449
_cell_length_b                    15.05787
_cell_length_c                    10.081727
_cell_angle_alpha                 89.107741
_cell_angle_beta                  90.439229
_cell_angle_gamma                 89.899111
_cell_volume                      2297.50405154

loop_
_atom_site_label
_atom_site_type_symbol
_atom_type_description
_atom_site_fract_x
_atom_site_fract_y
_atom_site_fract_z
_atom_type_partial_charge
C1    C     C_R   0.382747 0.879709 0.499929 0.899727
C2    C     C_2   0.706826 0.226918 0.390542 -0.186918
C3    C     C_2   0.197874 0.265735 0.392641 -0.190664
C4    C     C_2   0.206875 0.726866 0.390545 -0.186886
C5    C     C_2   0.654474 0.789108 0.502679 -0.062439
C6    C     C_2   0.656437 0.208973 0.496739 -0.044088
C7    C     C_2   0.154459 0.289098 0.502682 -0.062464
C8    C     C_2   0.156456 0.708959 0.496722 -0.044037
C9    C     C_2   0.262510 0.195684 0.393612 -0.133473
C10   C     C_2   0.271197 0.796832 0.389962 -0.166543
C11   C     C_2   0.762533 0.695707 0.393602 -0.133429
C12   C     C_R   0.382626 0.120207 0.498736 0.904475
C13   C     C_2   0.771151 0.296883 0.389976 -0.166573
C14   C     C_2   0.319505 0.190048 0.494670 -0.364240
C15   C     C_2   0.320846 0.808871 0.498004 -0.366478
C16   C     C_2   0.819522 0.690062 0.494665 -0.364178
C17   C     C_2   0.820832 0.308883 0.497997 -0.366387
C18   C     C_2   0.484136 0.067334 0.926708 -0.082941
C19   C     C_2   0.984278 0.567370 0.926709 -0.082981
C20   C     C_2   0.464160 0.059370 0.072030 0.698574
C21   C     C_2   0.964288 0.559451 0.072031 0.698582
C22   C     C_3   0.640362 0.727490 0.622869 -0.399779
C23   C     C_R   0.882744 0.379712 0.499928 0.899675
C24   C     C_3   0.542999 0.700254 0.635005 -0.364535
C25   C     C_3   0.527127 0.646072 0.761746 -0.882722
C26   C     C_3   0.637175 0.275114 0.606814 -0.408038
C27   C     C_3   0.537807 0.294338 0.618216 -0.358561
C28   C     C_3   0.520096 0.368997 0.715209 -0.874306
C29   C     C_3   0.140342 0.227486 0.622878 -0.399709
C30   C     C_3   0.042972 0.200278 0.635036 -0.364569
C31   C     C_3   0.027088 0.146128 0.761803 -0.882593
C32   C     C_3   0.137162 0.775137 0.606734 -0.408077
C33   C     C_3   0.037788 0.794349 0.618077 -0.358536
C34   C     C_R   0.882631 0.620211 0.498735 0.904462
C35   C     C_3   0.020045 0.869089 0.714920 -0.874272
C36   C     C_3   0.473512 0.910261 0.892612 -0.168847
C37   C     C_3   0.372589 0.902742 0.910385 -0.389401
C38   C     C_3   0.343050 0.805860 0.914146 -0.905799
C39   C     C_3   0.973335 0.410317 0.892614 -0.168801
C40   C     C_3   0.872390 0.402990 0.910298 -0.389345
C41   C     C_3   0.842680 0.306162 0.914194 -0.905749
C42   C     C_R   0.612731 0.124150 0.499527 0.886565
C43   C     C_R   0.612115 0.875164 0.501042 0.886845
C44   C     C_R   0.112737 0.624144 0.499526 0.886577
C45   C     C_R   0.112112 0.375162 0.501042 0.886818
C46   C     C_2   0.697897 0.765757 0.392638 -0.190700
F1    F     F_    0.405092 0.116781 0.123974 -0.703351
F2    F     F_    0.905375 0.617016 0.123990 -0.703275
F3    F     F_    0.582456 0.976927 0.108211 -0.621471
F4    F     F_    0.082409 0.476757 0.108220 -0.621482
H1    H     H_    0.695238 0.806087 0.302360 0.199303
H2    H     H_    0.313898 0.767678 0.586731 0.156953
H3    H     H_    0.817268 0.735206 0.577762 0.157983
H4    H     H_    0.813905 0.267664 0.586704 0.156928
H5    H     H_    0.479813 0.132757 0.880530 0.131065
H6    H     H_    0.980097 0.632800 0.880529 0.131066
H7    H     H_    0.569855 0.586052 0.764514 0.264500
H8    H     H_    0.541496 0.686891 0.850167 0.265944
H9    H     H_    0.456961 0.624820 0.765325 0.254989
H10   H     H_    0.499771 0.759551 0.636459 0.225202
H11   H     H_    0.523772 0.659962 0.547953 0.230211
H12   H     H_    0.708954 0.182887 0.306182 0.179902
H13   H     H_    0.678343 0.664782 0.617193 0.225334
H14   H     H_    0.662421 0.762012 0.713979 0.215982
H15   H     H_    0.547001 0.351306 0.815013 0.267106
H16   H     H_    0.551059 0.431635 0.679430 0.261412
H17   H     H_    0.447766 0.379874 0.723310 0.257216
H18   H     H_    0.510316 0.313671 0.519291 0.230263
H19   H     H_    0.502781 0.234213 0.654332 0.238861
H20   H     H_    0.662674 0.247775 0.702790 0.206585
H21   H     H_    0.669583 0.340027 0.588346 0.234293
H22   H     H_    0.069780 0.086082 0.764580 0.264527
H23   H     H_    0.195214 0.306061 0.302357 0.199341
H24   H     H_    0.041491 0.186955 0.850204 0.265946
H25   H     H_    0.956910 0.124919 0.765412 0.254961
H26   H     H_    0.999760 0.259586 0.636470 0.225225
H27   H     H_    0.023730 0.159974 0.548004 0.230200
H28   H     H_    0.178307 0.164768 0.617195 0.225333
H29   H     H_    0.162420 0.262005 0.713981 0.216014
H30   H     H_    0.046959 0.851499 0.814756 0.267130
H31   H     H_    0.050982 0.931709 0.679014 0.261422
H32   H     H_    0.947712 0.879943 0.723000 0.257214
H33   H     H_    0.010300 0.813590 0.519112 0.230306
H34   H     H_    0.209028 0.682806 0.306220 0.179856
H35   H     H_    0.002776 0.734243 0.654301 0.238832
H36   H     H_    0.162646 0.747837 0.702743 0.206542
H37   H     H_    0.169564 0.840047 0.588223 0.234315
H38   H     H_    0.360264 0.772763 0.820192 0.264201
H39   H     H_    0.375415 0.769880 0.998443 0.267704
H40   H     H_    0.270320 0.802603 0.926978 0.257503
H41   H     H_    0.352436 0.933448 0.004775 0.206024
H42   H     H_    0.337205 0.938365 0.828661 0.255864
H43   H     H_    0.494118 0.864498 0.813832 0.216180
H44   H     H_    0.508446 0.883386 0.980543 0.203637
H45   H     H_    0.266859 0.153055 0.307905 0.218571
H46   H     H_    0.859946 0.272932 0.820365 0.264161
H47   H     H_    0.874880 0.270210 0.998658 0.267700
H48   H     H_    0.769927 0.303047 0.926833 0.257471
H49   H     H_    0.852250 0.433810 0.004611 0.205968
H50   H     H_    0.837103 0.438612 0.828479 0.255882
H51   H     H_    0.993894 0.364504 0.813873 0.216120
H52   H     H_    0.008182 0.383387 0.980583 0.203651
H53   H     H_    0.280799 0.834639 0.298505 0.186739
H54   H     H_    0.766883 0.653083 0.307889 0.218415
H55   H     H_    0.780732 0.334718 0.298541 0.186705
H56   H     H_    0.317249 0.235194 0.577763 0.157985
N1    N     N_2   0.501330 0.000000 0.852150 -0.098775
N2    N     N_2   0.001330 0.500000 0.852150 -0.098787
N3    N     N_2   0.501360 0.000000 0.147810 0.073813
N4    N     N_2   0.001360 0.500000 0.147810 0.073799
O1    O     O_R   0.409520 0.909540 0.613040 -0.643480
O2    O     O_R   0.590440 0.909540 0.613100 -0.624189
O3    O     O_R   0.090440 0.590460 0.613100 -0.613276
O4    O     O_R   0.090440 0.409540 0.613100 -0.624109
O5    O     O_R   0.590480 0.090460 0.386960 -0.588032
O6    O     O_R   0.590480 0.909540 0.386960 -0.571118
O7    O     O_R   0.090480 0.590460 0.386960 -0.588050
O8    O     O_R   0.090480 0.409540 0.386960 -0.571047
O9    O     O_R   0.409520 0.090460 0.613040 -0.642344
O10   O     O_R   0.909520 0.409540 0.613040 -0.643530
O11   O     O_R   0.909520 0.590460 0.613040 -0.642349
O12   O     O_R   0.409560 0.909540 0.386900 -0.613922
O13   O     O_R   0.409560 0.090460 0.386900 -0.552424
O14   O     O_R   0.909560 0.409540 0.386900 -0.613921
O15   O     O_R   0.909560 0.590460 0.386900 -0.552448
O16   O     O_R   0.590440 0.090460 0.613100 -0.613240
Zn1   Zn    Zn3+2 0.499970 0.000000 0.650990 0.930342
Zn2   Zn    Zn3+2 0.999970 0.500000 0.650990 0.930323
Zn3   Zn    Zn3+2 0.500030 0.000000 0.349010 1.062175
Zn4   Zn    Zn3+2 0.000030 0.500000 0.349010 1.062182

loop_
_geom_bond_atom_site_label_1
_geom_bond_atom_site_label_2
_ccdc_geom_bond_type
C19   H6    S    
C45   O8    A    
O16   Zn1   S    
C7    C29   S    
C4    C8    D    
C40   H49   S    
C21   N4    D    
C35   H31   S    
O3    Zn2   S    
C38   H39   S    
C26   C27   S    
C37   C38   S    
C3    C9    S    
C7    C45   S    
C10   H53   S    
C19   C21   S    
C3    C7    D    
C10   C15   D    
C30   C31   S    
C41   H46   S    
C35   H30   S    
F4    N4    S    
O4    Zn2   S    
C2    C13   S    
C33   H35   S    
C18   N1    D    
O2    Zn1   S    
C27   H18   S    
C16   C34   S    
C22   H13   S    
C16   H3    S    
C30   H27   S    
C6    C42   S    
C45   O4    A    
C5    C22   S    
C29   H29   S    
C11   H54   S    
C1    C15   S    
C9    H45   S    
O12   Zn3   S    
C18   C20   S    
C27   H19   S    
C21   F2    S    
C19   N2    D    
C5    C43   S    
O13   Zn3   S    
C36   N1    S    
C26   H21   S    
C2    C6    D    
C25   H7    S    
C36   H43   S    
C35   H32   S    
C39   H51   S    
C39   N2    S    
C29   H28   S    
C8    C32   S    
C28   H17   S    
C24   C25   S    
O11   Zn2   S    
C13   H55   S    
C23   O10   A    
C37   H41   S    
C31   H24   S    
C32   H37   S    
C46   H1    S    
C38   H38   S    
C28   H16   S    
C9    C14   D    
C29   C30   S    
O8    Zn4   S    
C43   O6    A    
C12   O9    A    
C30   H26   S    
C11   C16   D    
C31   H25   S    
C4    H34   S    
C24   H10   S    
C32   H36   S    
O14   Zn4   S    
C17   C23   S    
C15   H2    S    
N2    Zn2   S    
O7    Zn4   S    
C33   H33   S    
C18   H5    S    
C24   H11   S    
C40   C41   S    
C12   C14   S    
C44   O3    A    
C34   O11   A    
O1    Zn1   S    
C26   H20   S    
C22   C24   S    
C43   O2    A    
C42   O16   A    
C4    C10   S    
C39   C40   S    
C39   H52   S    
F3    N3    S    
O5    Zn3   S    
C31   H22   S    
C37   H42   S    
C8    C44   S    
C40   H50   S    
O10   Zn2   S    
C23   O14   A    
O6    Zn3   S    
C5    C46   D    
C38   H40   S    
C13   C17   D    
C32   C33   S    
C28   H15   S    
N1    Zn1   S    
C1    O1    A    
N3    Zn3   S    
C6    C26   S    
C12   O13   A    
C44   O7    A    
C34   O15   A    
C33   C35   S    
N4    Zn4   S    
C41   H47   S    
C3    H23   S    
C20   F1    S    
O15   Zn4   S    
C22   H14   S    
C20   N3    D    
C36   H44   S    
C42   O5    A    
C14   H56   S    
C36   C37   S    
C25   H8    S    
C27   C28   S    
C41   H48   S    
C11   C46   S    
C25   H9    S    
C2    H12   S    
C17   H4    S    
C1    O12   A    
O9    Zn1   S    
