data_mof_unit_1971.cif
_audit_creation_date              2012-12-11T16:09:26-0500
_audit_creation_method            fapswitch 2.2
_symmetry_space_group_name_H-M    P1
_symmetry_Int_Tables_number       1
_space_group_crystal_system       triclinic
_cell_length_a                    6.961002
_cell_length_b                    21.344318
_cell_length_c                    23.602296
_cell_angle_alpha                 90.039683
_cell_angle_beta                  90.030026
_cell_angle_gamma                 89.572671
_cell_volume                      3506.67931838

loop_
_atom_site_label
_atom_site_type_symbol
_atom_type_description
_atom_site_fract_x
_atom_site_fract_y
_atom_site_fract_z
_atom_type_partial_charge
O1    O     O_R   0.494270 0.443530 0.442350 -0.535806
O2    O     O_R   0.824060 0.436290 0.557250 -0.544584
O3    O     O_R   0.994370 0.556470 0.557650 -0.533940
C1    C     C_R   0.656088 0.421233 0.576687 0.721215
O4    O     O_R   0.823990 0.436120 0.442760 -0.539817
O5    O     O_R   0.994300 0.556300 0.442340 -0.534671
C2    C     C_R   0.655823 0.420770 0.423489 0.724598
O6    O     O_R   0.494350 0.443700 0.557660 -0.535714
O7    O     O_3   0.660800 0.539430 0.500000 -0.361898
V1    V     V_3+5 0.935650 0.492690 0.500000 1.405443
O8    O     O_R   0.324020 0.563710 0.442750 -0.533350
C3    C     C_R   0.154862 0.578849 0.423368 0.731866
O9    O     O_R   0.324090 0.563880 0.557240 -0.535458
C4    C     C_R   0.154937 0.578983 0.576638 0.732522
V2    V     V_3+5 0.435660 0.507310 0.500000 1.426891
O10   O     O_3   0.160640 0.460570 0.500000 -0.374299
C5    C     C_3   0.968409 0.728512 0.786476 0.042878
C6    C     C_3   0.151409 0.690767 0.770831 -0.161691
H1    H     H_    0.190029 0.643637 0.787302 0.115070
H2    H     H_    0.412388 0.754289 0.800340 0.141890
C7    C     C_1   0.144227 0.624536 0.622214 -0.186973
C8    C     C_1   0.074592 0.874044 0.877544 -0.199589
C9    C     C_3   0.934829 0.744496 0.723307 -0.169990
C10   C     C_3   0.118606 0.707564 0.708119 0.148357
C11   C     C_3   0.056689 0.804658 0.730633 -0.144102
C12   C     C_3   0.089143 0.788241 0.793616 0.129113
C13   C     C_3   0.240354 0.767087 0.714651 -0.127576
C14   C     C_3   0.272697 0.751089 0.778010 -0.138296
C15   C     C_1   0.133567 0.662176 0.660743 -0.055101
C16   C     C_1   0.081672 0.835401 0.839758 -0.071913
H3    H     H_    0.353324 0.782804 0.684797 0.113346
H4    H     H_    0.017406 0.851673 0.714000 0.114612
H5    H     H_    0.795232 0.741798 0.700668 0.115352
C17   C     C_3   0.295585 0.797867 0.238607 -0.400701
C18   C     C_3   0.930560 0.802868 0.252198 -0.114982
C19   C     C_3   0.954383 0.757326 0.303743 -0.344938
H6    H     H_    0.316790 0.846373 0.254244 0.138029
H7    H     H_    0.796806 0.787792 0.230187 0.098450
H8    H     H_    0.974454 0.782989 0.344138 0.188457
H9    H     H_    0.819208 0.730418 0.309175 0.115175
C20   C     C_1   0.144578 0.624948 0.378232 -0.162406
C21   C     C_3   0.097712 0.792681 0.208508 0.251128
C22   C     C_3   0.316285 0.748300 0.287063 -0.096401
C23   C     C_3   0.124373 0.710775 0.293816 0.254878
C24   C     C_3   0.086951 0.676900 0.236498 -0.387321
C25   C     C_3   0.081743 0.724334 0.186401 -0.357907
C26   C     C_1   0.135815 0.663451 0.340345 -0.014007
C27   C     C_1   0.084935 0.837740 0.160276 -0.073578
C28   C     C_1   0.075156 0.875107 0.121529 -0.188410
H10   H     H_    0.202009 0.713837 0.156729 0.154977
H11   H     H_    0.945953 0.718420 0.162125 0.143731
H12   H     H_    0.201151 0.641195 0.228554 0.153645
H13   H     H_    0.412285 0.789799 0.207131 0.128438
H14   H     H_    0.429777 0.714200 0.273969 0.079469
H15   H     H_    0.947927 0.651552 0.238425 0.155021
C29   C     C_3   0.402108 0.269920 0.714338 -0.086785
C30   C     C_3   0.740021 0.223102 0.690968 -0.109706
C31   C     C_3   0.704598 0.176693 0.741566 -0.402163
H16   H     H_    0.310980 0.178119 0.751372 0.133314
H17   H     H_    0.893584 0.236764 0.693899 0.131279
H18   H     H_    0.627963 0.134061 0.726894 0.150191
H19   H     H_    0.845884 0.160621 0.758604 0.129492
C32   C     C_1   0.567865 0.123059 0.876389 -0.193525
C33   C     C_3   0.619606 0.285244 0.702195 0.201891
C34   C     C_3   0.382635 0.222038 0.764460 -0.367088
C35   C     C_3   0.583337 0.206376 0.789869 0.225748
C36   C     C_3   0.683167 0.268143 0.809159 -0.099470
C37   C     C_3   0.702451 0.314161 0.757928 -0.412978
C38   C     C_1   0.571292 0.160485 0.837567 -0.072472
C39   C     C_1   0.639649 0.334300 0.657514 -0.090038
C40   C     C_1   0.648876 0.374334 0.621016 -0.206790
H20   H     H_    0.633734 0.360289 0.766466 0.147362
H21   H     H_    0.857314 0.325145 0.751776 0.135000
H22   H     H_    0.335632 0.314171 0.730063 0.093257
H23   H     H_    0.287232 0.241949 0.797728 0.136437
H24   H     H_    0.833005 0.255078 0.821398 0.102753
C41   C     C_3   0.465422 0.311163 0.248474 -0.114030
C42   C     C_3   0.828283 0.287821 0.257097 -0.144528
C43   C     C_3   0.812779 0.235388 0.209515 -0.117144
H25   H     H_    0.480413 0.286040 0.156047 0.177830
H26   H     H_    0.937483 0.271096 0.288300 0.101520
H27   H     H_    0.899883 0.195679 0.226771 0.093353
C44   C     C_1   0.572068 0.123670 0.121702 -0.193186
C45   C     C_3   0.632544 0.293184 0.290082 0.103107
C46   C     C_3   0.457340 0.263794 0.197800 -0.280118
C47   C     C_3   0.602797 0.209192 0.206124 0.164930
C48   C     C_3   0.556795 0.178862 0.264309 -0.370341
C49   C     C_3   0.585881 0.226668 0.313340 -0.352141
C50   C     C_1   0.582940 0.161763 0.159871 -0.071988
C51   C     C_1   0.643115 0.337918 0.338905 -0.129761
C52   C     C_1   0.648870 0.375229 0.377821 -0.192509
H28   H     H_    0.453553 0.228422 0.339784 0.147743
H29   H     H_    0.704411 0.210053 0.341353 0.146458
H30   H     H_    0.405871 0.161957 0.264675 0.148527
H31   H     H_    0.329411 0.305737 0.272732 0.129361
H32   H     H_    0.310034 0.244367 0.195948 0.156393
H33   H     H_    0.650655 0.137256 0.271396 0.140899
O11   O     O_R   0.724990 0.055630 0.941600 -0.534761
O12   O     O_R   0.395220 0.063160 0.056480 -0.544327
O13   O     O_R   0.225040 0.942970 0.056870 -0.535166
C53   C     C_R   0.563463 0.078119 0.076092 0.724458
O14   O     O_R   0.395270 0.063000 0.941990 -0.537933
O15   O     O_R   0.225080 0.942800 0.941570 -0.533491
C54   C     C_R   0.562995 0.077984 0.922422 0.728745
O16   O     O_R   0.724940 0.055790 0.056910 -0.530876
O17   O     O_3   0.558580 0.959880 0.999250 -0.367368
V3    V     V_3+5 0.283680 0.006590 0.999220 1.405984
O18   O     O_R   0.895380 0.935350 0.941950 -0.538889
C55   C     C_R   0.064522 0.920216 0.922609 0.727025
O19   O     O_R   0.895330 0.935520 0.056440 -0.537742
C56   C     C_R   0.064532 0.920467 0.075853 0.728703
V4    V     V_3+5 0.783690 0.991900 0.999180 1.413979
O20   O     O_3   0.058660 0.038680 0.999200 -0.368706
C57   C     C_R   0.898294 0.871164 0.269537 0.105809
C58   C     C_R   0.017127 0.901533 0.309202 -0.121548
C59   C     C_R   0.984368 0.964212 0.323646 -0.123337
C60   C     C_R   0.832919 0.997493 0.298880 -0.102450
C61   C     C_R   0.713774 0.968192 0.259522 -0.112204
C62   C     C_R   0.745905 0.905491 0.244928 -0.144374
H34   H     H_    0.134074 0.877051 0.329674 0.135005
H35   H     H_    0.076384 0.986967 0.354254 0.109050
H36   H     H_    0.807983 0.045935 0.310337 0.091488
H37   H     H_    0.596596 0.994100 0.240209 0.105497
H38   H     H_    0.652663 0.883969 0.213903 0.095708
C63   C     C_R   0.811565 0.700886 0.822521 0.082018
C64   C     C_R   0.723618 0.645201 0.804624 -0.138199
C65   C     C_R   0.576632 0.618490 0.836656 -0.125328
C66   C     C_R   0.515576 0.647200 0.886756 -0.093151
C67   C     C_R   0.602220 0.702478 0.905009 -0.124564
C68   C     C_R   0.749797 0.729255 0.873165 -0.144157
H39   H     H_    0.768689 0.622544 0.765707 0.108744
H40   H     H_    0.509408 0.575687 0.822472 0.105071
H41   H     H_    0.401013 0.626679 0.911369 0.109616
H42   H     H_    0.554684 0.724722 0.943825 0.111447
H43   H     H_    0.813364 0.771940 0.888371 0.120734
C69   C     C_R   0.288434 0.252846 0.661232 0.082611
C70   C     C_R   0.199223 0.301178 0.629832 -0.151964
C71   C     C_R   0.117453 0.288981 0.576945 -0.117052
C72   C     C_R   0.123461 0.228523 0.554590 -0.100622
C73   C     C_R   0.204464 0.179710 0.586047 -0.091717
C74   C     C_R   0.282708 0.191309 0.639557 -0.122581
H44   H     H_    0.199039 0.348944 0.645339 0.109135
H45   H     H_    0.052793 0.326678 0.552773 0.130241
H46   H     H_    0.063941 0.219373 0.513067 0.110308
H47   H     H_    0.209247 0.132821 0.568613 0.116632
H48   H     H_    0.350517 0.152708 0.661585 0.109687
C75   C     C_R   0.729982 0.188440 0.633343 0.124165
C76   C     C_R   0.812395 0.127708 0.629404 -0.136357
C77   C     C_R   0.808508 0.093666 0.578828 -0.128975
C78   C     C_R   0.729005 0.120100 0.530215 -0.110775
C79   C     C_R   0.654075 0.180703 0.532089 -0.147377
C80   C     C_R   0.655611 0.214755 0.582732 -0.085557
H49   H     H_    0.882577 0.106285 0.665507 0.100867
H50   H     H_    0.870580 0.047058 0.577177 0.108833
H51   H     H_    0.727254 0.093888 0.490950 0.105971
H52   H     H_    0.593158 0.201404 0.494196 0.106983
H53   H     H_    0.590660 0.260253 0.580941 0.126813
C81   C     C_R   0.589285 0.297370 0.861767 0.127624
C82   C     C_R   0.430740 0.338955 0.858589 -0.129198
C83   C     C_R   0.346071 0.362914 0.907790 -0.134236
C84   C     C_R   0.414442 0.344702 0.960842 -0.106155
C85   C     C_R   0.566315 0.302002 0.964807 -0.127050
C86   C     C_R   0.655939 0.279455 0.915817 -0.139333
H54   H     H_    0.369955 0.353015 0.818522 0.092219
H55   H     H_    0.225541 0.395075 0.904744 0.112431
H56   H     H_    0.347402 0.362791 0.998915 0.130116
H57   H     H_    0.612811 0.285775 0.005930 0.123551
H58   H     H_    0.774304 0.246567 0.920097 0.102673
C87   C     C_2   0.466085 0.379457 0.230481 0.431102
H59   H     H_    0.461587 0.415708 0.262710 0.034563
O21   O     O_2   0.466771 0.395164 0.180754 -0.527660
C88   C     C_2   0.903700 0.350882 0.238188 0.340403
H60   H     H_    0.830045 0.393997 0.249342 0.064782
O22   O     O_2   0.055851 0.354697 0.213016 -0.528682
C89   C     C_R   0.900883 0.248752 0.151114 0.140118
C90   C     C_R   0.028491 0.204335 0.127153 -0.150724
C91   C     C_R   0.104192 0.213043 0.072962 -0.098213
C92   C     C_R   0.054637 0.266183 0.041814 -0.130540
C93   C     C_R   0.930710 0.310987 0.064976 -0.122455
C94   C     C_R   0.850261 0.301679 0.118535 -0.047320
H61   H     H_    0.068202 0.162284 0.150133 0.099057
H62   H     H_    0.200481 0.178358 0.054959 0.126717
H63   H     H_    0.110787 0.272302 0.999511 0.118861
H64   H     H_    0.893438 0.352433 0.040835 0.122211
H65   H     H_    0.752604 0.336776 0.134691 0.146728
C95   C     C_2   0.392726 0.778821 0.340451 0.316153
H66   H     H_    0.526563 0.804490 0.338310 0.064159
O23   O     O_2   0.309403 0.775221 0.385819 -0.530896

loop_
_geom_bond_atom_site_label_1
_geom_bond_atom_site_label_2
_ccdc_geom_bond_type
C31   H19   S    
C80   H53   S    
C48   C49   S    
C64   C65   A    
C17   H6    S    
C87   H59   S    
C68   H43   S    
C17   C21   S    
C10   C13   S    
C1    O6    A    
C66   C67   A    
C79   H52   S    
C57   C58   A    
C51   C52   T    
O17   V4    S    
C46   C47   S    
C88   H60   S    
C29   H22   S    
C3    C20   S    
C6    C10   S    
C5    C12   S    
C33   C37   S    
C4    C7    S    
C85   C86   A    
C71   H45   S    
C82   C83   A    
O5    C3    A    
C46   H32   S    
C35   C38   S    
O17   V3    S    
V2    O10   S    
C48   H30   S    
C59   C60   A    
C18   C57   S    
C6    H1    S    
C21   C25   S    
C18   C21   S    
C65   H40   S    
V3    O20   S    
C75   C76   A    
C61   C62   A    
O8    V2    S    
C63   C68   A    
C31   C35   S    
C49   H28   S    
C9    H5    S    
C79   C80   A    
C29   C33   S    
C39   C40   T    
O1    V2    S    
C33   C39   S    
C44   C53   S    
O7    V1    S    
C57   C62   A    
C23   C26   S    
C28   C56   S    
C31   H18   S    
C9    C11   S    
C35   C36   S    
C41   C46   S    
C77   H50   S    
O1    C2    A    
O9    C4    A    
C87   O21   D    
C45   C51   S    
V4    O20   S    
C29   C69   S    
C88   O22   D    
C92   C93   A    
C53   O16   A    
C90   H61   S    
C44   C50   T    
C70   H44   S    
O11   V4    S    
C59   H35   S    
C60   C61   A    
C13   H3    S    
C36   C37   S    
C32   C38   T    
C19   H9    S    
C18   H7    S    
C6    C14   S    
C76   C77   A    
C94   H65   S    
O19   C56   A    
O4    C2    A    
C42   C43   S    
C69   C70   A    
C30   H17   S    
H2    C14   S    
C41   C45   S    
C37   H21   S    
C62   H38   S    
C7    C15   T    
C25   H11   S    
C41   H31   S    
C42   C45   S    
O18   V4    S    
C18   C19   S    
C92   H63   S    
O2    C1    A    
C60   H36   S    
O18   C55   A    
H25   C46   S    
C43   C89   S    
C84   H56   S    
C72   H46   S    
C22   H14   S    
C89   C90   A    
C5    C9    S    
C37   H20   S    
C8    C55   S    
C2    C52   S    
C42   C88   S    
C5    C6    S    
C20   C26   T    
O14   V3    S    
C21   C27   S    
C83   H55   S    
C73   C74   A    
O14   C54   A    
C91   H62   S    
O3    C4    A    
C74   H48   S    
C17   H13   S    
C81   C86   A    
C90   C91   A    
O12   C53   A    
O16   V4    S    
C12   C16   S    
O6    V2    S    
C78   H51   S    
C30   C75   S    
C22   C23   S    
C63   C64   A    
C19   C23   S    
C76   H49   S    
C95   O23   D    
C65   C66   A    
O2    V1    S    
C23   C24   S    
C30   C33   S    
C93   H64   S    
C49   H29   S    
C27   C28   T    
O13   V3    S    
C8    C16   T    
C47   C48   S    
C12   C14   S    
C19   H8    S    
C17   C22   S    
C45   C49   S    
C32   C54   S    
C47   C50   S    
C34   H23   S    
C73   H47   S    
O5    V1    S    
C43   H27   S    
C72   C73   A    
C89   C94   A    
C93   C94   A    
C11   C13   S    
O12   V3    S    
C70   C71   A    
C25   H10   S    
C67   C68   A    
C22   C95   S    
O15   C55   A    
C24   H12   S    
O9    V2    S    
C75   C80   A    
C11   C12   S    
O4    V1    S    
O3    V1    S    
V1    O10   S    
C66   H41   S    
C83   C84   A    
C42   H26   S    
C5    C63   S    
C30   C31   S    
C81   C82   A    
C84   C85   A    
C64   H39   S    
C11   H4    S    
O11   C54   A    
C1    C40   S    
C69   C74   A    
C86   H58   S    
C36   C81   S    
C61   H37   S    
C34   C35   S    
O7    V2    S    
O19   V4    S    
C67   H42   S    
C71   C72   A    
C91   C92   A    
C9    C10   S    
C85   H57   S    
C24   C25   S    
C10   C15   S    
C24   H15   S    
O13   C56   A    
C41   C87   S    
C58   H34   S    
C13   C14   S    
C82   H54   S    
O15   V3    S    
C36   H24   S    
C58   C59   A    
C95   H66   S    
C77   C78   A    
C43   C47   S    
H16   C34   S    
C29   C34   S    
O8    C3    A    
C78   C79   A    
C48   H33   S    
