data_mof_unit_3796.cif
_audit_creation_date              2012-10-26T19:15:55-0400
_audit_creation_method            fapswitch 2.2
_symmetry_space_group_name_H-M    P1
_symmetry_Int_Tables_number       1
_space_group_crystal_system       triclinic
_cell_length_a                    7.766905
_cell_length_b                    9.100331
_cell_length_c                    17.103034
_cell_angle_alpha                 89.617837
_cell_angle_beta                  94.622091
_cell_angle_gamma                 89.995287
_cell_volume                      1204.90808444

loop_
_atom_site_label
_atom_site_type_symbol
_atom_type_description
_atom_site_fract_x
_atom_site_fract_y
_atom_site_fract_z
_atom_type_partial_charge
C1    C     C_R   0.500000 0.219939 0.500073 0.538169
C2    C     C_R   0.559606 0.590506 0.138215 -0.099864
C3    C     C_R   0.561140 0.499583 0.903611 0.235276
C4    C     C_R   0.438367 0.501742 0.096417 0.200282
C5    C     C_R   0.676775 0.414152 0.865129 0.117920
C6    C     C_R   0.322827 0.416488 0.136070 0.113669
C7    C     C_R   0.665498 0.409698 0.781965 -0.022174
C8    C     C_R   0.334342 0.413286 0.218896 0.013914
C9    C     C_1   0.500009 0.065336 0.500017 -0.072756
C10   C     C_1   0.499997 0.934673 0.499950 -0.073685
C11   C     C_3   0.700069 0.702118 0.259412 -0.262089
C12   C     C_R   0.500000 0.780061 0.499904 0.536989
C13   C     C_3   0.607655 0.833640 0.291840 -0.418914
C14   C     C_3   0.299591 0.699033 0.738880 -0.262240
C15   C     C_3   0.392172 0.830711 0.705917 -0.418248
C16   C     C_3   0.781486 0.303625 0.741303 -0.267151
C17   C     C_3   0.680384 0.169616 0.710193 -0.423415
C18   C     C_3   0.217007 0.307878 0.259748 -0.245426
C19   C     C_3   0.316647 0.173015 0.291782 -0.422703
C20   C     C_R   0.522510 0.497877 0.651683 0.544252
C21   C     C_R   0.477470 0.501134 0.348334 0.541352
C22   C     C_R   0.538669 0.499023 0.738520 0.009881
C23   C     C_R   0.461123 0.502530 0.261532 0.002827
C24   C     C_R   0.427566 0.590753 0.779240 -0.040713
C25   C     C_R   0.572024 0.593923 0.219949 -0.038511
C26   C     C_R   0.439805 0.587925 0.860937 -0.123038
Cu1   Cu    Cu3+1 0.669080 0.500010 0.500000 0.979792
Cu2   Cu    Cu3+1 0.330920 0.499990 0.500000 0.979263
H1    H     H_    0.642641 0.660413 0.106098 0.137596
H2    H     H_    0.296484 0.905649 0.674736 0.142659
H3    H     H_    0.213197 0.645813 0.692876 0.183697
H4    H     H_    0.210615 0.742338 0.781052 0.126930
H5    H     H_    0.782593 0.216995 0.899278 0.231017
H6    H     H_    0.925063 0.360903 0.901042 0.222386
H7    H     H_    0.119711 0.396367 0.054717 0.253424
H8    H     H_    0.262690 0.255222 0.057304 0.249963
H9    H     H_    0.630869 0.108230 0.759953 0.137800
H10   H     H_    0.569813 0.202008 0.668654 0.161313
H11   H     H_    0.766397 0.096108 0.679366 0.143121
H12   H     H_    0.356634 0.658196 0.892332 0.134362
H13   H     H_    0.847310 0.358384 0.694151 0.181856
H14   H     H_    0.890676 0.262500 0.781008 0.129283
H15   H     H_    0.365316 0.111020 0.242449 0.150050
H16   H     H_    0.427723 0.204588 0.332965 0.158130
H17   H     H_    0.229921 0.100411 0.323215 0.141486
H18   H     H_    0.150754 0.362809 0.306369 0.170522
H19   H     H_    0.108502 0.267909 0.219320 0.181383
H20   H     H_    0.536051 0.894085 0.242907 0.141755
H21   H     H_    0.515229 0.798439 0.334334 0.162612
H22   H     H_    0.703702 0.908973 0.321867 0.143496
H23   H     H_    0.786777 0.648620 0.305628 0.184273
H24   H     H_    0.788505 0.745614 0.216777 0.130661
H25   H     H_    0.462069 0.891479 0.754719 0.139005
H26   H     H_    0.486215 0.795634 0.664379 0.162973
N1    N     N_1   0.076820 0.499970 0.500010 -0.092045
N2    N     N_1   0.923180 0.500030 0.499990 -0.092082
N3    N     N_2   0.571963 0.498068 0.986567 -0.207693
N4    N     N_2   0.427545 0.499662 0.013513 -0.267723
N5    N     N_3   0.800575 0.328162 0.912602 -0.609538
N6    N     N_3   0.197517 0.327613 0.091884 -0.639687
O1    O     O_R   0.642760 0.288400 0.500000 -0.494544
O2    O     O_R   0.357240 0.711600 0.500000 -0.494583
O3    O     O_R   0.357190 0.288380 0.500000 -0.494968
O4    O     O_R   0.642810 0.711620 0.500000 -0.494780
O5    O     O_R   0.658410 0.498660 0.613920 -0.511312
O6    O     O_R   0.341590 0.501340 0.386080 -0.511130
O7    O     O_R   0.372840 0.498650 0.613930 -0.507909
O8    O     O_R   0.627160 0.501350 0.386070 -0.506417

loop_
_geom_bond_atom_site_label_1
_geom_bond_atom_site_label_2
_ccdc_geom_bond_type
C13   H20   S    
C2    C4    A    
N1    N2    T    
C19   H17   S    
C1    O1    A    
Cu1   O5    S    
C16   H14   S    
C21   O6    A    
C7    C22   A    
C12   O2    A    
C9    C10   T    
C20   O7    A    
Cu2   O6    S    
C11   H24   S    
C14   H3    S    
C3    C5    A    
C18   H19   S    
Cu2   O7    S    
C21   C23   S    
H5    N5    S    
C17   H9    S    
C11   C13   S    
C26   H12   S    
N3    N4    D    
C16   C17   S    
C10   C12   S    
C2    H1    S    
C13   H21   S    
C18   H18   S    
C7    C16   S    
Cu2   N1    S    
C19   H15   S    
C2    C25   A    
C17   H10   S    
C23   C25   A    
C21   O8    A    
H6    N5    S    
C12   O4    A    
C22   C24   A    
C11   H23   S    
Cu1   O4    S    
C5    N5    S    
C14   C24   S    
C13   H22   S    
C15   H25   S    
Cu2   O3    S    
C6    N6    S    
C20   O5    A    
C8    C23   A    
C1    C9    S    
C19   H16   S    
C15   H2    S    
C4    C6    A    
C18   C19   S    
C17   H11   S    
C4    N4    S    
Cu1   Cu2   S    
C5    C7    A    
C11   C25   S    
C14   C15   S    
C1    O3    A    
C6    C8    A    
Cu1   O8    S    
Cu1   O1    S    
H8    N6    S    
Cu1   N2    S    
C15   H26   S    
C14   H4    S    
C16   H13   S    
C3    C26   A    
C8    C18   S    
C24   C26   A    
C20   C22   S    
H7    N6    S    
C3    N3    S    
Cu2   O2    S    
