data_mof_unit_882.cif
_audit_creation_date              2012-12-11T16:26:28-0500
_audit_creation_method            fapswitch 2.2
_symmetry_space_group_name_H-M    P1
_symmetry_Int_Tables_number       1
_space_group_crystal_system       triclinic
_cell_length_a                    6.935403
_cell_length_b                    17.694303
_cell_length_c                    19.337921
_cell_angle_alpha                 108.56107
_cell_angle_beta                  89.222255
_cell_angle_gamma                 90.500133
_cell_volume                      2249.42573402

loop_
_atom_site_label
_atom_site_type_symbol
_atom_type_description
_atom_site_fract_x
_atom_site_fract_y
_atom_site_fract_z
_atom_type_partial_charge
O1    O     O_R   0.494330 0.415720 0.413720 -0.541210
O2    O     O_R   0.819330 0.430070 0.560210 -0.478616
O3    O     O_R   0.994320 0.584280 0.586280 -0.525701
C1    C     C_R   0.649880 0.413801 0.580880 0.784818
O4    O     O_R   0.823730 0.406300 0.412670 -0.543241
O5    O     O_R   0.998760 0.560340 0.437690 -0.554888
C2    C     C_R   0.656546 0.385244 0.383880 0.669902
O6    O     O_R   0.489890 0.439660 0.562310 -0.536455
O7    O     O_3   0.662340 0.550560 0.508380 -0.388950
V1    V     V_3+5 0.935370 0.490620 0.498450 1.566943
O8    O     O_R   0.328750 0.569930 0.439790 -0.550249
C3    C     C_R   0.160871 0.585221 0.418281 0.667244
O9    O     O_R   0.324340 0.593700 0.587330 -0.543566
C4    C     C_R   0.154965 0.616129 0.615250 0.825372
V2    V     V_3+5 0.435940 0.509380 0.501550 1.490055
O10   O     O_3   0.159100 0.449440 0.491620 -0.343232
C5    C     C_R   0.082621 0.591493 0.756768 0.567170
C6    C     C_R   0.046915 0.579680 0.823720 -0.159135
C7    C     C_R   0.035241 0.644117 0.887317 -0.214484
C8    C     C_R   0.059431 0.721301 0.884810 -0.149776
C9    C     C_R   0.095126 0.735858 0.817937 0.008811
C10   C     C_R   0.106727 0.669821 0.752170 -0.043946
C11   C     C_R   0.121708 0.814846 0.816334 -0.120150
C12   C     C_R   0.159790 0.828327 0.749047 0.084087
C13   C     C_R   0.170630 0.762889 0.683208 -0.030798
C14   C     C_R   0.144120 0.683720 0.684564 -0.156476
C15   C     C_R   0.185108 0.906630 0.745812 -0.260944
C16   C     C_R   0.220436 0.920082 0.679597 -0.198165
C17   C     C_R   0.230693 0.856275 0.615256 0.696501
C18   C     C_R   0.205889 0.778531 0.616724 -0.244903
H1    H     H_    0.028974 0.519773 0.826300 0.150621
H2    H     H_    0.008167 0.634228 0.939045 0.146908
H3    H     H_    0.050702 0.769327 0.936041 0.110021
H4    H     H_    0.177062 0.958333 0.794245 0.129127
H5    H     H_    0.239263 0.980424 0.678275 0.142635
H6    H     H_    0.213882 0.731002 0.565140 0.115442
C19   C     C_R   0.307606 0.632675 0.319996 -0.167743
C20   C     C_R   0.153553 0.633981 0.368384 -0.091777
C21   C     C_R   0.991167 0.680620 0.367916 -0.130117
C22   C     C_R   0.983524 0.726799 0.320969 0.014630
C23   C     C_R   0.136606 0.723783 0.271122 0.030464
C24   C     C_R   0.298531 0.674567 0.268790 0.104004
C25   C     C_R   0.824566 0.776038 0.323152 -0.261817
C26   C     C_R   0.815489 0.822013 0.276377 0.620461
C27   C     C_R   0.965563 0.819253 0.226026 -0.041721
C28   C     C_R   0.127037 0.770210 0.223639 -0.027200
C29   C     C_R   0.279252 0.767990 0.174034 0.164871
C30   C     C_R   0.437399 0.718479 0.170978 -0.199960
C31   C     C_R   0.447025 0.670250 0.216103 -0.009447
C32   C     C_R   0.958168 0.864937 0.178379 -0.164796
C33   C     C_R   0.110524 0.863484 0.129264 -0.120215
C34   C     C_R   0.270357 0.814598 0.127372 -0.098583
H7    H     H_    0.433489 0.598486 0.323042 0.167417
H8    H     H_    0.872162 0.682335 0.405335 0.126840
H9    H     H_    0.706343 0.778811 0.361106 0.173443
H10   H     H_    0.835869 0.903044 0.180372 0.218984
H11   H     H_    0.387782 0.812613 0.089233 0.129213
H12   H     H_    0.552439 0.715822 0.131677 0.106535
C35   C     C_R   0.468804 0.185773 0.868457 -0.173803
C36   C     C_R   0.624162 0.135590 0.870044 -0.118613
C37   C     C_R   0.783600 0.131605 0.823386 -0.157611
C38   C     C_R   0.786836 0.175840 0.774608 0.173609
C39   C     C_R   0.630553 0.226120 0.773418 0.012402
C40   C     C_R   0.471279 0.231550 0.820960 -0.031453
C41   C     C_R   0.943291 0.170253 0.726596 -0.146188
C42   C     C_R   0.946366 0.214618 0.678318 -0.131565
C43   C     C_R   0.792832 0.265520 0.677036 0.001658
C44   C     C_R   0.633635 0.271006 0.724588 -0.025623
C45   C     C_R   0.477675 0.321361 0.723489 -0.004058
C46   C     C_R   0.320941 0.326816 0.771429 -0.222584
C47   C     C_R   0.317477 0.282485 0.819835 0.591244
C48   C     C_R   0.796222 0.311211 0.629381 0.579154
C49   C     C_R   0.641446 0.362425 0.628533 -0.204964
C50   C     C_R   0.481868 0.366123 0.675141 -0.222185
H13   H     H_    0.345935 0.189346 0.904576 0.183306
H14   H     H_    0.903212 0.092695 0.823829 0.116608
H15   H     H_    0.064171 0.131865 0.726666 0.115084
H16   H     H_    0.070202 0.209357 0.642371 0.182004
H17   H     H_    0.362704 0.405304 0.675024 0.217200
H18   H     H_    0.200470 0.365420 0.771392 0.168582
H19   H     H_    0.519270 0.149575 0.452063 0.145567
C51   C     C_R   0.780912 0.395030 0.243473 -0.110894
C52   C     C_R   0.840170 0.401786 0.176563 -0.038102
C53   C     C_R   0.815917 0.338252 0.112988 -0.116029
C54   C     C_R   0.737639 0.266653 0.116071 -0.132610
C55   C     C_R   0.685072 0.256380 0.183686 0.078352
C56   C     C_R   0.703900 0.322571 0.248446 0.043149
C57   C     C_R   0.615849 0.181702 0.187172 -0.183903
C58   C     C_R   0.571954 0.172752 0.257257 -0.019515
C59   C     C_R   0.597744 0.239617 0.321684 0.070983
C60   C     C_R   0.650364 0.315026 0.316732 -0.158456
C61   C     C_R   0.510775 0.099227 0.267180 -0.037818
C62   C     C_R   0.498643 0.091500 0.336997 -0.069232
C63   C     C_R   0.532281 0.156064 0.398369 -0.134639
C64   C     C_R   0.576456 0.229632 0.391205 -0.103147
H20   H     H_    0.799686 0.446746 0.291254 0.110488
H21   H     H_    0.903690 0.456922 0.173937 0.144752
H22   H     H_    0.858572 0.344333 0.060945 0.147845
H23   H     H_    0.720955 0.219498 0.064745 0.111853
H24   H     H_    0.454231 0.035543 0.344221 0.187274
H25   H     H_    0.598908 0.278199 0.441178 0.107953
O11   O     O_R   0.775200 0.060470 0.937800 -0.539851
O12   O     O_R   0.441110 0.093720 0.087350 -0.548846
O13   O     O_R   0.266330 0.939630 0.062280 -0.531722
C65   C     C_R   0.608102 0.113155 0.117775 0.698138
O14   O     O_R   0.445750 0.069950 0.939820 -0.546261
O15   O     O_R   0.271000 0.915700 0.913700 -0.538069
C66   C     C_R   0.615270 0.085560 0.918659 0.705937
O16   O     O_R   0.770530 0.084400 0.086380 -0.532872
O17   O     O_3   0.602830 0.949510 0.991680 -0.363794
V3    V     V_3+5 0.329710 0.009370 0.001550 1.438148
O18   O     O_R   0.940990 0.906170 0.912570 -0.540381
C67   C     C_R   0.110488 0.883449 0.884969 0.685042
O19   O     O_R   0.936350 0.929940 0.060100 -0.540591
C68   C     C_R   0.104082 0.913933 0.080931 0.690507
V4    V     V_3+5 0.829160 0.990450 0.998310 1.450889
O20   O     O_3   0.105910 0.050480 0.008320 -0.371883
F1    F     F_    0.264180 0.869730 0.550901 -0.672526
F2    F     F_    0.659593 0.869188 0.280547 -0.658839
C69   C     C_2   0.611231 0.614310 0.203039 0.320972
H26   H     H_    0.748003 0.630052 0.183144 0.051645
O21   O     O_2   0.592433 0.548273 0.209374 -0.547682
F3    F     F_    0.094943 0.525198 0.697485 -0.713813
F4    F     F_    0.949557 0.304967 0.583333 -0.683243
F5    F     F_    0.163361 0.289427 0.865483 -0.696739
C70   C     C_2   0.432883 0.031890 0.208893 0.379900
H27   H     H_    0.307524 0.041337 0.180205 0.053476
O22   O     O_2   0.501042 0.965455 0.195670 -0.507869

loop_
_geom_bond_atom_site_label_1
_geom_bond_atom_site_label_2
_ccdc_geom_bond_type
C62   C63   A    
H19   C63   S    
C56   C60   A    
C23   C24   A    
C7    C8    A    
C12   C15   A    
C1    O6    A    
O19   C68   A    
C59   C64   A    
C54   C55   A    
C69   H26   S    
C35   C40   A    
C17   C18   A    
C16   C17   A    
C19   C20   A    
C6    C7    A    
C45   C46   A    
O5    C3    A    
C20   C21   A    
C55   C57   A    
C21   H8    S    
V2    O10   S    
V4    O20   S    
O12   V3    S    
C43   C48   A    
C49   C50   A    
C40   C47   A    
C19   C24   A    
O17   V3    S    
O15   C67   A    
O16   V4    S    
C28   C29   A    
O8    V2    S    
C53   C54   A    
C5    F3    S    
C22   C25   A    
C29   C30   A    
C16   H5    S    
C44   C45   A    
C11   C12   A    
O11   C66   A    
C46   C47   A    
O1    V2    S    
O7    V1    S    
C36   C66   S    
C19   H7    S    
C42   C43   A    
C35   C36   A    
C37   H14   S    
O9    C4    A    
C48   F4    S    
C63   C64   A    
C35   H13   S    
C7    H2    S    
O18   C67   A    
C69   O21   D    
C32   C33   A    
O14   V3    S    
C15   H4    S    
C42   H16   S    
C41   H15   S    
C46   H18   S    
C33   C34   A    
C51   H20   S    
C12   C13   A    
C21   C22   A    
O4    C2    A    
C55   C56   A    
C26   F2    S    
C13   C14   A    
C27   C28   A    
C32   H10   S    
C43   C44   A    
C36   C37   A    
O2    C1    A    
C25   C26   A    
C38   C39   A    
C54   H23   S    
C11   C67   S    
O13   C68   A    
C52   C53   A    
C23   C28   A    
C2    C60   S    
C8    C9    A    
C5    C6    A    
C45   C50   A    
O12   C65   A    
C4    C14   S    
C58   C61   A    
C62   H24   S    
C1    C49   S    
O3    C4    A    
C8    H3    S    
C25   H9    S    
C30   C31   A    
C41   C42   A    
O6    V2    S    
C50   H17   S    
C9    C11   A    
C10   C14   A    
O2    V1    S    
O17   V4    S    
O18   V4    S    
C26   C27   A    
C13   C18   A    
C65   O16   A    
C39   C44   A    
C22   C23   A    
C70   O22   D    
C38   C41   A    
O1    C2    A    
O15   V3    S    
C48   C49   A    
C61   C70   S    
O5    V1    S    
O13   V3    S    
O19   V4    S    
O8    C3    A    
C30   H12   S    
C29   C34   A    
C17   F1    S    
C5    C10   A    
C18   H6    S    
V3    O20   S    
C53   H22   S    
O9    V2    S    
O7    V2    S    
O4    V1    S    
O3    V1    S    
V1    O10   S    
C57   C65   S    
C59   C60   A    
O14   C66   A    
C27   C32   A    
C70   H27   S    
C61   C62   A    
C3    C20   S    
C37   C38   A    
C33   C68   S    
O11   V4    S    
C34   H11   S    
C24   C31   A    
C39   C40   A    
C31   C69   S    
C64   H25   S    
C57   C58   A    
C51   C52   A    
C52   H21   S    
C15   C16   A    
C47   F5    S    
C6    H1    S    
C58   C59   A    
C9    C10   A    
C51   C56   A    
