data_mof_unit_1636.cif
_audit_creation_date              2012-12-10T17:53:10-0500
_audit_creation_method            fapswitch 2.2
_symmetry_space_group_name_H-M    P1
_symmetry_Int_Tables_number       1
_space_group_crystal_system       triclinic
_cell_length_a                    14.724915
_cell_length_b                    14.687345
_cell_length_c                    27.816177
_cell_angle_alpha                 76.530905
_cell_angle_beta                  103.078813
_cell_angle_gamma                 115.51846
_cell_volume                      5224.97007486

loop_
_atom_site_label
_atom_site_type_symbol
_atom_type_description
_atom_site_fract_x
_atom_site_fract_y
_atom_site_fract_z
_atom_type_partial_charge
C1    C     C_R   0.880246 0.312174 0.507931 0.846130
C2    C     C_R   0.119754 0.687827 0.492070 0.845958
C3    C     C_R   0.996880 0.498324 0.897934 -0.043369
C4    C     C_R   0.002274 0.500659 0.102148 -0.043230
C5    C     C_R   0.980228 0.407930 0.881521 -0.022900
C6    C     C_R   0.027362 0.592715 0.119306 -0.023438
C7    C     C_R   0.965147 0.318591 0.915919 -0.139082
C8    C     C_R   0.051748 0.683816 0.085743 -0.138953
C9    C     C_R   0.012387 0.588196 0.862989 -0.020615
C10   C     C_R   0.978403 0.409186 0.136348 -0.020911
C11   C     C_R   0.998214 0.498777 0.645324 -0.038357
C12   C     C_R   0.001662 0.501037 0.354677 -0.037177
C13   C     C_R   0.977762 0.406741 0.034533 0.041900
C14   C     C_R   0.017632 0.591473 0.965220 0.041887
C15   C     C_R   0.022780 0.592793 0.016737 0.042659
C16   C     C_R   0.979985 0.406846 0.983672 0.042861
C17   C     C_R   0.000956 0.500064 0.050923 0.069787
C18   C     C_R   0.998143 0.498875 0.949158 0.069713
C19   C     C_R   0.952423 0.316071 0.069838 -0.198219
C20   C     C_R   0.030682 0.679768 0.928824 -0.198275
C21   C     C_R   0.953015 0.317545 0.119637 -0.138135
C22   C     C_R   0.028365 0.677995 0.878865 -0.137834
C23   C     C_R   0.999515 0.499670 0.592441 0.812598
C24   C     C_R   0.000461 0.500293 0.407559 0.812447
C25   C     C_R   0.965248 0.317881 0.965931 -0.198251
C26   C     C_R   0.049810 0.684133 0.035569 -0.198527
C27   C     C_R   0.812910 0.204224 0.508344 -0.105242
C28   C     C_R   0.187088 0.795780 0.491658 -0.105567
C29   C     C_R   0.776320 0.037548 0.489180 0.111903
C30   C     C_R   0.223664 0.962466 0.510808 0.111709
C31   C     C_R   0.842634 0.139420 0.492065 -0.254621
C32   C     C_R   0.157354 0.860591 0.507926 -0.254853
C33   C     C_R   0.715973 0.167807 0.521507 0.065758
C34   C     C_R   0.284030 0.832198 0.478502 0.065538
C35   C     C_R   0.641163 0.075113 0.507214 0.027894
C36   C     C_R   0.358834 0.924893 0.492796 0.027715
C37   C     C_R   0.673813 0.004813 0.496428 0.102156
C38   C     C_R   0.326180 0.995195 0.503574 0.102085
C39   C     C_R   0.535430 0.050111 0.503369 0.087176
C40   C     C_R   0.464568 0.949894 0.496645 0.087078
C41   C     C_R   0.501880 0.875954 0.497287 -0.154058
C42   C     C_R   0.498117 0.124050 0.502728 -0.153869
C43   C     C_R   0.603567 0.903671 0.494532 -0.192968
C44   C     C_R   0.396428 0.096335 0.505476 -0.193065
C45   C     C_R   0.979567 0.409088 0.830830 0.542525
C46   C     C_R   0.028053 0.591608 0.169994 0.542548
C47   C     C_R   0.713511 0.663733 0.413968 -0.295362
C48   C     C_R   0.286488 0.336265 0.586032 -0.295182
C49   C     C_R   0.795364 0.635080 0.428012 0.064655
C50   C     C_R   0.204628 0.364906 0.571982 0.064650
C51   C     C_R   0.715654 0.511351 0.493768 0.025070
C52   C     C_R   0.284359 0.488666 0.506240 0.024676
C53   C     C_R   0.628666 0.535774 0.481061 -0.037695
C54   C     C_R   0.371354 0.464253 0.518953 -0.037769
C55   C     C_R   0.629831 0.615429 0.440480 0.094801
C56   C     C_R   0.370185 0.384593 0.559531 0.094906
C57   C     C_R   0.541800 0.484735 0.507190 0.037786
C58   C     C_R   0.458228 0.515304 0.492829 0.037625
C59   C     C_R   0.464561 0.596506 0.453113 -0.248020
C60   C     C_R   0.535475 0.403545 0.546912 -0.248314
C61   C     C_R   0.547978 0.645759 0.427395 0.150349
C62   C     C_R   0.452052 0.354284 0.572626 0.150399
C63   C     C_R   0.011486 0.586178 0.812663 0.537150
C64   C     C_R   0.979492 0.411340 0.186677 0.537053
C65   C     C_R   0.919649 0.513783 0.709392 -0.086955
C66   C     C_R   0.076671 0.480051 0.290881 -0.087983
C67   C     C_R   0.920722 0.514548 0.659305 -0.194360
C68   C     C_R   0.075820 0.479607 0.340957 -0.195747
C69   C     C_R   0.074305 0.481941 0.682367 -0.207656
C70   C     C_R   0.928777 0.523324 0.317373 -0.205695
C71   C     C_R   0.073131 0.481382 0.732404 -0.097713
C72   C     C_R   0.929874 0.523794 0.267336 -0.098190
C73   C     C_R   0.995908 0.497370 0.746111 0.346625
C74   C     C_R   0.003669 0.502027 0.253923 0.348906
Cu1   Cu    Cu3+1 0.081740 0.475690 0.513040 0.952439
Cu2   Cu    Cu3+1 0.918260 0.524310 0.486960 0.952500
H1    H     H_    0.134942 0.469568 0.672734 0.164415
H2    H     H_    0.870817 0.540241 0.326786 0.163586
H3    H     H_    0.081593 0.832038 0.517481 0.158297
H4    H     H_    0.918389 0.167975 0.482501 0.158149
H5    H     H_    0.452824 0.795743 0.499687 0.171630
H6    H     H_    0.547174 0.204261 0.500328 0.171793
H7    H     H_    0.277157 0.545751 0.475339 0.147429
H8    H     H_    0.722862 0.454272 0.524672 0.146837
H9    H     H_    0.140126 0.326918 0.592244 0.140270
H10   H     H_    0.859855 0.673052 0.407742 0.139414
H11   H     H_    0.717309 0.724059 0.382664 0.183525
H12   H     H_    0.282684 0.275930 0.617332 0.183799
H13   H     H_    0.405477 0.624477 0.440874 0.179749
H14   H     H_    0.594572 0.375591 0.559160 0.179470
H15   H     H_    0.132516 0.468989 0.760582 0.147539
H16   H     H_    0.873070 0.540586 0.238931 0.146162
H17   H     H_    0.953380 0.248317 0.904359 0.189072
H18   H     H_    0.072655 0.755861 0.098119 0.189524
H19   H     H_    0.133124 0.462445 0.368840 0.163605
H20   H     H_    0.860835 0.527285 0.631626 0.164720
H21   H     H_    0.134121 0.463464 0.280725 0.148517
H22   H     H_    0.859487 0.525800 0.719740 0.150452
H23   H     H_    0.933121 0.245942 0.145069 0.190490
H24   H     H_    0.039149 0.747850 0.852618 0.190428
H25   H     H_    0.929921 0.241710 0.060257 0.143688
H26   H     H_    0.041350 0.751807 0.937363 0.143515
H27   H     H_    0.955128 0.246114 0.989798 0.142617
H28   H     H_    0.071695 0.758134 0.012744 0.143011
H29   H     H_    0.626166 0.844254 0.491908 0.164952
H30   H     H_    0.373830 0.155754 0.508099 0.165025
N1    N     N_R   0.995336 0.497469 0.797615 -0.467891
N2    N     N_R   0.004035 0.501702 0.202447 -0.468503
N3    N     N_R   0.795430 0.560780 0.467350 -0.180330
N4    N     N_R   0.204570 0.439220 0.532650 -0.180645
O1    O     O_R   0.977900 0.338120 0.517190 -0.588712
O2    O     O_R   0.022100 0.661880 0.482810 -0.588668
O3    O     O_R   0.839850 0.379180 0.495160 -0.564199
O4    O     O_R   0.160150 0.620820 0.504840 -0.564354
O5    O     O_R   0.069030 0.479490 0.580750 -0.586677
O6    O     O_R   0.930970 0.520510 0.419250 -0.586831
O7    O     O_R   0.930970 0.520550 0.558720 -0.584991
O8    O     O_R   0.069030 0.479450 0.441280 -0.584829
O9    O     O_2   0.962596 0.322442 0.814768 -0.527593
O10   O     O_2   0.053057 0.679702 0.186808 -0.525925
O11   O     O_2   0.955341 0.323748 0.219531 -0.536067
O12   O     O_2   0.027698 0.672413 0.779108 -0.537031
I1    I     I_    0.296909 0.771209 0.418507 -0.369681
I2    I     I_    0.703104 0.228818 0.581497 -0.372260
C75   C     C_3   0.816578 0.968129 0.476604 -0.408577
C76   C     C_3   0.850231 0.906981 0.524456 -0.351199
C77   C     C_3   0.874117 0.824114 0.512626 -0.827431
H31   H     H_    0.802890 0.763940 0.497740 0.265771
H32   H     H_    0.927571 0.856755 0.484658 0.250729
H33   H     H_    0.908977 0.788771 0.547235 0.243433
H34   H     H_    0.919310 0.959633 0.545419 0.225010
H35   H     H_    0.789622 0.870301 0.548832 0.229758
H36   H     H_    0.758848 0.917018 0.450615 0.218738
H37   H     H_    0.883115 0.013985 0.456272 0.200073
C78   C     C_3   0.183395 0.031895 0.523366 -0.408235
C79   C     C_3   0.149798 0.093066 0.475504 -0.351474
C80   C     C_3   0.125929 0.175958 0.487321 -0.828054
H38   H     H_    0.072453 0.143336 0.515278 0.250981
H39   H     H_    0.197160 0.236116 0.502217 0.265832
H40   H     H_    0.091103 0.211315 0.452704 0.242767
H41   H     H_    0.210430 0.129725 0.451142 0.229517
H42   H     H_    0.080723 0.040432 0.454531 0.224886
H43   H     H_    0.116828 0.986045 0.543677 0.200096
H44   H     H_    0.241103 0.082991 0.549367 0.218738
I3    I     I_    0.543560 0.768055 0.369332 -0.358653
I4    I     I_    0.456491 0.232012 0.630700 -0.360659

loop_
_geom_bond_atom_site_label_1
_geom_bond_atom_site_label_2
_ccdc_geom_bond_type
C75   H37   S    
C66   C68   A    
C34   I1    S    
C19   H25   S    
C29   C75   S    
C70   H2    S    
C8    C26   A    
C14   C18   A    
C69   H1    S    
C42   H6    S    
C78   C79   S    
C47   C49   A    
C27   C33   A    
C80   H39   S    
C2    O2    A    
C76   C77   S    
C42   C44   A    
C66   H21   S    
C49   N3    A    
C35   C37   A    
C65   H22   S    
C43   H29   S    
C21   H23   S    
C9    C22   A    
C73   N1    S    
C20   H26   S    
C64   O11   S    
C66   C74   A    
C50   N4    A    
C65   C73   A    
C30   C38   A    
C3    C18   A    
C60   C62   A    
C59   H13   S    
C69   C71   A    
C61   I3    S    
C79   H42   S    
C50   H9    S    
C26   H28   S    
C11   C67   A    
Cu2   N3    S    
C65   C67   A    
C46   N2    A    
C33   I2    S    
C48   H12   S    
C52   N4    A    
C45   O9    S    
C78   H43   S    
C28   C34   A    
C51   N3    A    
C41   C43   A    
Cu1   O8    S    
C1    O3    A    
C28   C32   A    
C52   C54   A    
C64   N2    A    
C39   C42   A    
C53   C55   A    
C10   C21   A    
C7    H17   S    
C80   H40   S    
C54   C56   A    
C59   C61   A    
C68   H19   S    
C22   H24   S    
C13   C19   A    
C27   C31   A    
C14   C20   A    
C36   C40   A    
C8    H18   S    
C4    C6    A    
C39   C40   A    
C5    C7    A    
C53   C57   A    
C25   H27   S    
C15   C26   A    
C6    C8    A    
C58   C59   A    
C5    C45   A    
C51   C53   A    
C47   H11   S    
C37   C43   A    
C52   H7    S    
C35   C39   A    
Cu1   Cu2   S    
C77   H32   S    
C38   C44   A    
C79   H41   S    
C3    C9    A    
C12   C68   A    
C76   H35   S    
Cu2   O2    S    
C41   H5    S    
Cu2   O3    S    
C46   O10   S    
Cu1   O4    S    
C48   C50   A    
C4    C17   A    
C72   C74   A    
C40   C41   A    
C20   C22   A    
C24   O6    A    
C44   H30   S    
C67   H20   S    
C29   C37   A    
C56   C62   A    
Cu1   O5    S    
C63   N1    A    
C77   H31   S    
C63   O12   S    
Cu2   O6    S    
C47   C55   A    
C54   C58   A    
C75   H36   S    
C16   C25   A    
C48   C56   A    
C12   C70   A    
C78   H44   S    
Cu1   N4    S    
C6    C46   A    
C19   C21   A    
C9    C63   A    
Cu1   O1    S    
C49   H10   S    
C10   C64   A    
C79   C80   S    
C3    C5    A    
C23   O7    A    
C70   C72   A    
C11   C69   A    
C15   C17   A    
C60   H14   S    
C80   H38   S    
C12   C24   S    
C24   O8    A    
Cu2   O7    S    
C7    C25   A    
C13   C17   A    
C36   C38   A    
C77   H33   S    
C29   C31   A    
C1    O1    A    
C32   H3    S    
C30   C32   A    
C2    O4    A    
C31   H4    S    
C57   C58   A    
C75   C76   S    
C76   H34   S    
C72   H16   S    
C55   C61   A    
C11   C23   S    
C33   C35   A    
C23   O5    A    
C34   C36   A    
C74   N2    S    
C57   C60   A    
C71   H15   S    
C16   C18   A    
C30   C78   S    
C62   I4    S    
C13   C16   A    
C71   C73   A    
C1    C27   S    
C14   C15   A    
C2    C28   S    
C4    C10   A    
C51   H8    S    
C45   N1    A    
