data_mof_unit_3397.cif
_audit_creation_date              2012-12-10T18:36:57-0500
_audit_creation_method            fapswitch 2.2
_symmetry_space_group_name_H-M    P1
_symmetry_Int_Tables_number       1
_space_group_crystal_system       triclinic
_cell_length_a                    14.981851
_cell_length_b                    15.487638
_cell_length_c                    23.432737
_cell_angle_alpha                 89.857511
_cell_angle_beta                  104.800912
_cell_angle_gamma                 82.505084
_cell_volume                      5208.22084403

loop_
_atom_site_label
_atom_site_type_symbol
_atom_type_description
_atom_site_fract_x
_atom_site_fract_y
_atom_site_fract_z
_atom_type_partial_charge
C1    C     C_R   0.442036 0.662164 0.493069 0.878118
C2    C     C_R   0.558124 0.337806 0.509776 0.876278
C3    C     C_R   0.584322 0.520974 0.774851 -0.093904
C4    C     C_R   0.575033 0.511279 0.249210 -0.094264
C5    C     C_R   0.583167 0.519415 0.715378 -0.211510
C6    C     C_R   0.576464 0.512833 0.308614 -0.203428
C7    C     C_R   0.502745 0.502286 0.673263 -0.045837
C8    C     C_R   0.497228 0.497799 0.326723 -0.049185
C9    C     C_R   0.423556 0.487129 0.691381 -0.204966
C10   C     C_R   0.416730 0.480888 0.284586 -0.210627
C11   C     C_R   0.424963 0.488767 0.750780 -0.095586
C12   C     C_R   0.415553 0.479407 0.225108 -0.092967
C13   C     C_R   0.505251 0.505583 0.792460 0.311623
C14   C     C_R   0.494676 0.494664 0.207510 0.310601
C15   C     C_R   0.408628 0.753973 0.498422 -0.063817
C16   C     C_R   0.592816 0.245703 0.524404 -0.062382
C17   C     C_R   0.287298 0.871483 0.502547 -0.176552
C18   C     C_R   0.717398 0.127097 0.559763 -0.182040
C19   C     C_R   0.314399 0.784206 0.492996 -0.179404
C20   C     C_R   0.688203 0.214913 0.543314 -0.178653
C21   C     C_R   0.475028 0.810732 0.514537 -0.254229
C22   C     C_R   0.527521 0.188938 0.523440 -0.251759
C23   C     C_R   0.500963 0.500523 0.610682 0.873108
C24   C     C_R   0.499033 0.499489 0.389316 0.878194
C25   C     C_R   0.450238 0.896975 0.527180 0.094581
C26   C     C_R   0.554935 0.101813 0.542012 0.094512
C27   C     C_R   0.354449 0.928435 0.518612 0.166749
C28   C     C_R   0.651392 0.069998 0.558162 0.167560
C29   C     C_R   0.518185 0.953948 0.543903 0.071225
C30   C     C_R   0.488258 0.044448 0.540466 0.069155
C31   C     C_R   0.392702 0.074295 0.534531 -0.220322
C32   C     C_R   0.614841 0.923690 0.562953 -0.218177
C33   C     C_R   0.327136 0.016565 0.524955 -0.215260
C34   C     C_R   0.680319 0.981381 0.571076 -0.215465
C35   C     C_R   0.842202 0.640004 0.585847 -0.245974
C36   C     C_R   0.157549 0.360513 0.413818 -0.243579
C37   C     C_R   0.753256 0.616477 0.572004 -0.015533
C38   C     C_R   0.246574 0.383847 0.427770 -0.016520
C39   C     C_R   0.793932 0.509822 0.507186 -0.015917
C40   C     C_R   0.206131 0.490112 0.492898 -0.016864
C41   C     C_R   0.885741 0.530534 0.519180 -0.040425
C42   C     C_R   0.114193 0.469699 0.480714 -0.040084
C43   C     C_R   0.909060 0.597301 0.559582 0.031056
C44   C     C_R   0.090761 0.403140 0.440159 0.026776
C45   C     C_R   0.546111 0.428317 0.126752 0.507097
C46   C     C_R   0.453816 0.571945 0.873213 0.506787
C47   C     C_R   0.954256 0.487765 0.492634 -0.011263
C48   C     C_R   0.045645 0.512565 0.507200 -0.010367
C49   C     C_R   0.065494 0.579354 0.547680 -0.298473
C50   C     C_R   0.934315 0.421174 0.452008 -0.297792
C51   C     C_R   0.998569 0.620805 0.573286 0.622959
C52   C     C_R   0.001186 0.379806 0.426337 0.623936
C53   C     C_R   0.442358 0.562404 0.110163 0.506953
C54   C     C_R   0.557582 0.437866 0.889807 0.506573
C55   C     C_R   0.443654 0.565956 0.050807 -0.016570
C56   C     C_R   0.556286 0.434316 0.949162 -0.016590
C57   C     C_R   0.498340 0.498821 0.029676 -0.020449
C58   C     C_R   0.501598 0.501450 0.970292 -0.020429
C59   C     C_R   0.549895 0.429137 0.067808 -0.018063
C60   C     C_R   0.450039 0.571132 0.932158 -0.017894
C61   C     C_R   0.392591 0.635135 0.012469 -0.153012
C62   C     C_R   0.607349 0.365137 0.987499 -0.153195
C63   C     C_R   0.395776 0.637713 0.953636 -0.151476
C64   C     C_R   0.604159 0.362556 0.046331 -0.150906
H1    H     H_    0.350169 0.687469 0.027781 0.195427
H2    H     H_    0.649771 0.312803 0.972188 0.195399
H3    H     H_    0.214010 0.894612 0.496902 0.150221
H4    H     H_    0.791339 0.103613 0.572978 0.147965
H5    H     H_    0.367149 0.141922 0.538405 0.153911
H6    H     H_    0.641532 0.855678 0.573050 0.145866
H7    H     H_    0.231174 0.539135 0.522932 0.126003
H8    H     H_    0.769030 0.460511 0.477369 0.126758
H9    H     H_    0.298862 0.351390 0.407821 0.139556
H10   H     H_    0.700884 0.649078 0.591837 0.133117
H11   H     H_    0.858243 0.691206 0.616722 0.200226
H12   H     H_    0.141371 0.309556 0.382767 0.204421
H13   H     H_    0.132510 0.601756 0.560786 0.167500
H14   H     H_    0.867213 0.398978 0.438739 0.168568
H15   H     H_    0.355566 0.691869 0.925096 0.196405
H16   H     H_    0.644367 0.308399 0.074870 0.196776
H17   H     H_    0.646433 0.534013 0.807283 0.145840
H18   H     H_    0.636109 0.523383 0.235396 0.147087
H19   H     H_    0.645036 0.531437 0.702485 0.166174
H20   H     H_    0.639483 0.525854 0.340196 0.167550
H21   H     H_    0.360597 0.473940 0.659813 0.166625
H22   H     H_    0.354818 0.468977 0.297468 0.166769
H23   H     H_    0.363931 0.476558 0.764606 0.146382
H24   H     H_    0.353389 0.466520 0.192663 0.146222
H25   H     H_    0.254433 0.041566 0.520001 0.158033
H26   H     H_    0.753792 0.956078 0.584983 0.159171
H27   H     H_    0.454746 0.213105 0.506013 0.161731
H28   H     H_    0.546307 0.787270 0.515331 0.162522
H29   H     H_    0.739889 0.258325 0.545096 0.163648
H30   H     H_    0.262015 0.740732 0.481386 0.163096
N1    N     N_R   0.493412 0.494551 0.146564 -0.359869
N2    N     N_R   0.506522 0.505714 0.853405 -0.359797
N3    N     N_R   0.731690 0.552740 0.533440 -0.100494
N4    N     N_R   0.268310 0.447260 0.466560 -0.101887
O1    O     O_R   0.383120 0.605620 0.483150 -0.617124
O2    O     O_R   0.616880 0.394380 0.516850 -0.617845
O3    O     O_R   0.531890 0.639510 0.504600 -0.621185
O4    O     O_R   0.468110 0.360490 0.495400 -0.622605
O5    O     O_R   0.425590 0.483070 0.573110 -0.622785
O6    O     O_R   0.574410 0.516930 0.426890 -0.619938
O7    O     O_R   0.574360 0.516970 0.594570 -0.620827
O8    O     O_R   0.425640 0.483030 0.405430 -0.618560
O9    O     O_2   0.594564 0.362080 0.164108 -0.543621
O10   O     O_2   0.405348 0.638169 0.835851 -0.544522
O11   O     O_2   0.391616 0.626621 0.131671 -0.550687
O12   O     O_2   0.608333 0.373654 0.868300 -0.551358
Zn1   Zn    Zn3+2 0.400660 0.477370 0.485670 0.949748
Zn2   Zn    Zn3+2 0.599340 0.522630 0.514330 0.950908
F1    F     F_    0.021908 0.684582 0.611837 -0.665836
F2    F     F_    0.977724 0.316278 0.387602 -0.662819

loop_
_geom_bond_atom_site_label_1
_geom_bond_atom_site_label_2
_ccdc_geom_bond_type
C20   H29   S    
C40   H7    S    
C53   N1    A    
C64   H16   S    
C38   N4    A    
C43   C51   A    
C1    O1    A    
C37   H10   S    
C37   N3    A    
C39   C41   A    
C63   H15   S    
C27   C33   A    
O3    Zn2   S    
C15   C19   A    
C35   H11   S    
C59   C64   A    
C51   F1    S    
C60   C63   A    
C35   C37   A    
C29   C32   A    
C40   N4    A    
C30   C31   A    
C5    H19   S    
C39   N3    A    
C2    O4    A    
C58   C60   A    
C23   O7    A    
C54   O12   S    
O5    Zn1   S    
C61   C63   A    
C62   C64   A    
C36   H12   S    
C9    H21   S    
C23   O5    A    
C11   H23   S    
C49   C51   A    
C46   O10   S    
C3    H17   S    
C50   C52   A    
C22   H27   S    
C31   C33   A    
C1    C15   S    
C56   C58   A    
C2    C16   S    
C54   N2    A    
C3    C13   A    
C44   C52   A    
C40   C42   A    
C28   C34   A    
C41   C43   A    
O4    Zn1   S    
C42   C44   A    
C50   H14   S    
C47   C50   A    
O8    Zn1   S    
C53   C55   A    
C25   C29   A    
C54   C56   A    
C17   H3    S    
C6    H20   S    
C62   H2    S    
C13   N2    S    
C17   C27   A    
C18   C28   A    
C4    C6    A    
C5    C7    A    
N3    Zn2   S    
C12   H24   S    
C17   C19   A    
C32   H6    S    
C24   O6    A    
C32   C34   A    
C34   H26   S    
C29   C30   A    
C33   H25   S    
C19   H30   S    
C47   C48   A    
C15   C21   A    
C16   C20   A    
O1    Zn1   S    
C41   C47   A    
C4    H18   S    
C42   C48   A    
C9    C11   A    
C39   H8    S    
C10   C12   A    
C48   C49   A    
O7    Zn2   S    
C12   C14   A    
O2    Zn2   S    
C55   C57   A    
C56   C62   A    
C36   C44   A    
C24   O8    A    
C45   N1    A    
C1    O3    A    
C14   N1    S    
C35   C43   A    
O6    Zn2   S    
C53   O11   S    
C7    C9    A    
C21   C25   A    
C45   C59   A    
C16   C22   A    
N4    Zn1   S    
C46   C60   A    
C3    C5    A    
C6    C8    A    
C26   C30   A    
C52   F2    S    
C25   C27   A    
C26   C28   A    
C36   C38   A    
C11   C13   A    
C10   H22   S    
C57   C58   A    
C7    C23   S    
C55   C61   A    
C8    C24   S    
C49   H13   S    
C18   C20   A    
C4    C14   A    
C57   C59   A    
C2    O2    A    
C61   H1    S    
C31   H5    S    
C46   N2    A    
C8    C10   A    
C22   C26   A    
C18   H4    S    
C38   H9    S    
C45   O9    S    
C21   H28   S    
