data_mof_unit_2532.cif
_audit_creation_date              2012-12-10T19:08:08-0500
_audit_creation_method            fapswitch 2.2
_symmetry_space_group_name_H-M    P1
_symmetry_Int_Tables_number       1
_space_group_crystal_system       triclinic
_cell_length_a                    9.064695
_cell_length_b                    10.857091
_cell_length_c                    9.580983
_cell_angle_alpha                 89.963133
_cell_angle_beta                  89.826699
_cell_angle_gamma                 90.055427
_cell_volume                      942.919164972

loop_
_atom_site_label
_atom_site_type_symbol
_atom_type_description
_atom_site_fract_x
_atom_site_fract_y
_atom_site_fract_z
_atom_type_partial_charge
C1    C     C_R   0.500317 0.262801 0.499882 0.802421
C2    C     C_R   0.500118 0.935460 0.370782 -0.168913
C3    C     C_R   0.501103 0.869830 0.498075 -0.100609
C4    C     C_R   0.502686 0.937853 0.620520 0.113569
C5    C     C_3   0.504161 0.928699 0.775671 -0.438080
C6    C     C_3   0.504088 0.070600 0.775766 -0.447951
C7    C     C_R   0.623479 0.467577 0.072821 0.185828
C8    C     C_R   0.375285 0.526815 0.074417 -0.030509
C9    C     C_R   0.375303 0.526787 0.926234 -0.048224
C10   C     C_R   0.622842 0.467350 0.925557 0.139280
C11   C     C_3   0.769929 0.527614 0.915135 -0.509543
C12   C     C_R   0.220801 0.500113 0.500131 0.838086
C13   C     C_3   0.772274 0.529076 0.073240 0.616496
C14   C     C_R   0.500377 0.737175 0.499795 0.810918
C15   C     C_R   0.779182 0.500193 0.499959 0.870704
C16   C     C_1   0.065585 0.500316 0.500345 -0.131559
C17   C     C_1   0.934384 0.500365 0.500122 -0.105443
C18   C     C_R   0.502623 0.061863 0.620583 0.122796
C19   C     C_R   0.501002 0.130104 0.498181 -0.099165
C20   C     C_R   0.500046 0.064642 0.370838 -0.193295
Cu1   Cu    Cu3+1 0.499990 0.499980 0.640670 0.952253
Cu2   Cu    Cu3+1 0.500010 0.500020 0.359330 1.021310
H1    H     H_    0.499026 0.112436 0.271586 0.179661
H2    H     H_    0.763712 0.620513 0.866403 0.216033
H3    H     H_    0.499165 0.887799 0.271508 0.195768
H4    H     H_    0.400886 0.887559 0.817836 0.205990
H5    H     H_    0.608240 0.887756 0.815495 0.218168
H6    H     H_    0.400770 0.111380 0.818010 0.208441
H7    H     H_    0.608128 0.111663 0.815657 0.210198
H8    H     H_    0.274829 0.550631 0.128956 0.183314
H9    H     H_    0.274886 0.550603 0.872149 0.155859
H10   H     H_    0.853359 0.465567 0.867128 0.208012
N1    N     N_R   0.500920 0.500930 0.147930 -0.193591
N2    N     N_R   0.500930 0.500890 0.852020 -0.177877
O1    O     O_R   0.500000 0.319640 0.618810 -0.577730
O2    O     O_R   0.500020 0.319680 0.381230 -0.580620
O3    O     O_R   0.288380 0.499980 0.618770 -0.599321
O4    O     O_R   0.288400 0.500020 0.381190 -0.568028
O5    O     O_R   0.499980 0.680320 0.618770 -0.585846
O6    O     O_R   0.500000 0.680360 0.381190 -0.553938
O7    O     O_R   0.711600 0.499980 0.618810 -0.604198
O8    O     O_R   0.711620 0.500020 0.381230 -0.510237
Cl1   Cl    Cl    0.914959 0.433457 0.142213 -0.630714
Cl2   Cl    Cl    0.772617 0.681767 0.143563 -0.599715

loop_
_geom_bond_atom_site_label_1
_geom_bond_atom_site_label_2
_ccdc_geom_bond_type
C7    C10   A    
Cu1   O1    S    
Cu2   O2    S    
C15   O8    A    
C19   C20   A    
Cu1   O5    S    
C20   H1    S    
C7    C13   S    
C4    C18   A    
C13   Cl1   S    
C2    C3    A    
C8    H8    S    
C10   N2    A    
Cu1   Cu2   S    
C7    N1    A    
C15   O7    A    
Cu2   O8    S    
C3    C14   S    
Cu1   O7    S    
C5    C6    S    
C11   H10   S    
C2    H3    S    
C8    N1    A    
C12   O4    A    
C9    N2    A    
C6    C18   S    
C1    C19   S    
C16   C17   T    
C10   C11   S    
C9    H9    S    
C14   O6    A    
C5    H4    S    
Cu2   O4    S    
C12   C16   S    
C11   H2    S    
C11   C13   S    
C6    H7    S    
Cu1   O3    S    
C1    O1    A    
C18   C19   A    
C12   O3    A    
C15   C17   S    
Cu2   N1    S    
Cu2   O6    S    
C8    C9    A    
Cu1   N2    S    
C14   O5    A    
C5    H5    S    
C2    C20   A    
C13   Cl2   S    
C6    H6    S    
C3    C4    A    
C1    O2    A    
C4    C5    S    
