data_mof_unit_1396.cif
_audit_creation_date              2013-03-05T15:50:42-0500
_audit_creation_method            fapswitch 2.2
_symmetry_space_group_name_H-M    P1
_symmetry_Int_Tables_number       1
_space_group_crystal_system       triclinic
_cell_length_a                    15.067292
_cell_length_b                    10.855424
_cell_length_c                    9.592366
_cell_angle_alpha                 89.53688
_cell_angle_beta                  89.719464
_cell_angle_gamma                 92.853742
_cell_volume                      1566.92613818

loop_
_atom_site_label
_atom_site_type_symbol
_atom_site_description
_atom_site_fract_x
_atom_site_fract_y
_atom_site_fract_z
_atom_type_partial_charge
O1    O     O_R   0.499990 0.319640 0.618810 -0.564718
O2    O     O_R   0.500000 0.319660 0.381240 -0.585784
C1    C     C_R   0.507275 0.263062 0.501209 0.861211
O3    O     O_R   0.370250 0.499960 0.618800 -0.597541
O4    O     O_R   0.370260 0.499980 0.381230 -0.574154
C2    C     C_R   0.328859 0.499320 0.500263 0.805310
Cu1   Cu    Cu3+1 0.499990 0.499990 0.640660 0.978252
Cu2   Cu    Cu3+1 0.500010 0.500010 0.359340 0.995859
O5    O     O_R   0.500000 0.680340 0.618760 -0.620974
O6    O     O_R   0.500010 0.680360 0.381190 -0.547711
O7    O     O_R   0.629740 0.500020 0.618770 -0.570452
O8    O     O_R   0.629750 0.500040 0.381200 -0.600477
C3    C     C_R   0.492554 0.737230 0.499355 0.799271
C4    C     C_R   0.670921 0.494460 0.499385 0.834453
C5    C     C_R   0.815654 0.539534 0.608093 -0.240908
C6    C     C_R   0.767472 0.486100 0.497750 -0.090132
C7    C     C_R   0.811796 0.426653 0.388377 0.118524
C8    C     C_R   0.905525 0.432342 0.385210 0.012520
C9    C     C_R   0.953211 0.487233 0.497346 0.032172
C10   C     C_R   0.907755 0.538710 0.610089 0.117034
C11   C     C_R   0.952969 0.385134 0.272485 -0.184742
C12   C     C_R   0.045524 0.390655 0.269994 0.134692
C13   C     C_R   0.093108 0.442107 0.383305 0.057434
C14   C     C_R   0.046632 0.490144 0.497609 0.048280
C15   C     C_R   0.093585 0.541496 0.612514 0.122564
C16   C     C_R   0.047399 0.590783 0.724434 -0.174829
C17   C     C_R   0.955036 0.590221 0.722749 -0.169894
C18   C     C_R   0.185916 0.447026 0.385638 -0.194276
C19   C     C_R   0.232130 0.496656 0.500104 -0.073769
C20   C     C_R   0.186098 0.543201 0.613498 -0.222566
H1    H     H_    0.781264 0.583080 0.692681 0.156602
H2    H     H_    0.919317 0.345667 0.183038 0.204970
H3    H     H_    0.223190 0.410534 0.300023 0.180384
H4    H     H_    0.222353 0.582487 0.701385 0.154512
H5    H     H_    0.082762 0.630540 0.812797 0.158101
H6    H     H_    0.920496 0.629826 0.809774 0.151708
H7    H     H_    0.514193 0.118374 0.279730 0.200239
C21   C     C_R   0.532231 0.109954 0.764482 0.335297
C22   C     C_R   0.490209 0.056583 0.882525 -0.160566
H8    H     H_    0.499103 0.097948 0.984086 0.199612
C23   C     C_R   0.438620 0.947207 0.870778 -0.138469
H9    H     H_    0.403892 0.907955 0.960563 0.221803
C24   C     C_R   0.436251 0.884073 0.745093 -0.145943
H10   H     H_    0.397759 0.797368 0.741122 0.167250
C25   C     C_R   0.478012 0.936675 0.625178 0.007680
C26   C     C_R   0.511082 0.060126 0.631129 -0.016824
C27   C     C_R   0.515666 0.128952 0.504545 -0.130584
C28   C     C_R   0.510692 0.067381 0.377400 -0.238822
C29   C     C_R   0.497341 0.940306 0.372669 0.340476
C30   C     C_R   0.484785 0.872202 0.498151 -0.202559
H11   H     H_    0.396594 0.363764 0.131172 0.134808
C31   C     C_R   0.622128 0.658627 0.141857 -0.056260
H12   H     H_    0.625023 0.669820 0.251540 0.183975
C32   C     C_R   0.683681 0.733654 0.068543 -0.116040
H13   H     H_    0.730788 0.793591 0.123946 0.163335
C33   C     C_R   0.682620 0.735514 0.924908 -0.191030
H14   H     H_    0.729240 0.796361 0.867896 0.161642
C34   C     C_R   0.620963 0.660885 0.853755 -0.136614
H15   H     H_    0.624453 0.671955 0.743872 0.191843
C35   C     C_R   0.559663 0.578728 0.924082 0.235952
C36   C     C_R   0.559931 0.578182 0.073666 0.237497
N1    N     N_R   0.500860 0.501210 0.147910 -0.194987
C37   C     C_R   0.443129 0.425206 0.075041 -0.016472
H16   H     H_    0.396778 0.363637 0.872703 0.135169
C38   C     C_R   0.443152 0.425232 0.927094 -0.010756
N2    N     N_R   0.500890 0.501290 0.852040 -0.194785
N3    N     N_R   0.603728 0.201705 0.782548 0.147518
O9    O     O_R   0.613098 0.260079 0.899947 -0.349908
O10   O     O_R   0.666321 0.215545 0.688875 -0.350428
N4    N     N_R   0.490097 0.884055 0.238558 0.108777
O11   O     O_R   0.417532 0.821273 0.205362 -0.381588
O12   O     O_R   0.547659 0.915518 0.141722 -0.400821
I1    I     I_    0.738461 0.315029 0.238873 -0.252949
I2    I     I_    0.107038 0.319820 0.088905 -0.397391

loop_
_geom_bond_atom_site_label_1
_geom_bond_atom_site_label_2
_geom_bond_distance
_ccdc_geom_bond_type
C37   C38   1.419159 A    
C8    C11   1.407376 A    
C23   H9    1.079148 S    
C9    C10   1.411222 A    
Cu1   Cu2   2.698521 S    
C22   C23   1.392035 A    
C25   C26   1.408001 A    
Cu1   O7    1.965185 S    
C16   C17   1.391536 A    
N1    C37   1.367388 A    
C18   C19   1.400153 A    
C31   C36   1.415078 A    
C21   C22   1.401631 A    
O7    C4    1.303066 A    
C34   C35   1.416239 A    
C5    C6    1.399755 A    
C33   H14   1.083042 S    
C8    C9    1.415497 A    
O5    C3    1.304827 A    
C26   C27   1.420120 A    
C6    C7    1.417804 A    
C13   C14   1.415121 A    
N4    O11   1.301549 A    
C35   N2    1.381911 A    
C11   C12   1.392948 A    
C7    I1    2.157814 S    
C23   C24   1.391336 A    
O3    Cu1   1.967051 S    
C31   C32   1.388225 A    
C5    C10   1.388415 A    
C11   H2    1.079537 S    
C32   C33   1.377970 A    
C20   H4    1.085414 S    
N3    O9    1.301474 A    
H11   C37   1.081799 S    
C14   C15   1.415775 A    
O3    C2    1.299424 A    
C22   H8    1.082140 S    
C15   C16   1.400770 A    
C35   C36   1.434852 A    
N3    O10   1.301856 A    
C24   H10   1.081735 S    
C19   C20   1.398512 A    
C27   C28   1.396041 A    
Cu2   O8    1.967049 S    
C7    C8    1.410681 A    
C13   C18   1.397023 A    
H7    C28   1.084063 S    
C24   C25   1.411248 A    
C28   C29   1.385237 A    
O8    C4    1.297397 A    
C18   H3    1.081516 S    
C38   N2    1.367318 A    
C29   N4    1.430779 S    
C4    C6    1.462095 S    
C12   I2    2.131791 S    
C31   H12   1.060949 S    
C15   C20   1.393198 A    
Cu1   O5    1.967317 S    
C32   H13   1.082980 S    
O1    Cu1   1.970647 S    
O2    Cu2   1.967319 S    
O6    C3    1.302113 A    
O4    Cu2   1.965185 S    
C5    H1    1.084797 S    
C10   C17   1.402031 A    
C17   H6    1.084610 S    
H16   C38   1.081765 S    
O2    C1    1.307791 A    
C34   H15   1.060642 S    
Cu1   N2    2.027904 S    
O4    C2    1.298219 A    
C25   C30   1.415855 A    
C1    C27   1.467656 S    
C33   C34   1.387580 A    
C9    C14   1.406392 A    
C36   N1    1.381175 A    
C21   C26   1.424220 A    
C3    C30   1.475600 S    
C16   H5    1.084454 S    
C2    C19   1.456301 S    
C21   N3    1.442332 S    
Cu2   O6    1.970647 S    
C29   C30   1.414439 A    
C12   C13   1.408881 A    
N4    O12   1.299682 A    
O1    C1    1.295576 A    
Cu2   N1    2.028025 S    
