data_mof_unit_589.cif
_audit_creation_date              2012-12-11T15:48:01-0500
_audit_creation_method            fapswitch 2.2
_symmetry_space_group_name_H-M    P1
_symmetry_Int_Tables_number       1
_space_group_crystal_system       triclinic
_cell_length_a                    6.924669
_cell_length_b                    17.603373
_cell_length_c                    19.466815
_cell_angle_alpha                 108.572658
_cell_angle_beta                  89.520227
_cell_angle_gamma                 90.671889
_cell_volume                      2249.1927286

loop_
_atom_site_label
_atom_site_type_symbol
_atom_type_description
_atom_site_fract_x
_atom_site_fract_y
_atom_site_fract_z
_atom_type_partial_charge
O1    O     O_R   0.494330 0.415710 0.413720 -0.537817
O2    O     O_R   0.819360 0.430070 0.560210 -0.524966
O3    O     O_R   0.994320 0.584290 0.586280 -0.538233
C1    C     C_R   0.649749 0.416939 0.583586 0.707406
O4    O     O_R   0.823740 0.406290 0.412670 -0.546964
O5    O     O_R   0.998730 0.560340 0.437690 -0.540039
C2    C     C_R   0.654693 0.383178 0.384767 0.689335
O6    O     O_R   0.489920 0.439660 0.562310 -0.538887
O7    O     O_3   0.662330 0.550570 0.508380 -0.375611
V1    V     V_3+5 0.935370 0.490620 0.498440 1.450806
O8    O     O_R   0.328720 0.569930 0.439790 -0.546248
C3    C     C_R   0.160777 0.585175 0.418171 0.703462
O9    O     O_R   0.324340 0.593710 0.587330 -0.550313
C4    C     C_R   0.155245 0.616793 0.615406 0.697924
V2    V     V_3+5 0.435940 0.509380 0.501560 1.422241
O10   O     O_3   0.159110 0.449430 0.491620 -0.359856
C5    C     C_R   0.312594 0.723240 0.719061 -0.161903
H1    H     H_    0.453668 0.703874 0.696216 0.114561
C6    C     C_R   0.301295 0.787069 0.783988 -0.148161
H2    H     H_    0.434291 0.815036 0.809039 0.118281
C7    C     C_R   0.121213 0.814450 0.815978 -0.046542
C8    C     C_R   0.952775 0.776131 0.781224 -0.157200
H3    H     H_    0.811688 0.795452 0.804080 0.115782
C9    C     C_R   0.964073 0.712318 0.716297 -0.141314
H4    H     H_    0.831068 0.684339 0.691263 0.115967
C10   C     C_R   0.144128 0.685047 0.684232 -0.046177
C11   C     C_R   0.994774 0.627646 0.322327 -0.192739
C12   C     C_R   0.153082 0.634630 0.368878 -0.110802
C13   C     C_R   0.303617 0.688777 0.367933 -0.192110
C14   C     C_R   0.296938 0.736157 0.321578 0.095771
C15   C     C_R   0.138286 0.727427 0.274206 -0.010526
C16   C     C_R   0.987173 0.672954 0.274666 0.101183
C17   C     C_R   0.443701 0.792798 0.322047 0.190002
C18   C     C_R   0.435197 0.837377 0.273705 -0.239281
C19   C     C_R   0.279861 0.828061 0.225871 0.060601
C20   C     C_R   0.129283 0.773789 0.226769 0.046103
C21   C     C_R   0.969021 0.766141 0.180504 0.104792
C22   C     C_R   0.820161 0.711715 0.181534 -0.190873
C23   C     C_R   0.829607 0.665275 0.227877 -0.181453
C24   C     C_R   0.271528 0.873022 0.177849 -0.182808
C25   C     C_R   0.111998 0.866143 0.131744 -0.089205
C26   C     C_R   0.960331 0.812981 0.134018 -0.225514
H5    H     H_    0.878189 0.586038 0.322497 0.122363
H6    H     H_    0.424758 0.694504 0.404150 0.167459
H7    H     H_    0.549921 0.880001 0.274207 0.135486
H8    H     H_    0.388012 0.914537 0.177293 0.126836
H9    H     H_    0.836796 0.807120 0.098788 0.127909
H10   H     H_    0.695863 0.705196 0.146599 0.132467
H11   H     H_    0.712084 0.624062 0.227830 0.129912
C27   C     C_R   0.469902 0.188127 0.871351 -0.220099
C28   C     C_R   0.623949 0.136741 0.871280 -0.086610
C29   C     C_R   0.782386 0.133502 0.824762 -0.219926
C30   C     C_R   0.784761 0.179480 0.777456 0.091695
C31   C     C_R   0.628913 0.230779 0.777793 0.064266
C32   C     C_R   0.472562 0.235622 0.825702 0.095736
C33   C     C_R   0.939765 0.174797 0.729555 -0.190484
C34   C     C_R   0.940164 0.220101 0.682212 -0.157986
C35   C     C_R   0.786307 0.271423 0.682262 0.087079
C36   C     C_R   0.629783 0.277410 0.730404 0.022298
C37   C     C_R   0.475959 0.330520 0.732100 0.060043
C38   C     C_R   0.324139 0.335788 0.782380 -0.157049
C39   C     C_R   0.321523 0.288245 0.827623 -0.207400
C40   C     C_R   0.787839 0.316781 0.634936 -0.141906
C41   C     C_R   0.638171 0.370241 0.635495 -0.157293
C42   C     C_R   0.481634 0.378335 0.685237 -0.059141
H12   H     H_    0.348030 0.191794 0.907580 0.129015
H13   H     H_    0.901602 0.093915 0.824193 0.125351
H14   H     H_    0.060841 0.136033 0.728653 0.133609
H15   H     H_    0.061934 0.215411 0.645797 0.138364
H16   H     H_    0.907108 0.310235 0.597094 0.155090
H17   H     H_    0.205296 0.376433 0.787769 0.176040
H18   H     H_    0.201088 0.293146 0.864671 0.134371
C43   C     C_R   0.791842 0.257295 0.298538 -0.141320
H19   H     H_    0.912892 0.264124 0.335027 0.158590
C44   C     C_R   0.781123 0.189669 0.235828 -0.004365
C45   C     C_R   0.622056 0.180853 0.187690 -0.131023
C46   C     C_R   0.473553 0.237806 0.207105 -0.087030
H20   H     H_    0.349803 0.232635 0.172180 0.133479
C47   C     C_R   0.483123 0.302834 0.271104 -0.127598
H21   H     H_    0.366036 0.345422 0.284033 0.117807
C48   C     C_R   0.643545 0.313895 0.316978 -0.095880
O11   O     O_R   0.774940 0.060470 0.937800 -0.539153
O12   O     O_R   0.440880 0.093730 0.087350 -0.530511
O13   O     O_R   0.266130 0.939630 0.062280 -0.537478
C49   C     C_R   0.609746 0.114666 0.116997 0.675187
O14   O     O_R   0.445480 0.069960 0.939820 -0.544461
O15   O     O_R   0.270770 0.915690 0.913690 -0.541551
C50   C     C_R   0.615003 0.085651 0.918782 0.713965
O16   O     O_R   0.770300 0.084410 0.086380 -0.547990
O17   O     O_3   0.602600 0.949510 0.991670 -0.372344
V3    V     V_3+5 0.329470 0.009370 0.001550 1.421794
O18   O     O_R   0.940760 0.906160 0.912560 -0.545201
C51   C     C_R   0.109948 0.882964 0.884634 0.682740
O19   O     O_R   0.936150 0.929930 0.060100 -0.548197
C52   C     C_R   0.104079 0.914993 0.081963 0.712822
V4    V     V_3+5 0.828930 0.990450 0.998310 1.398642
O20   O     O_3   0.105670 0.050490 0.008320 -0.366953
C53   C     C_2   0.333349 0.440431 0.690989 0.369199
H22   H     H_    0.378119 0.501423 0.696676 0.036275
O21   O     O_2   0.161748 0.423291 0.685684 -0.546008
C54   C     C_2   0.930855 0.127070 0.225210 0.357393
H23   H     H_    0.900679 0.065395 0.193453 0.054256
O22   O     O_2   0.089315 0.143368 0.253516 -0.540918
N1    N     N_3   0.598919 0.807053 0.372983 -0.680127
H24   H     H_    0.729302 0.800756 0.344464 0.246012
H25   H     H_    0.591069 0.866659 0.406381 0.233779

loop_
_geom_bond_atom_site_label_1
_geom_bond_atom_site_label_2
_ccdc_geom_bond_type
C54   H23   S    
O15   V3    S    
C17   N1    S    
C43   H19   S    
C19   C20   A    
C1    O6    A    
N1    H25   S    
C34   C35   A    
C30   C31   A    
C24   H8    S    
C13   C14   A    
C3    C12   S    
C5    C10   A    
C12   C13   A    
C6    C7    A    
C9    C10   A    
C42   C53   S    
O14   V3    S    
C15   C20   A    
O5    C3    A    
C14   C15   A    
O14   C50   A    
V2    O10   S    
C32   C39   A    
O18   V4    S    
C33   C34   A    
C18   C19   A    
C25   C26   A    
C16   C23   A    
C21   C26   A    
O8    V2    S    
C6    H2    S    
O1    V2    S    
O13   V3    S    
O7    V1    S    
C22   H10   S    
O12   C49   A    
C46   H20   S    
C38   H17   S    
C36   C37   A    
C54   O22   D    
O9    C4    A    
C43   C44   A    
C38   C39   A    
C43   C48   A    
N1    H24   S    
C5    H1    S    
C31   C36   A    
C46   C47   A    
C22   C23   A    
O11   V4    S    
C28   C29   A    
C9    H4    S    
O4    C2    A    
C49   O16   A    
C27   C28   A    
C35   C36   A    
C33   H14   S    
C4    C10   S    
C47   H21   S    
C37   C38   A    
O13   C52   A    
O2    C1    A    
C44   C45   A    
C21   C22   A    
C15   C16   A    
C40   H16   S    
V4    O20   S    
C17   C18   A    
C39   H18   S    
C18   H7    S    
V3    O20   S    
O19   V4    S    
C27   H12   S    
O3    C4    A    
C24   C25   A    
C23   H11   S    
C37   C42   A    
O6    V2    S    
C53   O21   D    
O9    V2    S    
C13   H6    S    
C8    C9    A    
O2    V1    S    
C29   C30   A    
C47   C48   A    
C30   C33   A    
C35   C40   A    
C31   C32   A    
C20   C21   A    
C14   C17   A    
C2    C48   S    
C11   C16   A    
O1    C2    A    
C29   H13   S    
C28   C50   S    
O5    V1    S    
O8    C3    A    
O17   V4    S    
O12   V3    S    
C1    C41   S    
C27   C32   A    
C41   C42   A    
O16   V4    S    
C19   C24   A    
O7    V2    S    
O4    V1    S    
O3    V1    S    
V1    O10   S    
C45   C46   A    
O17   V3    S    
C25   C52   S    
C7    C51   S    
O11   C50   A    
O15   C51   A    
O18   C51   A    
C5    C6    A    
C26   H9    S    
O19   C52   A    
C40   C41   A    
C11   H5    S    
C53   H22   S    
C11   C12   A    
C44   C54   S    
C8    H3    S    
C34   H15   S    
C7    C8    A    
C45   C49   S    
