data_mof_unit_2551.cif
_audit_creation_date              2012-12-10T19:28:32-0500
_audit_creation_method            fapswitch 2.2
_symmetry_space_group_name_H-M    P1
_symmetry_Int_Tables_number       1
_space_group_crystal_system       triclinic
_cell_length_a                    26.969722
_cell_length_b                    10.550642
_cell_length_c                    9.80986
_cell_angle_alpha                 92.289251
_cell_angle_beta                  89.41298
_cell_angle_gamma                 89.387404
_cell_volume                      2788.82857783

loop_
_atom_site_label
_atom_site_type_symbol
_atom_type_description
_atom_site_fract_x
_atom_site_fract_y
_atom_site_fract_z
_atom_type_partial_charge
C1    C     C_R   0.502496 0.258019 0.497247 1.018643
C2    C     C_R   0.498709 0.742221 0.502732 1.012650
C3    C     C_R   0.098840 0.662852 0.569268 -0.129405
C4    C     C_R   0.890555 0.694234 0.603350 -0.130366
C5    C     C_R   0.124141 0.588958 0.664643 -0.064124
C6    C     C_R   0.862815 0.745034 0.496163 -0.085058
C7    C     C_R   0.100945 0.567299 0.792709 0.187230
C8    C     C_R   0.887690 0.797662 0.384217 0.171461
C9    C     C_R   0.124478 0.711071 0.455504 -0.014087
C10   C     C_R   0.865116 0.640959 0.714465 -0.016738
C11   C     C_R   0.352092 0.525967 0.504118 -0.144851
C12   C     C_R   0.648497 0.505185 0.502312 -0.117302
C13   C     C_R   0.970213 0.653619 0.712333 0.036085
C14   C     C_R   0.020736 0.747319 0.484782 0.033385
C15   C     C_R   0.967961 0.745441 0.485442 0.002719
C16   C     C_R   0.022985 0.651388 0.707016 0.002281
C17   C     C_R   0.942979 0.700529 0.601692 0.041258
C18   C     C_R   0.047335 0.686143 0.586577 0.038055
C19   C     C_R   0.944038 0.597444 0.818856 -0.210894
C20   C     C_R   0.047998 0.814828 0.389537 -0.205885
C21   C     C_R   0.892392 0.596241 0.825596 0.191032
C22   C     C_R   0.098924 0.795078 0.369889 0.177290
C23   C     C_R   0.405613 0.503019 0.500738 0.960184
C24   C     C_R   0.594422 0.499442 0.499721 0.950594
C25   C     C_R   0.052914 0.617752 0.818459 0.179216
C26   C     C_R   0.939284 0.777338 0.369848 0.187143
C27   C     C_3   0.529676 0.047800 0.602564 -0.382487
C28   C     C_3   0.473263 0.952669 0.397186 -0.384387
C29   C     C_3   0.547008 0.951785 0.488674 0.399780
C30   C     C_3   0.455873 0.048291 0.511273 0.400931
C31   C     C_3   0.499376 0.877140 0.507623 -0.370636
C32   C     C_3   0.503393 0.123182 0.492308 -0.371816
C33   C     C_3   0.481622 0.972108 0.620193 0.427886
C34   C     C_3   0.521329 0.028407 0.379738 0.431928
C35   C     C_3   0.464520 0.432679 0.045937 0.191849
C36   C     C_3   0.535542 0.567110 0.953963 0.170915
C37   C     C_3   0.505290 0.385384 0.945548 -0.062864
C38   C     C_3   0.494735 0.614559 0.054334 -0.062229
C39   C     C_3   0.459223 0.545826 0.955976 0.153363
C40   C     C_3   0.540783 0.453881 0.044015 0.153013
C41   C     C_R   0.173086 0.549356 0.632027 0.600318
C42   C     C_R   0.811125 0.725854 0.498177 0.553182
C43   C     C_R   0.175051 0.677890 0.437149 0.579221
C44   C     C_R   0.813459 0.624668 0.702332 0.618410
C45   C     C_R   0.282013 0.645718 0.600980 0.474971
C46   C     C_R   0.725096 0.474504 0.623642 0.488971
C47   C     C_R   0.332624 0.618397 0.596459 -0.278701
C48   C     C_R   0.674060 0.458140 0.613060 -0.261047
C49   C     C_R   0.320756 0.461423 0.413063 -0.145204
C50   C     C_R   0.675459 0.552189 0.393514 -0.119166
C51   C     C_R   0.269510 0.484736 0.418055 0.177445
C52   C     C_R   0.726460 0.570895 0.405297 0.195935
C53   C     C_R   0.250077 0.577124 0.512776 0.164613
C54   C     C_R   0.748704 0.559793 0.535645 0.098317
H1    H     H_    0.336093 0.391434 0.340369 0.192096
H2    H     H_    0.657243 0.573700 0.299505 0.184098
H3    H     H_    0.553119 0.088409 0.685493 0.226444
H4    H     H_    0.449824 0.912340 0.314093 0.226098
H5    H     H_    0.510276 0.289714 0.895861 0.206456
H6    H     H_    0.489910 0.710387 0.103847 0.204675
H7    H     H_    0.654843 0.401393 0.686236 0.193197
H8    H     H_    0.357167 0.671343 0.663128 0.221376
H9    H     H_    0.963505 0.546348 0.894938 0.171938
H10   H     H_    0.029559 0.884241 0.329406 0.171125
N1    N     N_R   0.197561 0.598419 0.524297 -0.336760
N2    N     N_R   0.792069 0.634372 0.577546 -0.329599
N3    N     N_3   0.499960 0.500030 0.863290 -0.118384
N4    N     N_3   0.500040 0.499970 0.136710 -0.117719
O1    O     O_R   0.500000 0.313960 0.616610 -0.602835
O2    O     O_R   0.500000 0.686040 0.383390 -0.605762
O3    O     O_R   0.500020 0.313950 0.383350 -0.585858
O4    O     O_R   0.499980 0.686050 0.616650 -0.589397
O5    O     O_R   0.428750 0.500030 0.616610 -0.607193
O6    O     O_R   0.571250 0.499970 0.383390 -0.619130
O7    O     O_R   0.428770 0.500020 0.383360 -0.627999
O8    O     O_R   0.571230 0.499980 0.616640 -0.629624
O9    O     O_2   0.196957 0.464130 0.707179 -0.542628
O10   O     O_2   0.780230 0.798655 0.427110 -0.549423
O11   O     O_2   0.784809 0.606398 0.812630 -0.525907
O12   O     O_2   0.202129 0.724200 0.334601 -0.546533
Zn1   Zn    Zn3+2 0.499990 0.500010 0.655740 1.003322
Zn2   Zn    Zn3+2 0.500010 0.499990 0.344260 1.002009
S1    S     S_3+6 0.455701 0.945643 0.783928 0.067729
O13   O     O_2   0.405420 0.888566 0.766826 -0.251209
O14   O     O_2   0.488687 0.858029 0.859761 -0.333168
O15   O     O_3   0.450263 0.084969 0.872121 -0.517396
H11   H     H_    0.436011 0.063479 0.961635 0.397350
S2    S     S_3+6 0.548271 0.057087 0.217422 0.068166
O16   O     O_2   0.515935 0.146932 0.142459 -0.333107
O17   O     O_2   0.598913 0.112407 0.236821 -0.265273
O18   O     O_3   0.553243 0.919006 0.126639 -0.512802
H12   H     H_    0.568326 0.941345 0.038418 0.398347
C55   C     C_3   0.421881 0.355634 0.100360 -0.706041
H13   H     H_    0.393960 0.420250 0.150390 0.224291
H14   H     H_    0.403972 0.302768 0.014479 0.242959
H15   H     H_    0.435675 0.287565 0.174576 0.293591
C56   C     C_3   0.578385 0.643479 0.899201 -0.674183
H16   H     H_    0.596215 0.696911 0.984824 0.238380
H17   H     H_    0.606384 0.578624 0.849700 0.231433
H18   H     H_    0.564827 0.710956 0.824114 0.293883
C57   C     C_3   0.410761 0.598081 0.904153 -0.698627
H19   H     H_    0.389566 0.645505 0.989661 0.235666
H20   H     H_    0.419078 0.667258 0.826053 0.290042
H21   H     H_    0.388306 0.519866 0.859038 0.244311
C58   C     C_3   0.589293 0.400457 0.094869 -0.691049
H22   H     H_    0.608538 0.345590 0.010785 0.233165
H23   H     H_    0.613322 0.479317 0.129589 0.216060
H24   H     H_    0.581943 0.338062 0.180367 0.300169
C59   C     C_3   0.235805 0.409512 0.324938 -0.805861
H25   H     H_    0.256800 0.338222 0.260290 0.246767
H26   H     H_    0.208215 0.358561 0.386517 0.243426
H27   H     H_    0.216046 0.473886 0.256564 0.257769
C60   C     C_3   0.755815 0.581702 0.274489 -0.755414
H28   H     H_    0.745846 0.502611 0.202091 0.244655
H29   H     H_    0.746782 0.672191 0.225846 0.278715
H30   H     H_    0.796331 0.573125 0.290579 0.223704
C61   C     C_3   0.127678 0.500521 0.905556 -0.740028
H31   H     H_    0.136472 0.401111 0.871906 0.263601
H32   H     H_    0.161957 0.552104 0.933759 0.289620
H33   H     H_    0.105217 0.492981 0.999842 0.210619
C62   C     C_3   0.859734 0.862513 0.272396 -0.752531
H34   H     H_    0.835990 0.793369 0.216093 0.247084
H35   H     H_    0.836999 0.942220 0.317354 0.280641
H36   H     H_    0.884700 0.906161 0.197516 0.226946
S3    S     S_3+6 0.757777 0.352902 0.705888 0.036397
O19   O     O_2   0.811964 0.352363 0.668390 -0.325777
O20   O     O_2   0.751256 0.369740 0.857930 -0.276000
O21   O     O_3   0.733572 0.212594 0.655598 -0.520434
H37   H     H_    0.752341 0.148574 0.705990 0.394307
S4    S     S_3+6 0.259344 0.764068 0.719974 0.042689
O22   O     O_2   0.220517 0.844576 0.655323 -0.308613
O23   O     O_2   0.236942 0.701137 0.840322 -0.293123
O24   O     O_3   0.305551 0.857681 0.774973 -0.482610
H38   H     H_    0.289578 0.920946 0.839000 0.398710
C63   C     C_3   0.868500 0.538054 0.948182 -0.752263
H39   H     H_    0.896308 0.505605 0.022307 0.196736
H40   H     H_    0.844491 0.609431 0.003670 0.253724
H41   H     H_    0.846603 0.454019 0.915594 0.310025
C64   C     C_3   0.123774 0.865280 0.256968 -0.752680
H42   H     H_    0.097606 0.929384 0.205555 0.204284
H43   H     H_    0.153990 0.925156 0.299304 0.279233
H44   H     H_    0.138493 0.796851 0.177295 0.265359
C65   C     C_3   0.039630 0.664811 0.962316 -0.942546
H45   H     H_    0.008864 0.735497 0.963092 0.258511
H46   H     H_    0.029479 0.584649 0.026495 0.233824
H47   H     H_    0.071682 0.714679 0.009112 0.263901
C66   C     C_3   0.959453 0.754749 0.225738 -0.958396
H48   H     H_    0.968890 0.845700 0.179247 0.244010
H49   H     H_    0.991978 0.689716 0.223502 0.257780
H50   H     H_    0.931623 0.705672 0.160350 0.256620
S5    S     S_3+6 0.608069 0.885091 0.478744 0.075568
O25   O     O_2   0.616509 0.804604 0.599463 -0.333265
O26   O     O_2   0.613574 0.805009 0.349314 -0.275019
O27   O     O_3   0.649661 0.002622 0.479492 -0.475264
H51   H     H_    0.682381 0.959110 0.472981 0.411041
S6    S     S_3+6 0.394546 0.113335 0.519513 0.068913
O28   O     O_2   0.389414 0.203672 0.641323 -0.258157
O29   O     O_2   0.384885 0.182575 0.391511 -0.359792
O30   O     O_3   0.353665 0.995136 0.532138 -0.474672
H52   H     H_    0.320808 0.037830 0.539699 0.403469

loop_
_geom_bond_atom_site_label_1
_geom_bond_atom_site_label_2
_ccdc_geom_bond_type
C63   H41   S    
C57   H19   S    
C27   C29   S    
C8    C26   A    
C14   C18   A    
C46   S3    S    
C44   N2    A    
C66   H48   S    
S6    O30   S    
C12   C48   A    
O21   H37   S    
C47   H8    S    
C56   H16   S    
C36   N3    S    
C63   H39   S    
C52   C60   S    
C27   C33   S    
C58   H23   S    
C1    O3    A    
C11   C49   A    
S6    O28   D    
C66   H49   S    
C23   O5    A    
C37   C40   S    
C61   H32   S    
C41   O9    S    
C38   C39   S    
C64   H44   S    
C8    C62   S    
C65   H45   S    
C37   N3    S    
C3    C18   A    
C65   H46   S    
S5    O27   S    
C11   C23   S    
C7    C61   S    
C55   H14   S    
C62   H36   S    
C59   H26   S    
C11   C47   A    
O30   H52   S    
C19   H9    S    
C49   C51   A    
S3    O21   S    
C50   C52   A    
S5    O25   D    
C31   C33   S    
C36   C56   S    
C53   N1    S    
O4    Zn1   S    
O3    Zn2   S    
C30   S6    S    
C28   C34   S    
C45   S4    S    
C57   H20   S    
C63   H40   S    
C25   C65   S    
O6    Zn2   S    
C2    O4    A    
O5    Zn1   S    
C56   H17   S    
C52   C54   A    
C39   C57   S    
C45   C47   A    
C10   C21   A    
C58   H24   S    
C46   C48   A    
C9    C43   A    
C13   C19   A    
C10   C44   A    
C14   C20   A    
C36   C40   S    
C66   H50   S    
C4    C6    A    
C27   H3    S    
C61   H33   S    
O18   H12   S    
C5    C7    A    
O15   H11   S    
C24   O8    A    
C15   C26   A    
C41   N1    A    
C43   O12   S    
C49   H1    S    
C29   C34   S    
C1    C32   S    
C1    O1    A    
C2    C31   S    
C51   C53   A    
C32   C34   S    
C20   H10   S    
S4    O23   D    
C3    C9    A    
C29   S5    S    
C35   C55   S    
S1    O13   D    
S2    O18   S    
C43   N1    A    
C46   C54   A    
O27   H51   S    
C55   H13   S    
C34   S2    S    
C33   S1    S    
C62   H34   S    
C37   H5    S    
C38   H6    S    
C4    C17   A    
C6    C8    A    
C16   C18   A    
S1    O14   D    
C38   N4    S    
C42   O10   S    
C57   H21   S    
C28   C31   S    
C40   N4    S    
S3    O19   D    
C59   H27   S    
S4    O24   S    
C65   H47   S    
C20   C22   A    
C4    C10   A    
C56   H18   S    
C35   C37   S    
C42   N2    A    
C60   H28   S    
O2    Zn2   S    
C16   C25   A    
C15   C17   A    
C5    C41   A    
S2    O17   D    
C30   C33   S    
C19   C21   A    
C27   C32   S    
C39   N3    S    
C44   O11   S    
C23   O7    A    
C3    C5    A    
O8    Zn1   S    
C12   C50   A    
C64   H42   S    
O7    Zn2   S    
N3    Zn1   S    
C54   N2    S    
C28   H4    S    
C55   H15   S    
C58   H22   S    
C12   C24   S    
C7    C25   A    
C13   C17   A    
N4    Zn2   S    
C60   H30   S    
S6    O29   D    
S4    O22   D    
C28   C30   S    
C29   C31   S    
C2    O2    A    
C61   H31   S    
C30   C32   S    
C64   H43   S    
C24   O6    A    
C48   H7    S    
O24   H38   S    
C35   N4    S    
C35   C39   S    
C22   C64   S    
C36   C38   S    
S5    O26   D    
C26   C66   S    
C9    C22   A    
C50   H2    S    
C62   H35   S    
O1    Zn1   S    
C45   C53   A    
S1    O15   S    
S2    O16   D    
C51   C59   S    
C6    C42   A    
C13   C16   A    
S3    O20   D    
C14   C15   A    
C59   H25   S    
C21   C63   S    
C40   C58   S    
C60   H29   S    
