data_mof_unit_1584.cif
_audit_creation_date              2012-12-10T19:15:17-0500
_audit_creation_method            fapswitch 2.2
_symmetry_space_group_name_H-M    P1
_symmetry_Int_Tables_number       1
_space_group_crystal_system       triclinic
_cell_length_a                    10.746707
_cell_length_b                    9.966818
_cell_length_c                    23.337851
_cell_angle_alpha                 86.757435
_cell_angle_beta                  94.455033
_cell_angle_gamma                 90.617876
_cell_volume                      2488.13438317

loop_
_atom_site_label
_atom_site_type_symbol
_atom_type_description
_atom_site_fract_x
_atom_site_fract_y
_atom_site_fract_z
_atom_type_partial_charge
C1    C     C_R   0.258917 0.499080 0.503128 0.937064
C2    C     C_R   0.333013 0.644383 0.959753 -0.144553
C3    C     C_R   0.336116 0.649929 0.019283 -0.143810
C4    C     C_R   0.433485 0.588508 0.054543 -0.019865
C5    C     C_R   0.529157 0.522118 0.029624 -0.019014
C6    C     C_R   0.627654 0.460838 0.064658 -0.020803
C7    C     C_R   0.722411 0.394730 0.039406 -0.140465
C8    C     C_R   0.718555 0.387880 0.979889 -0.146716
C9    C     C_R   0.436623 0.589332 0.114406 0.519083
C10   C     C_R   0.627513 0.465744 0.124320 0.524058
C11   C     C_R   0.539888 0.639315 0.238331 -0.066575
C12   C     C_R   0.501977 0.503317 0.389522 1.015900
C13   C     C_R   0.530403 0.633649 0.297337 -0.098380
C14   C     C_R   0.509338 0.510283 0.327120 -0.081303
C15   C     C_R   0.500319 0.392156 0.297021 -0.144308
C16   C     C_R   0.508896 0.397975 0.237979 -0.099075
C17   C     C_R   0.528195 0.521597 0.208616 0.270206
C18   C     C_R   0.418012 0.426283 0.761030 -0.070408
C19   C     C_R   0.413321 0.425511 0.701424 -0.148239
C20   C     C_R   0.506001 0.492587 0.671932 -0.005227
C21   C     C_R   0.601681 0.562864 0.701580 -0.175395
C22   C     C_R   0.605874 0.564419 0.761023 -0.055814
C23   C     C_R   0.741726 0.500462 0.498746 0.912828
C24   C     C_R   0.514203 0.496024 0.790769 0.281725
C25   C     C_3   0.077520 0.592164 0.547879 -0.385510
C26   C     C_3   0.071501 0.355257 0.516730 -0.364001
C27   C     C_3   0.934402 0.591193 0.545895 -0.425652
C28   C     C_3   0.929378 0.356446 0.516424 -0.389615
C29   C     C_3   0.068315 0.553294 0.442858 -0.383759
C30   C     C_3   0.121779 0.498694 0.502865 -0.011511
C31   C     C_3   0.878653 0.500248 0.497983 -0.054819
C32   C     C_3   0.924348 0.545536 0.436244 0.662925
C33   C     C_3   0.371758 0.081716 0.479261 0.187082
C34   C     C_3   0.374952 0.918400 0.473653 0.268828
C35   C     C_3   0.579584 0.087573 0.454580 -0.371676
C36   C     C_3   0.594612 0.926836 0.461936 -0.385534
C37   C     C_3   0.558857 0.063244 0.553975 0.255229
C38   C     C_3   0.522608 0.910838 0.558191 0.153726
C39   C     C_R   0.500266 0.497122 0.609998 0.854116
C40   C     C_R   0.613479 0.440738 0.884921 0.516419
C41   C     C_R   0.425101 0.568693 0.874997 0.521606
C42   C     C_R   0.426952 0.576853 0.934555 -0.019293
C43   C     C_R   0.525603 0.515794 0.969556 -0.018181
C44   C     C_R   0.620221 0.447626 0.944663 -0.018040
H1    H     H_    0.256487 0.692283 0.933644 0.198685
H2    H     H_    0.336797 0.374982 0.678313 0.164107
H3    H     H_    0.672489 0.616614 0.678632 0.151460
H4    H     H_    0.679354 0.619622 0.784028 0.158717
H5    H     H_    0.108518 0.697182 0.538276 0.255502
H6    H     H_    0.098477 0.286115 0.484658 0.277410
H7    H     H_    0.117036 0.558562 0.591760 0.175982
H8    H     H_    0.112483 0.315851 0.559603 0.186177
H9    H     H_    0.905236 0.552385 0.588560 0.175976
H10   H     H_    0.902386 0.325298 0.560365 0.218718
H11   H     H_    0.898551 0.695125 0.540335 0.252346
H12   H     H_    0.889092 0.279003 0.487861 0.243905
H13   H     H_    0.098617 0.659698 0.438196 0.250729
H14   H     H_    0.110206 0.502446 0.408160 0.220088
H15   H     H_    0.261764 0.701732 0.037540 0.199936
H16   H     H_    0.310221 0.101148 0.513622 0.125274
H17   H     H_    0.300498 0.877710 0.499829 0.151334
H18   H     H_    0.542795 0.117476 0.410115 0.259268
H19   H     H_    0.591494 0.883222 0.419573 0.287145
H20   H     H_    0.661663 0.059603 0.549577 0.093256
H21   H     H_    0.604548 0.854728 0.579108 0.131072
H22   H     H_    0.673443 0.135880 0.458462 0.211100
H23   H     H_    0.689466 0.902746 0.481857 0.204803
H24   H     H_    0.799072 0.347093 0.065519 0.201788
H25   H     H_    0.792498 0.335394 0.961640 0.198048
H26   H     H_    0.555905 0.734940 0.215601 0.167180
H27   H     H_    0.541798 0.725385 0.319477 0.232094
H28   H     H_    0.487336 0.295274 0.318949 0.216485
H29   H     H_    0.499888 0.306696 0.214887 0.168264
H30   H     H_    0.346497 0.374407 0.784116 0.158433
N1    N     N_R   0.517131 0.500951 0.851672 -0.358750
N2    N     N_R   0.532035 0.527575 0.147722 -0.356823
N3    N     N_3   0.499750 0.138610 0.498760 -0.174789
N4    N     N_3   0.499750 0.861390 0.498760 -0.192187
O1    O     O_R   0.314910 0.616040 0.499990 -0.542523
O2    O     O_R   0.314910 0.383960 0.499990 -0.578583
O3    O     O_R   0.500080 0.616070 0.416130 -0.541916
O4    O     O_R   0.500080 0.383930 0.416130 -0.559785
O5    O     O_R   0.685320 0.616040 0.499970 -0.610121
O6    O     O_R   0.685320 0.383960 0.499970 -0.591250
O7    O     O_R   0.500150 0.616010 0.583820 -0.584118
O8    O     O_R   0.500150 0.383990 0.583820 -0.535064
O9    O     O_2   0.701800 0.373918 0.860109 -0.540059
O10   O     O_2   0.332926 0.628801 0.840500 -0.534257
O11   O     O_2   0.344033 0.648969 0.139305 -0.528832
O12   O     O_2   0.721392 0.408850 0.158828 -0.535014
Zn1   Zn    Zn3+2 0.500150 0.654960 0.499970 1.056809
Zn2   Zn    Zn3+2 0.500150 0.345040 0.499970 1.076689
S1    S     S_3+6 0.870029 0.710122 0.407448 0.041379
O13   O     O_2   0.934628 0.747584 0.353842 -0.195621
O14   O     O_2   0.732544 0.706206 0.391728 -0.327695
O15   O     O_3   0.903710 0.830126 0.454120 -0.618518
H31   H     H_    0.892439 0.916258 0.431047 0.405967
S2    S     S_3+6 0.877946 0.425898 0.381585 0.032048
O16   O     O_2   0.963765 0.307321 0.386553 -0.274039
O17   O     O_2   0.747731 0.375316 0.387948 -0.368109
O18   O     O_3   0.884033 0.499142 0.315097 -0.460672
H32   H     H_    0.833709 0.440185 0.289348 0.405290
S3    S     S_3+6 0.286585 0.168853 0.414363 0.088436
O19   O     O_2   0.334425 0.126151 0.359633 -0.248725
O20   O     O_2   0.152818 0.125509 0.416820 -0.234047
O21   O     O_3   0.276676 0.335412 0.402894 -0.556241
H33   H     H_    0.236463 0.350560 0.363407 0.380292
S4    S     S_3+6 0.319936 0.853451 0.401634 0.103224
O22   O     O_2   0.194817 0.909015 0.380436 -0.155829
O23   O     O_2   0.410627 0.890303 0.357490 -0.306724
O24   O     O_3   0.291337 0.689322 0.398061 -0.572392
H34   H     H_    0.267072 0.675585 0.356938 0.374612
S5    S     S_3+6 0.587847 0.133542 0.623538 0.088635
O25   O     O_2   0.470449 0.176739 0.647832 -0.229512
O26   O     O_2   0.648109 0.026938 0.664370 -0.267963
O27   O     O_3   0.693048 0.259606 0.619751 -0.586682
H35   H     H_    0.713925 0.282507 0.660142 0.372329
S6    S     S_3+6 0.397185 0.879268 0.607421 0.060499
O28   O     O_2   0.456762 0.852715 0.667367 -0.216071
O29   O     O_2   0.312824 0.998260 0.607517 -0.293198
O30   O     O_3   0.305069 0.747670 0.592567 -0.587597
H36   H     H_    0.269151 0.720430 0.629325 0.368966

loop_
_geom_bond_atom_site_label_1
_geom_bond_atom_site_label_2
_ccdc_geom_bond_type
C22   H4    S    
N3    Zn2   S    
O18   H32   S    
C41   C42   A    
C19   C20   A    
O7    Zn1   S    
C19   H2    S    
C7    C8    A    
S4    O22   D    
C15   H28   S    
C8    H25   S    
S1    O13   D    
C23   O5    A    
C18   C24   A    
C40   O9    S    
C37   C38   S    
C29   C32   S    
C26   H6    S    
C5    C6    A    
C27   H11   S    
C37   S5    S    
O21   H33   S    
C15   C16   A    
O4    Zn2   S    
O27   H35   S    
C18   C19   A    
S6    O28   D    
C7    H24   S    
C10   N2    A    
C35   C36   S    
C32   S2    S    
C16   C17   A    
C17   N2    S    
C9    N2    A    
C35   H18   S    
C36   H19   S    
O1    Zn1   S    
S5    O27   S    
C32   S1    S    
C5    C43   A    
C18   H30   S    
C21   C22   A    
C25   H5    S    
C2    H1    S    
C28   H12   S    
C36   H23   S    
C23   O6    A    
C27   C31   S    
C16   H29   S    
C9    O11   S    
C20   C39   S    
C28   H10   S    
C13   H27   S    
C35   H22   S    
C37   N3    S    
C35   N3    S    
C34   H17   S    
S6    O30   S    
C23   C31   S    
O2    Zn2   S    
C43   C44   A    
C25   H7    S    
C29   C30   S    
C26   H8    S    
C41   N1    A    
C31   C32   S    
C38   H21   S    
O15   H31   S    
C33   C34   S    
C12   O4    A    
S3    O20   D    
S4    O24   S    
C20   C21   A    
O30   H36   S    
C12   C14   S    
C26   C30   S    
S1    O15   S    
S2    O17   D    
C1    O1    A    
C22   C24   A    
C25   C27   S    
C42   C43   A    
C39   O7    A    
C3    C4    A    
C37   H20   S    
S5    O25   D    
C25   C30   S    
C41   O10   S    
C11   C17   A    
O24   H34   S    
C33   S3    S    
C26   C28   S    
C28   C31   S    
C8    C44   A    
C29   H13   S    
C4    C5    A    
C6    C10   A    
C27   H9    S    
C24   N1    S    
C6    C7    A    
N4    Zn1   S    
C33   H16   S    
S2    O18   S    
O5    Zn1   S    
C38   N4    S    
C40   N1    A    
C34   S4    S    
C2    C3    A    
O8    Zn2   S    
C34   N4    S    
C11   C13   A    
C33   N3    S    
C2    C42   A    
C1    C30   S    
S4    O23   D    
C12   O3    A    
S3    O21   S    
S6    O29   D    
C11   H26   S    
O3    Zn1   S    
C40   C44   A    
C29   H14   S    
C10   O12   S    
S1    O14   D    
S2    O16   D    
S3    O19   D    
C1    O2    A    
C14   C15   A    
C38   S6    S    
C36   N4    S    
O6    Zn2   S    
C39   O8    A    
C21   H3    S    
C4    C9    A    
C13   C14   A    
S5    O26   D    
C3    H15   S    
