data_mof_unit_2163.cif
_audit_creation_date              2012-12-10T20:27:52-0500
_audit_creation_method            fapswitch 2.2
_symmetry_space_group_name_H-M    P1
_symmetry_Int_Tables_number       1
_space_group_crystal_system       triclinic
_cell_length_a                    12.871123
_cell_length_b                    10.694471
_cell_length_c                    9.8686
_cell_angle_alpha                 89.297293
_cell_angle_beta                  97.003462
_cell_angle_gamma                 90.364872
_cell_volume                      1348.15827682

loop_
_atom_site_label
_atom_site_type_symbol
_atom_type_description
_atom_site_fract_x
_atom_site_fract_y
_atom_site_fract_z
_atom_type_partial_charge
C1    C     C_R   0.503559 0.259760 0.500993 0.899558
C2    C     C_R   0.028560 0.483872 0.562371 0.183066
C3    C     C_R   0.971548 0.526560 0.439258 0.187082
C4    C     C_R   0.864395 0.535532 0.430765 -0.272587
C5    C     C_R   0.870235 0.461827 0.666160 -0.210400
C6    C     C_R   0.978030 0.453051 0.675876 -0.206746
C7    C     C_R   0.534401 0.061632 0.625893 0.130702
C8    C     C_R   0.521680 0.128302 0.502954 -0.101732
C9    C     C_R   0.531264 0.066170 0.380385 -0.203189
C10   C     C_R   0.531819 0.936861 0.379550 -0.221312
C11   C     C_R   0.522867 0.871070 0.501288 -0.103509
C12   C     C_R   0.298220 0.500697 0.473444 0.905622
C13   C     C_R   0.534876 0.933882 0.624868 0.130705
C14   C     C_3   0.473855 0.922738 0.743753 -0.453948
C15   C     C_3   0.473066 0.064161 0.744890 -0.501273
C16   C     C_R   0.412409 0.464497 0.058190 0.164051
C17   C     C_R   0.582550 0.546567 0.084332 -0.129604
C18   C     C_R   0.582552 0.546556 0.940463 -0.144790
C19   C     C_R   0.412679 0.464133 0.915408 0.249710
C20   C     C_3   0.361782 0.338665 0.903712 -0.583043
C21   C     C_3   0.360704 0.339188 0.057549 -0.265799
C22   C     C_R   0.504099 0.739970 0.499841 0.878626
C23   C     C_R   0.701765 0.500967 0.526620 0.878086
C24   C     C_R   0.813821 0.500982 0.542816 -0.046391
C25   C     C_R   0.186205 0.505517 0.457935 -0.040615
C26   C     C_R   0.022467 0.558645 0.326378 -0.223799
C27   C     C_R   0.130297 0.548759 0.336076 -0.174656
C28   C     C_R   0.135396 0.472728 0.570176 -0.262288
H1    H     H_    0.820362 0.567893 0.336193 0.148343
H2    H     H_    0.520699 0.880666 0.834894 0.203677
H3    H     H_    0.393419 0.103740 0.717958 0.210955
H4    H     H_    0.519863 0.102887 0.837120 0.201381
H5    H     H_    0.649970 0.582446 0.148472 0.145726
H6    H     H_    0.649953 0.582225 0.896517 0.149272
H7    H     H_    0.283529 0.340952 0.842562 0.217481
H8    H     H_    0.415288 0.268090 0.871179 0.203227
H9    H     H_    0.411762 0.266477 0.112410 0.156690
H10   H     H_    0.831000 0.435100 0.753274 0.161534
H11   H     H_    0.979249 0.592056 0.231855 0.141402
H12   H     H_    0.021534 0.420961 0.770798 0.168237
H13   H     H_    0.170038 0.577259 0.250099 0.182432
H14   H     H_    0.178954 0.439470 0.664352 0.162025
H15   H     H_    0.530290 0.116060 0.284054 0.168732
H16   H     H_    0.530913 0.889646 0.282907 0.173288
H17   H     H_    0.394851 0.880839 0.716547 0.212719
N1    N     N_R   0.499290 0.499140 0.142710 -0.123022
N2    N     N_R   0.499290 0.499180 0.857070 -0.109630
O1    O     O_R   0.500010 0.316790 0.614690 -0.618117
O2    O     O_R   0.500000 0.316760 0.385350 -0.621577
O3    O     O_R   0.346360 0.499990 0.595720 -0.623896
O4    O     O_R   0.346350 0.499960 0.366370 -0.612982
O5    O     O_R   0.500000 0.683240 0.614650 -0.617827
O6    O     O_R   0.499990 0.683210 0.385310 -0.624557
O7    O     O_R   0.653650 0.500040 0.633630 -0.632110
O8    O     O_R   0.653640 0.500010 0.404280 -0.630235
Zn1   Zn    Zn3+2 0.500010 0.500020 0.653130 0.947329
Zn2   Zn    Zn3+2 0.499990 0.499980 0.346870 0.955189
C29   C     C_2   0.252361 0.343846 0.099965 0.981213
O9    O     O_2   0.229949 0.275321 0.192214 -0.628956
O10   O     O_R   0.177414 0.424893 0.033177 -0.841616
H18   H     H_    0.106801 0.416000 0.068029 0.332146

loop_
_geom_bond_atom_site_label_1
_geom_bond_atom_site_label_2
_ccdc_geom_bond_type
C12   O3    A    
C23   C24   S    
C1    O1    A    
C23   O8    A    
C16   C21   S    
O4    Zn2   S    
C22   O6    A    
C1    C8    S    
C11   C13   A    
C9    C10   A    
C27   H13   S    
C11   C22   S    
C4    H1    S    
C12   C25   S    
C21   C29   S    
C18   N2    A    
C7    C15   S    
C17   C18   A    
C21   H9    S    
C7    C8    A    
C5    H10   S    
C17   N1    A    
C25   C28   A    
C15   H3    S    
C18   H6    S    
C26   C27   A    
C2    C6    A    
C5    C24   A    
C17   H5    S    
C14   H2    S    
C16   C19   A    
C15   H4    S    
C28   H14   S    
C2    C3    A    
C14   H17   S    
O7    Zn1   S    
O8    Zn2   S    
N1    Zn2   S    
C5    C6    A    
C4    C24   A    
C6    H12   S    
C26   H11   S    
C9    H15   S    
C25   C27   A    
C10   C11   A    
C10   H16   S    
C3    C4    A    
C20   H8    S    
O5    Zn1   S    
C7    C13   A    
C12   O4    A    
O2    Zn2   S    
C20   C21   S    
C23   O7    A    
C22   O5    A    
C19   N2    A    
C16   N1    A    
O1    Zn1   S    
O6    Zn2   S    
C14   C15   S    
N2    Zn1   S    
C2    C28   A    
O10   H18   S    
C29   O9    D    
C13   C14   S    
C20   H7    S    
C29   O10   S    
C3    C26   A    
O3    Zn1   S    
C19   C20   S    
C8    C9    A    
C1    O2    A    
