data_mof_unit_695.cif
_audit_creation_date              2012-12-10T17:28:35-0500
_audit_creation_method            fapswitch 2.2
_symmetry_space_group_name_H-M    P1
_symmetry_Int_Tables_number       1
_space_group_crystal_system       triclinic
_cell_length_a                    10.659252
_cell_length_b                    12.053642
_cell_length_c                    12.919407
_cell_angle_alpha                 94.045347
_cell_angle_beta                  91.278788
_cell_angle_gamma                 85.428658
_cell_volume                      1650.28610748

loop_
_atom_site_label
_atom_site_type_symbol
_atom_type_description
_atom_site_fract_x
_atom_site_fract_y
_atom_site_fract_z
_atom_type_partial_charge
C1    C     C_R   0.492922 0.523345 0.700336 0.887150
C2    C     C_R   0.506634 0.476907 0.299487 0.883486
C3    C     C_R   0.514106 0.460484 0.187205 -0.192805
C4    C     C_R   0.483725 0.541284 0.812197 -0.187426
C5    C     C_R   0.536605 0.643831 0.971636 -0.250507
C6    C     C_R   0.459876 0.358758 0.027397 -0.245469
C7    C     C_R   0.520071 0.641119 0.864562 0.165201
C8    C     C_R   0.478968 0.360505 0.134324 0.167429
C9    C     C_R   0.447682 0.453050 0.867407 0.143010
C10   C     C_R   0.545802 0.550840 0.132263 0.136916
C11   C     C_R   0.474645 0.453516 0.973588 0.038195
C12   C     C_R   0.520345 0.549571 0.025856 0.035942
C13   C     C_R   0.371197 0.959213 0.413386 -0.324711
C14   C     C_R   0.631741 0.040212 0.582985 -0.304601
C15   C     C_R   0.382294 0.842814 0.420261 0.323973
C16   C     C_R   0.616280 0.157209 0.581458 0.317209
C17   C     C_R   0.559592 0.856589 0.533768 -0.083608
C18   C     C_R   0.443073 0.143142 0.463202 -0.081788
C19   C     C_R   0.549228 0.973892 0.528367 0.043609
C20   C     C_R   0.453804 0.025732 0.467891 0.052532
C21   C     C_R   0.739131 0.499347 0.500073 0.872460
C22   C     C_R   0.260872 0.500714 0.499865 0.878205
C23   C     C_R   0.874374 0.400934 0.324973 -0.171072
C24   C     C_R   0.125294 0.602160 0.673581 -0.172947
C25   C     C_R   0.941092 0.358411 0.237557 -0.168896
C26   C     C_R   0.058313 0.646599 0.760224 -0.172935
C27   C     C_R   0.070541 0.364371 0.235310 -0.129491
C28   C     C_R   0.928994 0.640139 0.762755 -0.127187
C29   C     C_R   0.133813 0.411212 0.321097 -0.156792
C30   C     C_R   0.865971 0.591391 0.677787 -0.156302
C31   C     C_R   0.067451 0.454034 0.411169 0.060154
C32   C     C_R   0.932444 0.547417 0.588121 0.061816
C33   C     C_R   0.936852 0.450312 0.412566 0.082478
C34   C     C_R   0.063016 0.551259 0.586646 0.080949
C35   C     C_R   0.128276 0.502671 0.498958 -0.191723
C36   C     C_R   0.871709 0.497840 0.500721 -0.195265
H1    H     H_    0.877632 0.672291 0.831048 0.134315
H2    H     H_    0.121852 0.333312 0.166631 0.133908
H3    H     H_    0.297217 0.997686 0.365680 0.147698
H4    H     H_    0.707459 0.000720 0.628043 0.153678
H5    H     H_    0.773560 0.396125 0.322117 0.143842
H6    H     H_    0.226082 0.607093 0.676444 0.145611
H7    H     H_    0.891851 0.322112 0.170881 0.138160
H8    H     H_    0.107342 0.684400 0.826279 0.136798
H9    H     H_    0.234483 0.414767 0.315377 0.143806
H10   H     H_    0.765361 0.587606 0.683737 0.144997
H11   H     H_    0.562667 0.719948 0.012207 0.167309
H12   H     H_    0.434293 0.282736 0.986267 0.164608
H13   H     H_    0.370803 0.182992 0.415050 0.150177
H14   H     H_    0.632729 0.816742 0.581113 0.148968
N1    N     N_R   0.523130 0.207800 0.519340 -0.123416
N2    N     N_R   0.476870 0.792200 0.480660 -0.116648
O1    O     O_R   0.506170 0.421700 0.658830 -0.607847
O2    O     O_R   0.493830 0.578300 0.341170 -0.616273
O3    O     O_R   0.491330 0.609310 0.646410 -0.628871
O4    O     O_R   0.508670 0.390690 0.353590 -0.626056
O5    O     O_R   0.690650 0.406190 0.506220 -0.656093
O6    O     O_R   0.309350 0.593810 0.493780 -0.636456
O7    O     O_R   0.675800 0.593810 0.493800 -0.605026
O8    O     O_R   0.324200 0.406190 0.506200 -0.605934
Zn1   Zn    Zn3+2 0.509910 0.374730 0.508290 0.935169
Zn2   Zn    Zn3+2 0.490090 0.625270 0.491710 0.935269
N3    N     N_2   0.602538 0.642517 0.185716 -0.277848
H15   H     H_    0.554012 0.719521 0.180967 0.217571
C37   C     C_3   0.737275 0.642308 0.174845 -0.769749
H16   H     H_    0.760934 0.659186 0.094485 0.225859
H17   H     H_    0.784011 0.560576 0.193560 0.250926
H18   H     H_    0.773749 0.707936 0.229435 0.240955
N4    N     N_2   0.381243 0.366619 0.814925 -0.276520
H19   H     H_    0.424240 0.287283 0.816919 0.223499
C38   C     C_3   0.247585 0.373133 0.833936 -0.779933
H20   H     H_    0.229739 0.349096 0.913367 0.226316
H21   H     H_    0.201607 0.315521 0.776853 0.246462
H22   H     H_    0.205176 0.458973 0.825331 0.252378
N5    N     N_2   0.466603 0.262740 0.189145 -0.276989
H23   H     H_    0.549051 0.232680 0.224260 0.243616
C39   C     C_3   0.391001 0.175835 0.145391 -0.831619
H24   H     H_    0.371603 0.119813 0.206749 0.238563
H25   H     H_    0.442559 0.125366 0.082271 0.232445
H26   H     H_    0.299633 0.212250 0.115377 0.242025
N6    N     N_2   0.535139 0.738084 0.809202 -0.277230
H27   H     H_    0.453745 0.768579 0.772813 0.245069
C40   C     C_3   0.610557 0.824865 0.853557 -0.830006
H28   H     H_    0.632961 0.879530 0.791922 0.241900
H29   H     H_    0.700397 0.788258 0.886176 0.240984
H30   H     H_    0.557430 0.876795 0.914898 0.232414
C41   C     C_3   0.709047 0.221217 0.648108 -0.364151
C42   C     C_3   0.711878 0.192111 0.761780 -0.933601
H31   H     H_    0.763402 0.109612 0.770971 0.254997
H32   H     H_    0.761383 0.255395 0.810246 0.257387
H33   H     H_    0.615173 0.190782 0.791076 0.260399
H34   H     H_    0.804825 0.202686 0.615855 0.190702
H35   H     H_    0.688549 0.310997 0.649739 0.267997
C43   C     C_3   0.285421 0.779723 0.358407 -0.386582
C44   C     C_3   0.156361 0.797054 0.409091 -0.847306
H36   H     H_    0.090090 0.742451 0.367039 0.249130
H37   H     H_    0.163039 0.776139 0.491471 0.279961
H38   H     H_    0.117753 0.885100 0.405941 0.245654
H39   H     H_    0.277039 0.809879 0.278955 0.167429
H40   H     H_    0.311689 0.690544 0.345980 0.258010

loop_
_geom_bond_atom_site_label_1
_geom_bond_atom_site_label_2
_ccdc_geom_bond_type
O6    Zn2   S    
C41   C42   S    
N3    C37   S    
C27   C29   A    
C24   H6    S    
C19   C20   A    
N1    Zn1   S    
C16   N1    A    
C25   H7    S    
C15   C43   S    
N6    H27   S    
C44   H38   S    
C26   H8    S    
C21   C36   S    
C39   H24   S    
C22   C35   S    
C5    H11   S    
C6    H12   S    
C32   C36   A    
C24   C26   A    
C21   O7    A    
C22   O8    A    
C27   H2    S    
O3    Zn2   S    
C33   C36   A    
C34   C35   A    
N4    C38   S    
C1    O1    A    
O1    Zn1   S    
C10   N3    S    
C44   H36   S    
C28   H1    S    
C37   H17   S    
C16   C41   S    
C31   C33   A    
C18   C20   A    
C41   H34   S    
C43   C44   S    
C4    C7    A    
C17   N2    A    
N6    C40   S    
C18   N1    A    
C39   H25   S    
C5    C12   A    
C3    C8    A    
C2    O2    A    
C6    C11   A    
C5    C7    A    
C6    C8    A    
O2    Zn2   S    
C23   C33   A    
C8    N5    S    
C24   C34   A    
C29   H9    S    
O8    Zn1   S    
C32   C34   A    
N5    H23   S    
C21   O5    A    
N5    C39   S    
C40   H28   S    
C42   H33   S    
C43   H40   S    
C37   H18   S    
C15   N2    A    
C9    C11   A    
C10   C12   A    
C40   H29   S    
C42   H32   S    
C13   C15   A    
C14   C16   A    
C38   H21   S    
C39   H26   S    
O7    Zn2   S    
C13   C20   A    
C7    N6    S    
C14   C19   A    
C30   H10   S    
C9    N4    S    
C17   H14   S    
C22   O6    A    
C38   H22   S    
C11   C12   A    
C44   H37   S    
O5    Zn1   S    
C25   C27   A    
C26   C28   A    
C23   H5    S    
C1    C4    S    
C28   C30   A    
C2    C3    S    
C1    O3    A    
C38   H20   S    
C29   C31   A    
C3    C10   A    
N2    Zn2   S    
C30   C32   A    
C43   H39   S    
C41   H35   S    
C17   C19   A    
C31   C35   A    
C23   C25   A    
N4    H19   S    
C13   H3    S    
C14   H4    S    
N3    H15   S    
C40   H30   S    
C42   H31   S    
C37   H16   S    
O4    Zn1   S    
C2    O4    A    
C4    C9    A    
C18   H13   S    
