data_mof_unit_4159.cif
_audit_creation_date              2012-12-10T17:24:46-0500
_audit_creation_method            fapswitch 2.2
_symmetry_space_group_name_H-M    P1
_symmetry_Int_Tables_number       1
_space_group_crystal_system       triclinic
_cell_length_a                    18.392679
_cell_length_b                    18.7161
_cell_length_c                    18.955631
_cell_angle_alpha                 109.223608
_cell_angle_beta                  109.297996
_cell_angle_gamma                 108.318151
_cell_volume                      5118.05213313

loop_
_atom_site_label
_atom_site_type_symbol
_atom_type_description
_atom_site_fract_x
_atom_site_fract_y
_atom_site_fract_z
_atom_type_partial_charge
C1    C     C_R   0.609746 0.618426 0.489595 0.899228
C2    C     C_R   0.668016 0.764070 0.501377 0.006469
C3    C     C_2   0.326923 0.853213 0.320323 0.932619
C4    C     C_2   0.805038 0.784728 0.219630 0.969164
C5    C     C_2   0.978870 0.119763 0.956712 0.937595
C6    C     C_2   0.075912 0.498713 0.690825 0.955103
C7    C     C_2   0.949350 0.341899 0.521581 1.032942
C8    C     C_2   0.864271 0.181588 0.520868 0.953919
C9    C     C_R   0.809121 0.816605 0.502619 -0.137893
C10   C     C_R   0.383363 0.504468 0.381037 0.860758
C11   C     C_R   0.797802 0.730891 0.471044 -0.072389
C12   C     C_R   0.713684 0.663966 0.436093 0.022965
C13   C     C_R   0.660559 0.681468 0.471168 -0.171900
C14   C     C_R   0.864179 0.707528 0.468474 -0.178253
C15   C     C_R   0.840029 0.622566 0.411872 0.054041
C16   C     C_R   0.750925 0.561372 0.358523 0.064851
C17   C     C_R   0.687023 0.582025 0.369940 -0.084195
C18   C     C_3   0.204805 0.423642 0.194795 0.051587
C19   C     C_R   0.787915 0.657183 0.746112 -0.038239
C20   C     C_R   0.837152 0.735232 0.821933 -0.222745
C21   C     C_R   0.877181 0.738966 0.900325 -0.048392
C22   C     C_R   0.385216 0.381019 0.505217 0.896563
C23   C     C_R   0.872684 0.662426 0.901700 0.042224
C24   C     C_R   0.819396 0.581059 0.824234 0.066823
C25   C     C_R   0.766577 0.578936 0.749656 -0.018594
C26   C     C_R   0.816226 0.501647 0.817419 -0.159117
C27   C     C_R   0.751607 0.421594 0.743364 0.045085
C28   C     C_R   0.685732 0.420147 0.678083 0.081114
C29   C     C_3   0.220475 0.455674 0.286924 -0.264352
C30   C     C_R   0.693483 0.499466 0.682137 -0.152561
C31   C     C_R   0.748582 0.342126 0.734744 -0.197361
C32   C     C_R   0.674116 0.263559 0.672659 0.028095
C33   C     C_R   0.606790 0.262708 0.610364 -0.180460
C34   C     C_R   0.622427 0.499986 0.619567 0.907663
C35   C     C_R   0.613339 0.339088 0.611429 -0.187880
C36   C     C_R   0.410106 0.357863 0.657305 0.064542
C37   C     C_R   0.413209 0.355068 0.731305 0.116035
C38   C     C_R   0.335696 0.316020 0.732215 0.044214
C39   C     C_R   0.255110 0.273652 0.656175 -0.118279
C40   C     C_3   0.318487 0.508633 0.317720 -0.091923
C41   C     C_R   0.255220 0.255394 0.576871 -0.069997
C42   C     C_R   0.329137 0.309659 0.579074 0.033639
C43   C     C_R   0.182407 0.187954 0.496019 -0.200668
C44   C     C_R   0.170121 0.192639 0.418268 -0.020472
C45   C     C_R   0.235602 0.265677 0.428343 0.080835
C46   C     C_3   0.306389 0.586790 0.318789 -0.187693
C47   C     C_R   0.316810 0.316603 0.504422 -0.135304
C48   C     C_R   0.096481 0.133446 0.331942 -0.037463
C49   C     C_R   0.085938 0.157036 0.266753 0.090973
C50   C     C_R   0.146049 0.234780 0.283741 -0.128160
C51   C     C_R   0.600766 0.777044 0.514096 -0.118595
C52   C     C_R   0.219962 0.287610 0.362078 -0.185464
C53   C     C_R   0.002422 0.619159 0.123536 0.950824
C54   C     C_R   0.124465 0.498872 0.123616 0.918677
C55   C     C_R   0.008232 0.380023 0.886575 0.841087
C56   C     C_R   0.882794 0.501498 0.884360 0.893016
C57   C     C_R   0.000965 0.879897 0.381202 0.897682
C58   C     C_3   0.207220 0.533119 0.285527 -0.085552
C59   C     C_R   0.878977 0.880909 0.501432 0.850095
C60   C     C_R   0.994551 0.117804 0.617514 0.938453
C61   C     C_R   0.119489 0.118465 0.497180 0.882878
C62   C     C_R   0.605168 0.857154 0.542686 0.167863
C63   C     C_R   0.166812 0.765227 0.269523 0.046384
C64   C     C_R   0.243061 0.845588 0.317921 -0.073073
C65   C     C_R   0.239405 0.918151 0.364692 0.007343
C66   C     C_R   0.161482 0.910022 0.365757 0.156014
C67   C     C_R   0.082127 0.829105 0.312881 0.038851
C68   C     C_R   0.083102 0.758605 0.256662 0.035761
C69   C     C_R   0.002133 0.816100 0.313810 -0.105107
C70   C     C_3   0.190733 0.499784 0.192392 -0.092656
C71   C     C_R   0.921360 0.740003 0.251363 -0.040390
C72   C     C_R   0.919812 0.671297 0.189987 0.002012
C73   C     C_R   0.673291 0.925297 0.552114 0.037368
C74   C     C_R   0.001446 0.683041 0.191345 -0.140171
C75   C     C_R   0.839802 0.731323 0.247106 -0.128471
C76   C     C_R   0.774447 0.649435 0.218867 0.020944
C77   C     C_R   0.770106 0.580062 0.157322 0.123352
C78   C     C_R   0.835493 0.594002 0.132825 0.057519
C79   C     C_R   0.052567 0.403992 0.755712 -0.188366
C80   C     C_R   0.035461 0.411092 0.681332 -0.077536
C81   C     C_R   0.976155 0.336216 0.601508 -0.105892
C82   C     C_3   0.289385 0.552792 0.225899 0.061303
C83   C     C_R   0.944660 0.255154 0.598510 -0.036993
C84   C     C_R   0.740384 0.914003 0.537104 0.021293
C85   C     C_R   0.978217 0.249752 0.675031 0.064284
C86   C     C_R   0.016273 0.323674 0.752803 0.068773
C87   C     C_R   0.979915 0.175726 0.678640 -0.158605
C88   C     C_R   0.982670 0.164548 0.749116 0.051479
C89   C     C_R   0.999822 0.233623 0.823005 0.067108
C90   C     C_R   0.014944 0.314105 0.823828 -0.180484
C91   C     C_R   0.964456 0.083504 0.744776 -0.185786
C92   C     C_R   0.961609 0.069611 0.811183 -0.207924
C93   C     C_R   0.981867 0.137048 0.886323 0.011419
C94   C     C_3   0.301628 0.475816 0.225816 0.094824
C95   C     C_R   0.740506 0.832857 0.513618 0.084970
C96   C     C_R   0.005917 0.220021 0.894344 0.077229
C97   C     C_2   0.150805 0.558067 0.319618 0.907183
C98   C     C_2   0.956544 0.762261 0.537553 1.053700
C99   C     C_2   0.593011 0.524945 0.303630 1.020118
C100  C     C_2   0.777939 0.661923 0.667074 0.939736
C101  C     C_2   0.926029 0.824868 0.978741 0.943061
C102  C     C_2   0.364405 0.678518 0.388520 0.908083
C103  C     C_2   0.664169 0.183908 0.677637 0.907805
C104  C     C_2   0.175260 0.269162 0.662175 0.922284
C105  C     C_2   0.029309 0.046043 0.301353 0.920646
H1    H     H_    0.548131 0.202965 0.561158 0.181835
H2    H     H_    0.191773 0.416092 0.312691 0.157662
H3    H     H_    0.541761 0.724321 0.498762 0.184809
H4    H     H_    0.041053 0.569866 0.295472 0.342527
H5    H     H_    0.729270 0.052750 0.633084 0.207768
H6    H     H_    0.671504 0.022858 0.527995 0.253364
H7    H     H_    0.774284 0.993728 0.491198 0.249104
H8    H     H_    0.828376 0.039391 0.598677 0.177123
H9    H     H_    0.006493 0.755286 0.456630 0.305188
H10   H     H_    0.898113 0.547943 0.423627 0.229705
H11   H     H_    0.899842 0.578215 0.348546 0.178446
H12   H     H_    0.849205 0.794895 0.819960 0.227465
H13   H     H_    0.589508 0.417347 0.307892 0.316276
H14   H     H_    0.802697 0.741762 0.618368 0.355642
H15   H     H_    0.024694 0.904682 0.099924 0.366456
H16   H     H_    0.983947 0.702827 0.006568 0.270308
H17   H     H_    0.897475 0.697372 0.023762 0.213866
H18   H     H_    0.339342 0.654261 0.476487 0.354096
H19   H     H_    0.711584 0.130717 0.746112 0.343916
H20   H     H_    0.535840 0.391699 0.690047 0.196759
H21   H     H_    0.512061 0.473169 0.706734 0.224913
H22   H     H_    0.495190 0.447332 0.855048 0.208580
H23   H     H_    0.802526 0.339573 0.777119 0.201342
H24   H     H_    0.503156 0.355346 0.828425 0.209372
H25   H     H_    0.305488 0.263446 0.803556 0.235643
H26   H     H_    0.315355 0.364490 0.832895 0.229729
H27   H     H_    0.130950 0.297397 0.566642 0.334434
H28   H     H_    0.901675 0.969080 0.257662 0.363390
H29   H     H_    0.955446 0.091774 0.182676 0.231076
H30   H     H_    0.013958 0.043448 0.155749 0.228051
H31   H     H_    0.395862 0.629146 0.225673 0.237860
H32   H     H_    0.307450 0.563722 0.128991 0.191311
H33   H     H_    0.658221 0.488307 0.047185 0.206561
H34   H     H_    0.557276 0.332344 0.562012 0.178337
H35   H     H_    0.708740 0.450547 0.106362 0.179436
H36   H     H_    0.219847 0.694959 0.301946 0.177143
H37   H     H_    0.208348 0.690702 0.209065 0.267775
H38   H     H_    0.390181 0.828577 0.253997 0.364842
H39   H     H_    0.339255 0.014258 0.373810 0.210367
H40   H     H_    0.363018 0.002940 0.463204 0.248053
H41   H     H_    0.209887 0.007813 0.482315 0.215032
H42   H     H_    0.188175 0.033875 0.403467 0.209269
H43   H     H_    0.788566 0.835554 0.140436 0.337755
H44   H     H_    0.718147 0.688371 0.289250 0.220234
H45   H     H_    0.136645 0.253195 0.234459 0.145092
H46   H     H_    0.654891 0.642902 0.182550 0.227007
H47   H     H_    0.798740 0.478966 0.033405 0.222431
H48   H     H_    0.840793 0.567551 0.020062 0.210902
H49   H     H_    0.955727 0.148299 0.056749 0.356690
H50   H     H_    0.326015 0.430414 0.127832 0.187545
H51   H     H_    0.343149 0.387354 0.192351 0.225149
H52   H     H_    0.175805 0.620101 0.763800 0.362404
H53   H     H_    0.985594 0.370263 0.440707 0.354710
H54   H     H_    0.802343 0.104251 0.393450 0.343921
H55   H     H_    0.006602 0.301192 0.997352 0.273064
H56   H     H_    0.264925 0.346763 0.369975 0.146557
H57   H     H_    0.099975 0.344459 0.987250 0.172621
H58   H     H_    0.188367 0.302068 0.152506 0.190022
H59   H     H_    0.096694 0.309933 0.138601 0.229686
H60   H     H_    0.750787 0.446613 0.323067 0.200656
H61   H     H_    0.751611 0.485463 0.254157 0.202707
H62   H     H_    0.509187 0.891243 0.522462 0.288875
H63   H     H_    0.568140 0.914676 0.624343 0.202501
H64   H     H_    0.097959 0.462068 0.815507 0.216776
H65   H     H_    0.947655 0.028258 0.688024 0.168461
H66   H     H_    0.943753 0.005579 0.803743 0.201022
N1    N     N_3   0.672606 0.005986 0.575524 -0.418621
N2    N     N_3   0.691388 0.499150 0.109398 -0.422935
N3    N     N_3   0.177199 0.689839 0.245911 -0.408785
N4    N     N_3   0.315024 0.001819 0.413572 -0.468097
N5    N     N_3   0.164504 0.986415 0.419480 -0.409693
N6    N     N_3   0.699064 0.638418 0.230292 -0.402026
N7    N     N_3   0.804520 0.539464 0.044187 -0.455297
N8    N     N_3   0.352855 0.445234 0.191912 -0.367827
N9    N     N_3   0.050984 0.290082 0.978638 -0.432756
N10   N     N_3   0.153392 0.332864 0.133621 -0.447014
N11   N     N_3   0.725089 0.477934 0.293708 -0.453814
N12   N     N_3   0.804934 0.984580 0.542203 -0.441216
N13   N     N_3   0.538342 0.868045 0.560456 -0.353354
N14   N     N_3   0.906542 0.598656 0.409781 -0.443755
N15   N     N_3   0.916678 0.666793 0.981941 -0.471521
N16   N     N_3   0.489979 0.409474 0.663195 -0.468311
N17   N     N_3   0.495882 0.399315 0.807853 -0.467443
N18   N     N_3   0.340917 0.324336 0.812009 -0.455477
N19   N     N_3   0.014056 0.102237 0.181243 -0.443290
N20   N     N_3   0.328137 0.604931 0.192553 -0.390289
O1    O     O_R   0.592010 0.539900 0.448660 -0.613932
O2    O     O_R   0.948620 0.908400 0.356980 -0.608166
O3    O     O_R   0.960510 0.908410 0.552140 -0.612418
O4    O     O_R   0.591210 0.643320 0.551330 -0.610784
O5    O     O_R   0.856270 0.908390 0.447890 -0.584326
O6    O     O_R   0.051380 0.091620 0.643040 -0.588907
O7    O     O_R   0.947140 0.091600 0.538800 -0.616603
O8    O     O_R   0.143730 0.091640 0.552130 -0.627211
O9    O     O_R   0.039490 0.091610 0.447890 -0.568230
O10   O     O_R   0.408080 0.448290 0.356360 -0.608513
O11   O     O_R   0.407280 0.551710 0.459030 -0.641232
O12   O     O_R   0.054870 0.643310 0.094700 -0.615637
O13   O     O_R   0.408790 0.356680 0.448670 -0.631688
O14   O     O_R   0.407990 0.460100 0.551340 -0.605309
O15   O     O_R   0.592720 0.448290 0.540970 -0.600221
O16   O     O_R   0.591920 0.551710 0.643640 -0.630280
O17   O     O_R   0.951440 0.539900 0.094740 -0.620758
O18   O     O_2   0.172195 0.582575 0.395036 -0.603523
O19   O     O_R   0.072987 0.550935 0.264857 -0.786200
O20   O     O_2   0.972362 0.793209 0.611890 -0.553927
O21   O     O_R   0.026230 0.778347 0.519807 -0.727869
O22   O     O_2   0.549610 0.556590 0.275813 -0.603338
O23   O     O_R   0.044440 0.448270 0.096110 -0.597651
O24   O     O_R   0.552471 0.436159 0.273311 -0.747857
O25   O     O_2   0.765950 0.601388 0.605528 -0.613127
O26   O     O_R   0.792420 0.739795 0.666931 -0.800561
O27   O     O_2   0.903658 0.879926 0.978760 -0.589668
O28   O     O_R   0.998029 0.844308 0.051729 -0.806605
O29   O     O_2   0.403930 0.732172 0.373441 -0.575379
O30   O     O_R   0.373641 0.703788 0.470330 -0.743665
O31   O     O_2   0.597918 0.115577 0.624441 -0.622540
O32   O     O_R   0.728730 0.187576 0.745747 -0.812198
O33   O     O_2   0.165934 0.263030 0.721007 -0.618782
O34   O     O_R   0.147870 0.551680 0.096080 -0.629650
O35   O     O_R   0.112397 0.277732 0.604491 -0.786081
O36   O     O_2   0.044767 0.985730 0.281908 -0.644113
O37   O     O_R   0.944305 0.031703 0.283500 -0.764537
O38   O     O_2   0.393703 0.889609 0.388724 -0.600484
O39   O     O_R   0.329673 0.819850 0.244095 -0.794566
O40   O     O_2   0.761218 0.809332 0.247537 -0.635610
O41   O     O_R   0.820454 0.804270 0.159125 -0.787993
O42   O     O_2   0.993081 0.062420 0.964495 -0.588166
O43   O     O_R   0.956712 0.166833 0.012371 -0.820379
O44   O     O_2   0.039892 0.515568 0.636449 -0.583631
O45   O     O_R   0.952810 0.356650 0.912880 -0.611317
O46   O     O_R   0.155032 0.563189 0.763982 -0.799648
O47   O     O_2   0.873436 0.323624 0.478554 -0.600441
O48   O     O_R   0.011446 0.368753 0.496111 -0.757465
O49   O     O_2   0.800538 0.144879 0.526868 -0.680988
O50   O     O_R   0.860770 0.155229 0.441128 -0.741767
O51   O     O_R   0.056240 0.460060 0.912840 -0.634872
O52   O     O_R   0.859800 0.448280 0.911500 -0.642228
O53   O     O_R   0.963240 0.551690 0.911470 -0.601122
O54   O     O_R   0.052860 0.908430 0.461230 -0.608650
Zn1   Zn    Zn3+2 0.500540 0.430950 0.431450 1.017483
Zn2   Zn    Zn3+2 0.499460 0.569050 0.568550 1.011630
Zn3   Zn    Zn3+2 0.934770 0.430930 0.003810 0.989964
Zn4   Zn    Zn3+2 0.072900 0.569020 0.003770 1.010307
Zn5   Zn    Zn3+2 0.069600 0.000030 0.569620 1.051499
Zn6   Zn    Zn3+2 0.930400 0.000000 0.430410 1.074717

loop_
_geom_bond_atom_site_label_1
_geom_bond_atom_site_label_2
_ccdc_geom_bond_type
C18   C70   S    
C71   C75   A    
C87   C88   A    
C82   C94   S    
C55   O51   A    
O34   Zn4   S    
C82   N20   S    
H58   N10   S    
C8    C83   S    
H21   N16   S    
C41   C42   A    
O45   Zn3   S    
C36   C42   A    
C19   C20   A    
H61   N11   S    
H28   O37   S    
C58   C97   S    
C55   O45   A    
O54   Zn5   S    
C66   N5    S    
C3    O38   D    
C99   O24   S    
C39   C104  S    
H37   N3    S    
C105  O36   D    
C77   C78   A    
C34   O15   A    
C40   C46   S    
O11   Zn2   S    
C46   C102  S    
C26   C27   A    
C53   O12   A    
C97   O18   D    
H60   N11   S    
C4    O41   S    
C36   C37   A    
C1    O4    A    
C24   C26   A    
C55   C90   S    
C103  O31   D    
C38   C39   A    
H10   N14   S    
H51   N8    S    
C16   N11   S    
H17   N15   S    
C37   N17   S    
C92   H66   S    
C68   C74   A    
C15   C16   A    
C53   O17   A    
O1    Zn1   S    
C61   O9    A    
C10   C40   S    
H6    N1    S    
C105  O37   S    
H9    O21   S    
C69   C71   A    
C2    C13   A    
C101  O28   S    
H29   N19   S    
H55   N9    S    
C4    C75   S    
C72   C78   A    
H59   N10   S    
C103  O32   S    
H16   N15   S    
C46   C82   S    
C101  O27   D    
C48   C105  S    
C28   C35   A    
H35   N2    S    
H63   N13   S    
H41   N5    S    
C12   C17   A    
C50   C52   A    
C23   C24   A    
H19   O32   S    
C62   C73   A    
H13   O24   S    
H43   O41   S    
C9    C95   A    
C73   C84   A    
H57   N9    S    
C83   C85   A    
H25   N18   S    
C60   O7    A    
H53   O48   S    
C42   C47   A    
C21   C101  S    
C88   C89   A    
C8    O49   D    
C22   C47   S    
C56   O53   A    
H32   N20   S    
C65   N4    S    
H47   N7    S    
C41   C43   A    
C61   O8    A    
C51   C62   A    
C31   H23   S    
C70   C82   S    
O7    Zn6   S    
C3    O39   S    
C20   H12   S    
C81   C83   A    
C60   C87   S    
H50   N8    S    
C14   C98   S    
H7    N12   S    
C85   C87   A    
C59   O3    A    
C6    O46   S    
H39   N4    S    
O53   Zn4   S    
C30   C34   S    
H31   N20   S    
C27   C31   A    
C67   C68   A    
C4    O40   D    
H40   N4    S    
C52   H56   S    
C24   C25   A    
C72   C74   A    
C76   N6    S    
C97   O19   S    
C91   C92   A    
H42   N5    S    
C16   C17   A    
H26   N18   S    
C49   N19   S    
C99   O22   D    
C45   C52   A    
C85   C86   A    
O4    Zn2   S    
C96   N9    S    
C63   C64   A    
C22   O14   A    
C57   O2    A    
C9    C59   S    
C84   C95   A    
O23   Zn3   S    
C75   C76   A    
O17   Zn3   S    
H30   N19   S    
C37   C38   A    
C54   C70   S    
H27   O35   S    
C15   N14   S    
C50   H45   S    
O8    Zn5   S    
C6    C80   S    
H62   N13   S    
C10   O11   A    
C7    O47   D    
C19   C100  S    
C38   N18   S    
H49   O43   S    
H33   N2    S    
H44   N6    S    
H22   N17   S    
C32   C103  S    
C18   C29   S    
O12   Zn4   S    
C76   C77   A    
C73   N1    S    
C17   C99   S    
C6    O44   D    
O3    Zn5   S    
C26   C56   S    
C60   O6    A    
H52   O46   S    
C48   C49   A    
C7    C81   S    
C56   O52   A    
C7    O48   S    
C100  O26   S    
C51   H3    S    
C93   C96   A    
C84   N12   S    
C5    O43   S    
C9    C11   A    
C43   C44   A    
C86   C90   A    
H36   N3    S    
C18   C94   S    
C49   C50   A    
C35   H34   S    
C1    C13   S    
H4    O19   S    
C44   C45   A    
C43   C61   S    
C63   N3    S    
C98   O20   D    
C67   C69   A    
C25   C30   A    
C54   O23   A    
H48   N7    S    
C100  O25   D    
C77   N2    S    
O10   Zn1   S    
C91   H65   S    
O15   Zn1   S    
C20   C21   A    
C78   N7    S    
O51   Zn4   S    
C31   C32   A    
C58   C70   S    
C33   H1    S    
C29   C58   S    
C40   C94   S    
C80   C81   A    
O14   Zn2   S    
O16   Zn2   S    
C23   N15   S    
C5    C93   S    
C11   C12   A    
C104  O35   S    
C102  O29   D    
C34   O16   A    
H11   N14   S    
C63   C68   A    
C18   N10   S    
C22   O13   A    
H20   N16   S    
C36   N16   S    
C57   C69   S    
C64   C65   A    
H18   O30   S    
C89   C96   A    
C21   C23   A    
C71   C72   A    
C65   C66   A    
C32   C33   A    
C54   O34   A    
C79   H64   S    
H8    N12   S    
C88   C91   A    
C98   O21   S    
C8    O50   S    
H15   O28   S    
O5    Zn6   S    
C28   C30   A    
C92   C93   A    
C33   C35   A    
C104  O33   D    
C66   C67   A    
C59   O5    A    
C94   N8    S    
O2    Zn6   S    
H38   O39   S    
C3    C64   S    
C19   C25   A    
C10   O10   A    
O13   Zn1   S    
C29   C40   S    
H46   N6    S    
C2    C51   A    
C62   N13   S    
C79   C80   A    
C1    O1    A    
C45   C47   A    
C12   C13   A    
C39   C41   A    
C57   O54   A    
O52   Zn3   S    
H24   N17   S    
C27   C28   A    
H14   O26   S    
C14   C15   A    
C29   H2    S    
C5    O42   D    
O9    Zn6   S    
C2    C95   A    
C89   C90   A    
C11   C14   A    
H54   O50   S    
C79   C86   A    
C46   C58   S    
C44   C48   A    
C102  O30   S    
O6    Zn5   S    
C53   C74   S    
H5    N1    S    
