data_mof_unit_3820.cif
_audit_creation_date              2012-12-10T18:46:17-0500
_audit_creation_method            fapswitch 2.2
_symmetry_space_group_name_H-M    P1
_symmetry_Int_Tables_number       1
_space_group_crystal_system       triclinic
_cell_length_a                    9.879088
_cell_length_b                    10.657144
_cell_length_c                    13.080185
_cell_angle_alpha                 90.977466
_cell_angle_beta                  69.905535
_cell_angle_gamma                 90.123038
_cell_volume                      1293.09225053

loop_
_atom_site_label
_atom_site_type_symbol
_atom_type_description
_atom_site_fract_x
_atom_site_fract_y
_atom_site_fract_z
_atom_type_partial_charge
C1    C     C_R   0.499583 0.739278 0.501146 0.898963
C2    C     C_R   0.431441 0.468501 0.984214 0.084275
C3    C     C_R   0.461928 0.436178 0.874281 0.070797
C4    C     C_R   0.544589 0.462339 0.027216 0.024505
C5    C     C_R   0.672610 0.393393 0.969576 0.100631
C6    C     C_R   0.689449 0.340715 0.866538 -0.033693
C7    C     C_R   0.585491 0.363505 0.819515 -0.227150
C8    C     C_R   0.537103 0.525892 0.124022 -0.058045
C9    C     C_R   0.756879 0.424292 0.121739 -0.198328
C10   C     C_R   0.367345 0.477889 0.822134 -0.099109
C11   C     C_R   0.598331 0.932543 0.412153 -0.057544
C12   C     C_R   0.419874 0.492769 0.704169 0.866459
C13   C     C_R   0.599446 0.062393 0.412128 -0.048508
C14   C     C_R   0.500355 0.127886 0.500247 -0.129249
C15   C     C_R   0.402732 0.066941 0.589868 -0.059701
C16   C     C_R   0.402118 0.936904 0.590167 -0.050854
C17   C     C_R   0.499739 0.871726 0.501124 -0.128435
C18   C     C_R   0.957889 0.420608 0.432650 -0.132707
C19   C     C_R   0.101536 0.420301 0.432495 0.060691
C20   C     C_R   0.042029 0.579240 0.567493 -0.123422
C21   C     C_R   0.898404 0.579586 0.567603 0.055887
C22   C     C_R   0.500231 0.260564 0.499456 0.883792
C23   C     C_R   0.580314 0.502210 0.295580 0.887280
C24   C     C_R   0.780042 0.379120 0.016795 -0.180098
C25   C     C_R   0.631067 0.491342 0.177462 -0.091975
C26   C     C_R   0.227766 0.518207 0.884558 -0.157145
C27   C     C_R   0.186378 0.524124 0.997443 -0.139770
C28   C     C_R   0.287854 0.501681 0.047266 -0.155825
H1    H     H_    0.251777 0.507251 0.135148 0.144736
N1    N     N_R   0.142790 0.500030 0.500030 -0.100153
N2    N     N_R   0.857180 0.499940 0.500010 -0.102806
O1    O     O_R   0.385370 0.683250 0.500010 -0.611851
O2    O     O_R   0.614700 0.683220 0.500010 -0.608450
O3    O     O_R   0.328400 0.499990 0.653620 -0.610730
O4    O     O_R   0.557730 0.499960 0.653620 -0.616645
O5    O     O_R   0.385300 0.316780 0.499990 -0.603934
O6    O     O_R   0.614630 0.316750 0.499990 -0.625580
O7    O     O_R   0.442270 0.500040 0.346380 -0.608594
O8    O     O_R   0.671600 0.500010 0.346380 -0.613951
Zn1   Zn    Zn3+2 0.346870 0.500020 0.500000 0.978707
Zn2   Zn    Zn3+2 0.653130 0.499980 0.500000 0.964369
H2    H     H_    0.834417 0.402884 0.160705 0.173270
C29   C     C_1   0.701450 0.127698 0.321594 0.195414
N3    N     N_1   0.783681 0.178629 0.249291 -0.216993
C30   C     C_1   0.308393 0.137772 0.683035 0.189646
N4    N     N_1   0.233756 0.194214 0.757321 -0.185719
C31   C     C_1   0.304689 0.870386 0.682499 0.191719
N5    N     N_1   0.227207 0.817351 0.755929 -0.203623
H3    H     H_    0.926766 0.357462 0.378911 0.146437
C32   C     C_1   0.203759 0.334659 0.360019 0.219823
N6    N     N_1   0.285598 0.265623 0.301426 -0.194043
H4    H     H_    0.073147 0.642377 0.621246 0.145529
C33   C     C_1   0.796246 0.665399 0.639891 0.236893
N7    N     N_1   0.714455 0.734612 0.698300 -0.193281
C34   C     C_1   0.814192 0.266619 0.805024 0.163953
N8    N     N_1   0.913810 0.207313 0.755448 -0.175352
H5    H     H_    0.878708 0.327728 0.975501 0.164917
C35   C     C_1   0.447873 0.636998 0.163048 0.174325
N9    N     N_1   0.377389 0.725710 0.194339 -0.179046
H6    H     H_    0.151701 0.546630 0.846200 0.166178
H7    H     H_    0.077422 0.551345 0.046097 0.156023
H8    H     H_    0.600195 0.321059 0.740543 0.173758
C36   C     C_1   0.695200 0.861638 0.320002 0.196232
N10   N     N_1   0.772087 0.805140 0.246740 -0.192902

loop_
_geom_bond_atom_site_label_1
_geom_bond_atom_site_label_2
_ccdc_geom_bond_type
C2    C4    A    
C29   N3    T    
C7    H8    S    
C6    C7    A    
C22   O6    A    
C23   O7    A    
C22   O5    A    
C1    C17   S    
C31   N5    T    
O5    Zn1   S    
C6    C34   S    
C4    C8    A    
O2    Zn2   S    
C10   C26   A    
C34   N8    T    
O1    Zn1   S    
C32   N6    T    
C9    H2    S    
N1    Zn1   S    
C20   H4    S    
C3    C10   A    
C20   N1    A    
C33   N7    T    
C12   O4    A    
C21   C33   S    
C8    C25   A    
C11   C13   A    
C19   C32   S    
C14   C22   S    
C26   C27   A    
C5    C24   A    
C10   C12   S    
C23   O8    A    
C16   C31   S    
C28   H1    S    
O7    Zn1   S    
C2    C3    A    
C3    C7    A    
C23   C25   S    
O6    Zn2   S    
C5    C6    A    
O4    Zn2   S    
O3    Zn1   S    
C15   C16   A    
C15   C30   S    
C9    C25   A    
C36   N10   T    
C30   N4    T    
C13   C29   S    
C20   C21   A    
O8    Zn2   S    
C18   C19   A    
C24   H5    S    
C27   C28   A    
C11   C36   S    
C14   C15   A    
C4    C5    A    
C2    C28   A    
C18   N2    A    
N2    Zn2   S    
C12   O3    A    
C8    C35   S    
C35   N9    T    
C13   C14   A    
C19   N1    A    
C26   H6    S    
C9    C24   A    
C11   C17   A    
C1    O1    A    
C1    O2    A    
C18   H3    S    
C16   C17   A    
C21   N2    A    
C27   H7    S    
