data_mof_unit_4192.cif
_audit_creation_date              2012-12-10T20:40:55-0500
_audit_creation_method            fapswitch 2.2
_symmetry_space_group_name_H-M    P1
_symmetry_Int_Tables_number       1
_space_group_crystal_system       triclinic
_cell_length_a                    27.715077
_cell_length_b                    10.719865
_cell_length_c                    9.862402
_cell_angle_alpha                 90.248798
_cell_angle_beta                  89.938524
_cell_angle_gamma                 89.959304
_cell_volume                      2930.1081533

loop_
_atom_site_label
_atom_site_type_symbol
_atom_type_description
_atom_site_fract_x
_atom_site_fract_y
_atom_site_fract_z
_atom_type_partial_charge
C1    C     C_R   0.500390 0.260090 0.499127 0.917035
C2    C     C_R   0.276450 0.432356 0.577152 -0.212179
C3    C     C_R   0.253610 0.518322 0.491563 0.244139
C4    C     C_R   0.102104 0.522053 0.463309 -0.069665
C5    C     C_R   0.127719 0.409919 0.445695 -0.000246
C6    C     C_R   0.102553 0.298480 0.425620 -0.159756
C7    C     C_R   0.127334 0.633634 0.487283 -0.065716
C8    C     C_R   0.354028 0.505859 0.499921 -0.056994
C9    C     C_R   0.647227 0.508403 0.496198 -0.234566
C10   C     C_R   0.975433 0.416157 0.404463 -0.110367
C11   C     C_R   0.975440 0.626145 0.508721 -0.029092
C12   C     C_R   0.406276 0.500266 0.500060 0.935158
C13   C     C_R   0.950126 0.521872 0.454970 -0.033811
C14   C     C_R   0.949457 0.321958 0.332692 0.457707
C15   C     C_R   0.898978 0.331794 0.319765 0.389512
C16   C     C_R   0.873562 0.424390 0.393037 -0.222421
C17   C     C_R   0.899270 0.522524 0.454838 -0.101892
C18   C     C_R   0.874027 0.621839 0.516602 -0.101310
C19   C     C_R   0.823664 0.620223 0.517821 0.648798
C20   C     C_R   0.823075 0.421553 0.407952 0.646765
C21   C     C_R   0.720191 0.522303 0.359097 0.448318
C22   C     C_R   0.670055 0.515625 0.369218 -0.404682
C23   C     C_R   0.499556 0.739676 0.500038 0.900744
C24   C     C_R   0.675382 0.510137 0.615617 0.383102
C25   C     C_R   0.726176 0.507074 0.605355 0.333786
C26   C     C_R   0.747986 0.516292 0.477234 0.161439
C27   C     C_R   0.026111 0.411152 0.425047 0.121496
C28   C     C_R   0.051232 0.522371 0.457969 0.011589
C29   C     C_R   0.025811 0.633659 0.486890 -0.017280
C30   C     C_R   0.052562 0.298871 0.417730 -0.141827
C31   C     C_R   0.102056 0.746423 0.495036 -0.258204
C32   C     C_R   0.949357 0.716690 0.585544 0.496783
C33   C     C_R   0.899313 0.717252 0.581989 -0.142079
C34   C     C_R   0.594157 0.502024 0.499746 0.942287
C35   C     C_R   0.051503 0.748117 0.489554 0.431683
C36   C     C_R   0.483359 0.064191 0.610796 -0.044139
C37   C     C_R   0.497328 0.128101 0.494745 -0.226688
C38   C     C_R   0.504297 0.062297 0.371543 0.511852
C39   C     C_R   0.504161 0.933138 0.375055 -0.317704
C40   C     C_R   0.495501 0.870971 0.497338 -0.144062
C41   C     C_R   0.481156 0.937288 0.611684 0.042782
C42   C     C_3   0.494561 0.927301 0.758553 -0.518304
C43   C     C_3   0.497481 0.069614 0.758274 0.412791
C44   C     C_R   0.458134 0.518365 0.071707 0.133402
C45   C     C_R   0.178089 0.411545 0.451404 0.511718
C46   C     C_R   0.541704 0.485288 0.071620 -0.122884
C47   C     C_R   0.541598 0.484115 0.928029 -0.129365
C48   C     C_R   0.458402 0.520917 0.928711 0.156017
C49   C     C_3   0.413953 0.444071 0.918848 0.155839
C50   C     C_3   0.414995 0.434196 0.072908 0.264562
C51   C     C_R   0.177615 0.630022 0.499746 0.547328
C52   C     C_R   0.281319 0.599085 0.412022 -0.123527
C53   C     C_R   0.331262 0.594238 0.417936 -0.267475
C54   C     C_R   0.326869 0.423016 0.579072 0.413919
H1    H     H_    0.264161 0.664443 0.343926 0.179385
H2    H     H_    0.121521 0.833751 0.503215 0.191191
H3    H     H_    0.880281 0.789211 0.638124 0.215899
H4    H     H_    0.514271 0.882432 0.284100 0.190253
H5    H     H_    0.464107 0.891621 0.820699 0.181303
H6    H     H_    0.254836 0.370549 0.639004 0.156323
H7    H     H_    0.529321 0.878261 0.776029 0.211392
H8    H     H_    0.468486 0.113020 0.820612 0.075647
H9    H     H_    0.575289 0.471664 0.125038 0.167175
H10   H     H_    0.574878 0.467643 0.874345 0.222026
H11   H     H_    0.419093 0.354266 0.863505 0.102328
H12   H     H_    0.424564 0.339777 0.111843 0.026160
H13   H     H_    0.121324 0.210025 0.418015 0.190527
H14   H     H_    0.648936 0.517643 0.276962 0.189817
H15   H     H_    0.035307 0.209231 0.412907 0.175460
H16   H     H_    0.352243 0.657894 0.356484 0.201631
N1    N     N_R   0.202017 0.520038 0.481262 -0.342791
N2    N     N_R   0.799438 0.519690 0.466912 -0.302489
N3    N     N_R   0.499670 0.499140 0.142800 -0.136163
N4    N     N_R   0.499670 0.499180 0.857150 -0.143521
O1    O     O_R   0.500010 0.316790 0.614690 -0.606027
O2    O     O_2   0.797778 0.320025 0.368989 -0.504301
O3    O     O_2   0.201844 0.735212 0.532015 -0.552241
O4    O     O_2   0.798952 0.717448 0.570954 -0.540842
O5    O     O_R   0.500000 0.316760 0.385350 -0.571831
O6    O     O_R   0.428760 0.500040 0.614660 -0.558133
O7    O     O_R   0.428750 0.500000 0.385310 -0.611072
O8    O     O_R   0.500000 0.683240 0.614650 -0.620694
O9    O     O_R   0.499990 0.683210 0.385310 -0.628313
O10   O     O_R   0.571250 0.500000 0.614690 -0.585807
O11   O     O_R   0.571240 0.499960 0.385340 -0.637036
O12   O     O_2   0.203001 0.305727 0.425861 -0.567895
Zn1   Zn    Zn3+2 0.500000 0.500020 0.653130 0.997956
Zn2   Zn    Zn3+2 0.500000 0.499980 0.346870 0.981108
O13   O     O_3   0.350111 0.331191 0.652068 -0.791862
H17   H     H_    0.325693 0.280319 0.700281 0.326169
O14   O     O_3   0.970817 0.797343 0.676647 -0.712321
H18   H     H_    0.000874 0.757962 0.710064 0.340041
O15   O     O_3   0.653653 0.512329 0.741799 -0.613447
C55   C     C_3   0.651303 0.637565 0.786400 -0.304574
H19   H     H_    0.627874 0.694324 0.718852 0.166189
H20   H     H_    0.687785 0.680408 0.793977 0.197575
H21   H     H_    0.635174 0.639903 0.889342 0.178226
O16   O     O_3   0.755649 0.496097 0.717745 -0.726946
H22   H     H_    0.735806 0.478988 0.799064 0.377566
O17   O     O_3   0.026913 0.859874 0.478035 -0.744757
H23   H     H_    0.050242 0.929987 0.479299 0.326802
O18   O     O_3   0.519163 0.122598 0.254589 -0.573213
C56   C     C_3   0.484378 0.105606 0.151741 -0.248153
H24   H     H_    0.491933 0.173002 0.069360 0.193023
H25   H     H_    0.447065 0.124353 0.188858 0.132012
H26   H     H_    0.486796 0.010411 0.107253 0.158039
O19   O     O_3   0.543644 0.119259 0.793663 -0.584959
C57   C     C_3   0.581461 0.092085 0.701373 -0.186397
H27   H     H_    0.584404 0.167428 0.625148 0.165570
H28   H     H_    0.578176 0.000432 0.649545 0.133365
H29   H     H_    0.615906 0.090684 0.758470 0.188906
O20   O     O_3   0.375661 0.516902 0.870385 -0.666723
H30   H     H_    0.346681 0.462907 0.872951 0.356629
O21   O     O_3   0.374703 0.491016 0.135562 -0.546927
C58   C     C_3   0.339317 0.399023 0.160064 -0.237002
H31   H     H_    0.304675 0.445730 0.184369 0.201354
H32   H     H_    0.349831 0.340807 0.248265 0.168708
H33   H     H_    0.332760 0.338332 0.070015 0.127016
O22   O     O_3   0.743089 0.534160 0.235307 -0.729505
H34   H     H_    0.718506 0.537052 0.162381 0.341343
O23   O     O_3   0.876139 0.254829 0.227603 -0.708037
H35   H     H_    0.851198 0.304669 0.180355 0.378959
O24   O     O_3   0.974176 0.235670 0.253117 -0.604363
C59   C     C_3   0.961161 0.112161 0.288403 -0.160857
H36   H     H_    0.992654 0.050502 0.269585 0.182211
H37   H     H_    0.951174 0.101683 0.397380 0.151925
H38   H     H_    0.931623 0.077768 0.222370 0.237677

loop_
_geom_bond_atom_site_label_1
_geom_bond_atom_site_label_2
_ccdc_geom_bond_type
C10   C27   A    
C21   C26   A    
O15   C55   S    
C23   O8    A    
C45   N1    A    
C26   N2    S    
C41   C42   S    
O10   Zn1   S    
O21   C58   S    
C19   N2    A    
O24   C59   S    
C28   C29   A    
C23   O9    A    
C36   C37   A    
O6    Zn1   S    
C5    C6    A    
C3    C52   A    
C2    H6    S    
C9    C22   A    
C32   O14   S    
C15   C16   A    
C57   H27   S    
C20   O2    S    
C18   C19   A    
O20   H30   S    
C16   C17   A    
C58   H32   S    
C23   C40   S    
O19   C57   S    
C31   H2    S    
C52   H1    S    
C8    C12   S    
O9    Zn2   S    
C21   C22   A    
C27   C30   A    
C36   C41   A    
C55   H19   S    
C34   O10   A    
C4    C7    A    
C53   H16   S    
O5    Zn2   S    
C4    C28   A    
C51   N1    A    
C7    C31   A    
C1    O1    A    
C48   N4    A    
C24   C25   A    
C54   O13   S    
C2    C54   A    
C8    C54   A    
C39   C40   A    
C55   H21   S    
C25   C26   A    
C39   H4    S    
C5    C45   A    
C50   O21   S    
C34   O11   A    
C42   H5    S    
C19   O4    S    
C3    N1    S    
C51   O3    S    
N3    Zn2   S    
C37   C38   A    
C16   C20   A    
C58   H33   S    
C17   C18   A    
C56   H25   S    
C43   O19   S    
C55   H20   S    
C50   H12   S    
C42   H7    S    
C22   H14   S    
O23   H35   S    
C49   H11   S    
C59   H38   S    
O1    Zn1   S    
C40   C41   A    
C6    C30   A    
C11   C32   A    
C49   C50   S    
C49   O20   S    
C10   C14   A    
C9    C34   S    
N4    Zn1   S    
C31   C35   A    
C42   C43   S    
C35   O17   S    
O14   H18   S    
C30   H15   S    
C52   C53   A    
C59   H37   S    
O11   Zn2   S    
C44   C50   S    
C44   N3    A    
C46   C47   A    
C48   C49   S    
C33   H3    S    
C14   O24   S    
C15   O23   S    
C47   N4    A    
C4    C5    A    
C10   C13   A    
C8    C53   A    
O22   H34   S    
C47   H10   S    
C9    C24   A    
C1    C37   S    
C29   C35   A    
C57   H29   S    
C13   C17   A    
C46   H9    S    
C32   C33   A    
C2    C3    A    
C7    C51   A    
C38   O18   S    
C6    H13   S    
C24   O15   S    
C11   C13   A    
C58   H31   S    
C38   C39   A    
C1    O5    A    
C12   O6    A    
O17   H23   S    
C57   H28   S    
C12   O7    A    
C45   O12   S    
C56   H26   S    
O18   C56   S    
C18   C33   A    
O7    Zn2   S    
C44   C48   A    
C25   O16   S    
C11   C29   A    
C21   O22   S    
O16   H22   S    
C56   H24   S    
C14   C15   A    
C20   N2    A    
C36   C43   S    
O13   H17   S    
C46   N3    A    
O8    Zn1   S    
C43   H8    S    
C59   H36   S    
C27   C28   A    
