data_mof_unit_2371.cif
_audit_creation_date              2012-12-11T15:59:34-0500
_audit_creation_method            fapswitch 2.2
_symmetry_space_group_name_H-M    P1
_symmetry_Int_Tables_number       1
_space_group_crystal_system       triclinic
_cell_length_a                    10.686434
_cell_length_b                    10.818271
_cell_length_c                    16.989991
_cell_angle_alpha                 99.707348
_cell_angle_beta                  99.985862
_cell_angle_gamma                 60.735344
_cell_volume                      1679.4893566

loop_
_atom_site_label
_atom_site_type_symbol
_atom_type_description
_atom_site_fract_x
_atom_site_fract_y
_atom_site_fract_z
_atom_type_partial_charge
C1    C     C_R   0.356317 0.768500 0.397517 0.543610
C2    C     C_R   0.838255 0.210953 0.192205 0.036311
C3    C     C_R   0.857963 0.218942 0.276913 0.004320
C4    C     C_R   0.764439 0.475243 0.280602 -0.143201
C5    C     C_R   0.768229 0.463703 0.199288 -0.172445
C6    C     C_R   0.850867 0.080922 0.149221 0.121525
C7    C     C_R   0.916776 0.956860 0.188303 -0.097852
C8    C     C_R   0.956450 0.962285 0.270734 -0.163326
C9    C     C_R   0.922632 0.092793 0.315370 -0.110319
C10   C     C_R   0.811615 0.353663 0.320653 0.007512
C11   C     C_R   0.362372 0.815113 0.157310 -0.009926
C12   C     C_R   0.365749 0.343492 0.358733 0.559238
C13   C     C_R   0.446836 0.857649 0.218127 -0.030829
C14   C     C_R   0.430248 0.860896 0.299089 -0.003942
C15   C     C_R   0.296252 0.727903 0.254342 -0.114634
C16   C     C_R   0.307876 0.730468 0.174902 0.241027
C17   C     C_R   0.549209 0.893715 0.201005 -0.099376
C18   C     C_R   0.624034 0.941809 0.262358 -0.120006
C19   C     C_R   0.600489 0.953836 0.341618 -0.096457
C20   C     C_R   0.500422 0.919133 0.359965 -0.089019
C21   C     C_R   0.349127 0.799881 0.316638 -0.040128
C22   C     C_R   0.279450 0.247900 0.792560 -0.013433
C23   C     C_R   0.772575 0.379456 0.401933 0.538174
C24   C     C_R   0.413081 0.161321 0.760364 -0.014548
C25   C     C_R   0.449655 0.220762 0.708207 0.011895
C26   C     C_R   0.194604 0.379445 0.675846 -0.166308
C27   C     C_R   0.167234 0.353458 0.747349 -0.162310
C28   C     C_R   0.518602 0.028498 0.786770 -0.026807
C29   C     C_R   0.664594 0.977183 0.780861 0.298463
C30   C     C_R   0.703445 0.062716 0.747035 -0.122476
C31   C     C_R   0.596794 0.180874 0.709769 -0.144423
C32   C     C_R   0.337425 0.320482 0.658688 0.008719
C33   C     C_1   0.820146 0.341999 0.708745 -0.064184
C34   C     C_R   0.381925 0.714161 0.631577 0.562335
C35   C     C_1   0.846466 0.313435 0.776548 -0.061855
C36   C     C_1   0.359706 0.763606 0.714021 -0.052662
C37   C     C_1   0.326727 0.810667 0.781018 -0.068068
C38   C     C_R   0.887624 0.309983 0.085346 0.538564
C39   C     C_R   0.290641 0.261007 0.121968 0.565246
C40   C     C_R   0.298764 0.888749 0.084767 0.543022
C41   C     C_R   0.886199 0.297364 0.859144 0.536608
C42   C     C_R   0.273203 0.245236 0.878120 0.552027
C43   C     C_R   0.281354 0.880560 0.857936 0.520797
C44   C     C_R   0.373000 0.349740 0.587194 0.533793
C45   C     C_R   0.774411 0.380592 0.629406 0.536543
C46   C     C_1   0.324079 0.317321 0.276865 -0.035694
C47   C     C_1   0.304583 0.292191 0.206119 -0.028988
C48   C     C_R   0.814439 0.331162 0.155270 -0.005330
Cr1   Cr    Cr6+3 0.608100 0.610860 0.522250 1.006333
Cr2   Cr    Cr6+3 0.288890 0.599990 0.488420 0.992507
Cr3   Cr    Cr6+3 0.603040 0.289190 0.489390 0.990569
Cr4   Cr    Cr6+3 0.053960 0.052250 0.967380 1.035092
Cr5   Cr    Cr6+3 0.059890 0.373160 0.992710 1.031763
Cr6   Cr    Cr6+3 0.373370 0.061690 0.991710 1.016892
H1    H     H_    0.723824 0.581148 0.312031 0.160131
H2    H     H_    0.699680 0.970857 0.248234 0.139285
H3    H     H_    0.660083 0.990198 0.389126 0.136923
H4    H     H_    0.481036 0.936375 0.422214 0.134584
H5    H     H_    0.107266 0.449257 0.636049 0.130990
H6    H     H_    0.489352 0.967409 0.816119 0.172907
H7    H     H_    0.060977 0.415547 0.767574 0.139394
H8    H     H_    0.813871 0.037836 0.745458 0.113841
H9    H     H_    0.629922 0.242502 0.683877 0.163346
H10   H     H_    0.743495 0.557474 0.171621 0.137416
H11   H     H_    0.930110 0.856971 0.155541 0.153415
H12   H     H_    0.004383 0.866372 0.300894 0.135437
H13   H     H_    0.949531 0.094061 0.379822 0.132252
H14   H     H_    0.250735 0.664259 0.267316 0.153873
H15   H     H_    0.579695 0.877525 0.141291 0.157278
O1    O     O_R   0.749810 0.499790 0.438040 -0.524323
O2    O     O_R   0.298970 0.468800 0.557390 -0.524406
O3    O     O_R   0.489400 0.255930 0.561910 -0.526432
O4    O     O_R   0.723890 0.306050 0.584610 -0.517963
O5    O     O_3   0.500010 0.500010 0.500020 -0.260959
O6    O     O_R   0.171100 0.914680 0.053100 -0.463708
O7    O     O_R   0.941680 0.184840 0.050710 -0.475962
O8    O     O_R   0.922080 0.403420 0.072610 -0.521597
O9    O     O_R   0.196880 0.369150 0.083850 -0.476387
O10   O     O_R   0.411730 0.181020 0.091530 -0.501022
O11   O     O_R   0.365010 0.944360 0.063320 -0.539180
O12   O     O_R   0.477660 0.726260 0.439290 -0.500382
O13   O     O_R   0.159380 0.906670 0.876210 -0.533177
O14   O     O_R   0.930820 0.177420 0.886730 -0.492188
O15   O     O_R   0.910360 0.395420 0.895720 -0.513550
O16   O     O_R   0.186010 0.361730 0.919870 -0.506685
O17   O     O_R   0.400000 0.173010 0.914630 -0.511391
O18   O     O_R   0.354140 0.936940 0.899340 -0.522719
O19   O     O_3   0.162410 0.162370 0.983930 -0.297979
O20   O     O_R   0.260150 0.743000 0.412270 -0.525969
O21   O     O_R   0.297740 0.466550 0.394720 -0.500814
O22   O     O_R   0.488080 0.253500 0.386430 -0.513710
O23   O     O_R   0.722670 0.303800 0.421940 -0.498837
O24   O     O_R   0.751130 0.502220 0.613520 -0.518603
O25   O     O_R   0.478890 0.728510 0.601960 -0.481815
O26   O     O_R   0.261470 0.745430 0.587750 -0.521363
O27   O     O_3   0.760303 0.847810 0.812261 -0.560326
C49   C     C_3   0.901785 0.786258 0.790440 0.020651
H16   H     H_    0.969928 0.690602 0.823522 0.156851
H17   H     H_    0.950411 0.857514 0.812158 0.166957
C50   C     C_3   0.907774 0.737453 0.700009 -0.295657
H18   H     H_    0.913011 0.631279 0.688928 0.171850
H19   H     H_    0.809284 0.808730 0.663409 0.173264
C51   C     C_3   0.036801 0.733042 0.670697 -0.451653
H20   H     H_    0.025309 0.841874 0.676972 0.164313
H21   H     H_    0.042144 0.691715 0.606308 0.173254
H22   H     H_    0.138331 0.663381 0.706008 0.160472
I1    I     I_    0.739627 0.067226 0.033541 -0.307120
O28   O     O_3   0.262605 0.652616 0.114719 -0.552882
C52   C     C_3   0.381430 0.548180 0.073015 0.024612
H23   H     H_    0.396614 0.441745 0.080487 0.199731
H24   H     H_    0.487055 0.545748 0.096113 0.101256
C53   C     C_3   0.350375 0.568147 0.983217 -0.247965
H25   H     H_    0.250870 0.560999 0.958322 0.205018
H26   H     H_    0.332298 0.674651 0.973977 0.179336
C54   C     C_3   0.476068 0.457477 0.936959 -0.458909
H27   H     H_    0.573259 0.471762 0.957053 0.152655
H28   H     H_    0.446900 0.470074 0.871697 0.147077
H29   H     H_    0.502096 0.348389 0.946722 0.212921

loop_
_geom_bond_atom_site_label_1
_geom_bond_atom_site_label_2
_ccdc_geom_bond_type
C25   C31   A    
C1    C21   S    
C33   C45   S    
C12   O22   A    
C19   C20   A    
Cr3   O5    S    
Cr4   O6    S    
C45   O24   A    
C53   H26   S    
C49   H16   S    
C7    C8    A    
C38   O7    A    
C19   H3    S    
C8    H12   S    
C26   C27   A    
Cr5   O15   S    
C14   C21   A    
C12   O21   A    
C36   C37   T    
Cr2   O5    S    
C30   C31   A    
Cr3   O4    S    
Cr2   O26   S    
C1    O12   A    
C15   C16   A    
C41   O14   A    
O28   C52   S    
C44   O2    A    
C45   O4    A    
C18   C19   A    
Cr1   O12   S    
C27   H7    S    
Cr3   O22   S    
Cr2   O21   S    
C8    C9    A    
C54   H28   S    
C22   C42   S    
C6    I1    S    
C40   O11   A    
C42   O17   A    
Cr1   O25   S    
Cr5   O19   S    
C24   C28   A    
C26   H5    S    
C38   C48   S    
C18   H2    S    
C25   C32   A    
C13   C14   A    
C23   O1    A    
C2    C6    A    
C53   H25   S    
C49   H17   S    
Cr6   O11   S    
C28   H6    S    
C5    C48   A    
C39   O9    A    
C14   C20   A    
Cr4   O19   S    
C24   C25   A    
C12   C46   S    
C52   C53   S    
Cr6   O17   S    
C26   C32   A    
C2    C48   A    
C41   O15   A    
C50   C51   S    
C5    H10   S    
C39   O10   A    
C37   C43   S    
Cr4   O14   S    
Cr5   O8    S    
Cr2   O2    S    
C9    H13   S    
C29   C30   A    
C3    C9    A    
C31   H9    S    
Cr3   O23   S    
C7    H11   S    
C11   C16   A    
Cr2   O20   S    
C54   H29   S    
O27   C49   S    
C50   H19   S    
C17   C18   A    
C32   C44   S    
C51   H21   S    
C42   O16   A    
C34   O26   A    
Cr4   O13   S    
Cr1   O1    S    
C30   H8    S    
C4    H1    S    
C22   C24   A    
Cr3   O3    S    
C4    C10   A    
C49   C50   S    
C39   C47   S    
Cr6   O10   S    
C46   C47   T    
C28   C29   A    
C1    O20   A    
Cr1   O5    S    
C34   O25   A    
C4    C5    A    
Cr4   O7    S    
C29   O27   S    
C6    C7    A    
C38   O8    A    
C10   C23   S    
C40   O6    A    
C13   C17   A    
C22   C27   A    
C43   O18   A    
C52   H24   S    
C2    C3    A    
C3    C10   A    
C52   H23   S    
Cr6   O19   S    
C11   C13   A    
Cr6   O18   S    
C15   H14   S    
C50   H18   S    
C33   C35   T    
C44   O3    A    
C51   H22   S    
C34   C36   S    
C11   C40   S    
C35   C41   S    
C16   O28   S    
Cr5   O9    S    
C15   C21   A    
C51   H20   S    
C43   O13   A    
C23   O23   A    
Cr5   O16   S    
C17   H15   S    
Cr1   O24   S    
C20   H4    S    
C53   C54   S    
C54   H27   S    
