data_mof_unit_2104.cif
_audit_creation_date              2012-12-11T16:28:34-0500
_audit_creation_method            fapswitch 2.2
_symmetry_space_group_name_H-M    P1
_symmetry_Int_Tables_number       1
_space_group_crystal_system       triclinic
_cell_length_a                    16.682859
_cell_length_b                    7.276235
_cell_length_c                    14.99875
_cell_angle_alpha                 89.999636
_cell_angle_beta                  94.691102
_cell_angle_gamma                 89.999585
_cell_volume                      1814.57522553

loop_
_atom_site_label
_atom_site_type_symbol
_atom_type_description
_atom_site_fract_x
_atom_site_fract_y
_atom_site_fract_z
_atom_type_partial_charge
O1    O     O_R   0.663460 0.361760 0.165970 -0.531769
O2    O     O_R   0.336540 0.638240 0.834030 -0.531769
O3    O     O_R   0.836540 0.861760 0.334030 -0.531752
O4    O     O_R   0.163460 0.138240 0.665970 -0.531762
O5    O     O_R   0.827100 0.689870 0.163730 -0.533339
O6    O     O_R   0.172900 0.310130 0.836270 -0.533339
O7    O     O_R   0.672900 0.189870 0.336270 -0.533343
O8    O     O_R   0.327100 0.810130 0.663730 -0.533343
H1    H     H_    0.210307 0.978666 0.494874 0.088518
H2    H     H_    0.789693 0.021351 0.505128 0.088517
H3    H     H_    0.289693 0.478646 0.005127 0.088515
H4    H     H_    0.710306 0.521352 0.994873 0.088514
C1    C     C_R   0.853174 0.523046 0.143604 0.705279
C2    C     C_R   0.146826 0.476954 0.856396 0.705281
C3    C     C_R   0.646826 0.023046 0.356396 0.705281
C4    C     C_R   0.353174 0.976954 0.643604 0.705281
O9    O     O_R   0.663490 0.691370 0.155500 -0.531739
O10   O     O_R   0.336510 0.308630 0.844500 -0.531738
O11   O     O_R   0.836510 0.191370 0.344500 -0.531756
O12   O     O_R   0.163490 0.808630 0.655500 -0.531745
O13   O     O_R   0.671770 0.863320 0.325740 -0.521888
O14   O     O_R   0.328230 0.136680 0.674260 -0.521888
O15   O     O_R   0.828230 0.363320 0.174260 -0.521894
O16   O     O_R   0.171770 0.636680 0.825740 -0.521892
C5    C     C_R   0.636544 0.523098 0.133365 0.795167
C6    C     C_R   0.363456 0.476902 0.866635 0.795167
C7    C     C_R   0.863456 0.023096 0.366636 0.795168
C8    C     C_R   0.136544 0.976904 0.633364 0.795167
H5    H     H_    0.121833 0.046858 0.222372 0.124025
H6    H     H_    0.878167 0.953071 0.777624 0.124022
H7    H     H_    0.378164 0.546994 0.277620 0.124025
H8    H     H_    0.621836 0.452998 0.722381 0.124024
O17   O     O_3   0.752910 0.528800 0.305860 -0.374820
O18   O     O_3   0.247090 0.471200 0.694140 -0.374819
O19   O     O_3   0.747090 0.028800 0.194140 -0.374817
O20   O     O_3   0.252910 0.971200 0.805860 -0.374818
V1    V     V_3+5 0.749460 0.803010 0.239640 1.488905
V2    V     V_3+5 0.250540 0.196990 0.760360 1.488906
V3    V     V_3+5 0.750540 0.303010 0.260360 1.488889
V4    V     V_3+5 0.249460 0.696990 0.739640 1.488892
C9    C     C_1   0.468803 0.994647 0.530093 -0.005047
C10   C     C_1   0.531197 0.005353 0.469907 -0.005047
C11   C     C_1   0.031197 0.494647 0.969907 -0.005046
C12   C     C_1   0.968803 0.505353 0.030093 -0.005041
C13   C     C_R   0.030736 0.034106 0.315317 0.286187
C14   C     C_R   0.969264 0.965840 0.684679 0.286183
C15   C     C_R   0.469262 0.534208 0.184676 0.286183
C16   C     C_R   0.530738 0.465788 0.815324 0.286183
C17   C     C_R   0.110700 0.031230 0.291950 -0.222382
C18   C     C_R   0.889300 0.968721 0.708047 -0.222390
C19   C     C_R   0.389298 0.531326 0.208044 -0.222395
C20   C     C_R   0.610701 0.468667 0.791956 -0.222396
C21   C     C_R   0.175231 0.007912 0.356442 0.317980
C22   C     C_R   0.824770 0.992070 0.643558 0.317984
C23   C     C_R   0.324769 0.507953 0.143556 0.317976
C24   C     C_R   0.675231 0.492042 0.856444 0.317980
C25   C     C_R   0.159152 0.993432 0.446214 -0.220967
C26   C     C_R   0.840848 0.006568 0.553786 -0.220968
C27   C     C_R   0.340848 0.493444 0.053785 -0.220963
C28   C     C_R   0.659152 0.506554 0.946215 -0.220964
C29   C     C_R   0.079763 0.998073 0.473385 -0.050232
C30   C     C_R   0.920237 0.001924 0.526614 -0.050232
C31   C     C_R   0.420237 0.498087 0.026614 -0.050231
C32   C     C_R   0.579763 0.501911 0.973387 -0.050231
C33   C     C_R   0.013891 0.015375 0.407055 0.041257
C34   C     C_R   0.986109 0.984609 0.592943 0.041262
C35   C     C_R   0.486108 0.515414 0.092942 0.041263
C36   C     C_R   0.513891 0.484584 0.907058 0.041263
C37   C     C_R   0.066225 0.985193 0.565716 -0.126910
C38   C     C_R   0.933775 0.014805 0.434284 -0.126912
C39   C     C_R   0.433775 0.485184 0.934285 -0.126910
C40   C     C_R   0.566225 0.514815 0.065715 -0.126910
C41   C     C_1   0.415909 0.985938 0.581464 -0.176373
C42   C     C_1   0.584091 0.014061 0.418536 -0.176373
C43   C     C_1   0.084091 0.485938 0.918536 -0.176371
C44   C     C_1   0.915909 0.514062 0.081463 -0.176363
N1    N     N_2   0.742890 0.996537 0.666089 -0.532953
H9    H     H_    0.702422 0.059520 0.620137 0.253357
C45   C     C_3   0.724484 0.013584 0.758664 -0.556993
H10   H     H_    0.658467 0.027078 0.761918 0.205549
H11   H     H_    0.754372 0.135521 0.790361 0.230521
H12   H     H_    0.744555 0.890254 0.797578 0.212308
N2    N     N_2   0.257111 0.003453 0.333911 -0.532954
H13   H     H_    0.297580 0.940475 0.379864 0.253358
C46   C     C_3   0.275519 0.986416 0.241337 -0.556997
H14   H     H_    0.341538 0.972949 0.238084 0.205550
H15   H     H_    0.255439 0.109738 0.202422 0.212309
H16   H     H_    0.245642 0.864467 0.209640 0.230519
N3    N     N_2   0.757110 0.496525 0.833911 -0.532954
H17   H     H_    0.797576 0.559511 0.879863 0.253357
C47   C     C_3   0.775513 0.513595 0.741336 -0.556981
H18   H     H_    0.841528 0.527134 0.738081 0.205548
H19   H     H_    0.745608 0.635516 0.709640 0.230517
H20   H     H_    0.755458 0.390256 0.702422 0.212308
N4    N     N_2   0.242890 0.503467 0.166089 -0.532956
H21   H     H_    0.202424 0.440481 0.120137 0.253360
C48   C     C_3   0.224487 0.486397 0.258665 -0.556976
H22   H     H_    0.158471 0.472859 0.261919 0.205551
H23   H     H_    0.244541 0.609737 0.297579 0.212306
H24   H     H_    0.254391 0.364476 0.290360 0.230518
O21   O     O_3   0.969162 0.057245 0.248717 -0.646276
H25   H     H_    0.991353 0.068629 0.189612 0.282642
O22   O     O_3   0.030837 0.942653 0.751275 -0.646274
H26   H     H_    0.008641 0.931155 0.810373 0.282641
O23   O     O_3   0.530835 0.557420 0.251270 -0.646274
H27   H     H_    0.508639 0.568936 0.310366 0.282642
O24   O     O_3   0.469165 0.442574 0.748730 -0.646274
H28   H     H_    0.491361 0.431054 0.689634 0.282642

loop_
_geom_bond_atom_site_label_1
_geom_bond_atom_site_label_2
_ccdc_geom_bond_type
C26   C30   A    
O21   H25   S    
C23   C27   A    
C9    C10   S    
N4    H21   S    
O10   C6    A    
C48   H22   S    
H5    C17   S    
N1    H9    S    
C30   C38   A    
C18   C22   A    
O18   V4    S    
C32   C36   A    
O19   V1    S    
C14   C34   A    
C16   C20   A    
O5    V1    S    
O12   V4    S    
C17   C21   A    
C34   C37   A    
C47   H19   S    
C33   C38   A    
O14   V2    S    
C1    O15   A    
C35   C40   A    
C2    O16   A    
C12   C44   T    
H8    C20   S    
O4    C8    A    
O17   V3    S    
C8    C37   S    
C15   O23   S    
O24   H28   S    
O6    V2    S    
N3    C47   S    
O11   C7    A    
O5    C1    A    
C22   N1    S    
O7    C3    A    
H6    C18   S    
O8    C4    A    
O1    C5    A    
C6    C39   S    
H3    C27   S    
C15   C35   A    
C48   H23   S    
N1    C45   S    
C11   C43   T    
C31   C35   A    
C10   C42   T    
C30   C34   A    
C46   H15   S    
C4    C41   S    
H1    C25   S    
C23   N4    S    
C47   H18   S    
C45   H11   S    
C21   C25   A    
C15   C19   A    
O12   C8    A    
C46   H14   S    
C24   C28   A    
H4    C28   S    
C11   C12   S    
O2    V4    S    
O6    C2    A    
N2    H13   S    
C1    C44   S    
C13   C17   A    
O2    C6    A    
C5    C40   S    
O9    V1    S    
C16   C36   A    
C31   C39   A    
C7    C38   S    
C13   O21   S    
C24   N3    S    
N2    C46   S    
O4    V2    S    
C13   C33   A    
C48   H24   S    
C22   C26   A    
C46   H16   S    
C29   C37   A    
C4    O14   A    
H2    C26   S    
C14   O22   S    
H7    C19   S    
C45   H12   S    
N4    C48   S    
C25   C29   A    
O23   H27   S    
C14   C18   A    
C27   C31   A    
C21   N2    S    
C28   C32   A    
O9    C5    A    
C2    C43   S    
O3    C7    A    
O10   V2    S    
C47   H20   S    
C36   C39   A    
O15   V3    S    
O20   V2    S    
O16   V4    S    
C19   C23   A    
C32   C40   A    
O1    V3    S    
C9    C41   T    
C45   H10   S    
C16   O24   S    
C29   C33   A    
C3    O13   A    
C3    C42   S    
O13   V1    S    
O3    V1    S    
O11   V3    S    
O22   H26   S    
O7    V3    S    
O8    V4    S    
N3    H17   S    
C20   C24   A    
