data_mof_unit_748.cif
_audit_creation_date              2012-12-11T17:45:25-0500
_audit_creation_method            fapswitch 2.2
_symmetry_space_group_name_H-M    P1
_symmetry_Int_Tables_number       1
_space_group_crystal_system       triclinic
_cell_length_a                    14.959467
_cell_length_b                    14.942317
_cell_length_c                    15.081226
_cell_angle_alpha                 110.211288
_cell_angle_beta                  109.051739
_cell_angle_gamma                 108.72455
_cell_volume                      2608.25982737

loop_
_atom_site_label
_atom_site_type_symbol
_atom_type_description
_atom_site_fract_x
_atom_site_fract_y
_atom_site_fract_z
_atom_type_partial_charge
C1    C     C_R   0.915319 0.198638 0.001075 -0.139960
C2    C     C_R   0.685899 0.246520 0.776484 -0.139495
C3    C     C_R   0.791206 0.590747 0.098027 -0.131407
C4    C     C_R   0.299120 0.800657 0.208191 -0.144590
C5    C     C_R   0.006485 0.408331 0.702916 -0.142955
C6    C     C_R   0.701400 0.499883 0.071797 0.102122
C7    C     C_R   0.061910 0.497950 0.697849 0.058800
C8    C     C_R   0.678492 0.223044 0.675896 0.049364
C9    C     C_R   0.940892 0.767418 0.944275 0.057873
C10   C     C_R   0.695653 0.261902 0.179304 -0.095817
C11   C     C_R   0.794151 0.341780 0.273903 -0.104846
C12   C     C_R   0.303464 0.860370 0.303175 0.067261
C13   C     C_R   0.872980 0.313968 0.316097 0.093297
C14   C     C_R   0.849899 0.204622 0.265162 -0.187789
C15   C     C_R   0.751408 0.125619 0.170096 -0.138001
C16   C     C_R   0.223430 0.408300 0.976321 -0.092576
C17   C     C_R   0.674784 0.154371 0.126853 -0.112958
C18   C     C_R   0.995374 0.399803 0.507346 -0.206676
C19   C     C_R   0.079038 0.490735 0.607199 0.071028
C20   C     C_R   0.161564 0.576493 0.613189 0.025188
C21   C     C_R   0.150808 0.572004 0.516165 -0.229957
C22   C     C_R   0.058602 0.487354 0.417379 0.077871
C23   C     C_R   0.324866 0.499868 0.053121 0.111945
C24   C     C_R   0.980178 0.399388 0.412954 0.016900
C25   C     C_R   0.278937 0.779961 0.735511 -0.158540
C26   C     C_R   0.353402 0.871237 0.839015 -0.112186
C27   C     C_R   0.400745 0.857416 0.926258 -0.085668
C28   C     C_R   0.057580 0.590019 0.314263 -0.096457
C29   C     C_R   0.377071 0.752773 0.909269 -0.117216
C30   C     C_R   0.308028 0.661767 0.804988 -0.167282
C31   C     C_R   0.253519 0.673853 0.717987 0.121998
C32   C     C_R   0.124607 0.035737 0.307084 -0.131330
C33   C     C_R   0.229583 0.050605 0.339962 -0.108699
C34   C     C_R   0.040093 0.496025 0.321402 0.041704
C35   C     C_R   0.284432 0.047180 0.433143 0.120119
C36   C     C_R   0.233501 0.029635 0.493477 -0.210093
C37   C     C_R   0.127011 0.010710 0.457866 -0.022961
C38   C     C_R   0.072944 0.014934 0.365583 -0.072900
C39   C     C_R   0.483750 0.136248 0.552360 -0.233895
C40   C     C_R   0.313265 0.591418 0.067108 -0.151689
C41   C     C_R   0.583353 0.139347 0.572399 0.065787
C42   C     C_R   0.589270 0.056030 0.496680 0.036718
C43   C     C_R   0.495657 0.969570 0.406706 -0.236342
C44   C     C_R   0.396220 0.963064 0.389781 0.055428
C45   C     C_R   0.701760 0.409175 0.006603 -0.154268
C46   C     C_R   0.389071 0.048539 0.459108 0.020345
C47   C     C_R   0.739617 0.080003 0.453455 -0.248462
C48   C     C_R   0.845426 0.098587 0.483430 -0.242464
C49   C     C_R   0.900436 0.086123 0.569221 0.523992
C50   C     C_R   0.846406 0.045627 0.618414 -0.192605
C51   C     C_R   0.741064 0.027827 0.589394 -0.171072
C52   C     C_R   0.976768 0.407286 0.218479 -0.103062
C53   C     C_R   0.689726 0.050983 0.511034 0.122342
C54   C     C_3   0.538431 0.402684 0.087625 -0.466220
C55   C     C_3   0.429422 0.397871 0.073621 0.341892
C56   C     C_R   0.088615 0.589984 0.788160 -0.137452
C57   C     C_3   0.633330 0.608049 0.173877 0.337024
C58   C     C_3   0.532940 0.486617 0.968714 -0.481350
C59   C     C_3   0.604736 0.499581 0.077773 0.198640
C60   C     C_3   0.427567 0.499698 0.068882 0.182495
C61   C     C_3   0.528727 0.604042 0.173177 -0.414389
C62   C     C_3   0.434436 0.495777 0.967421 -0.502247
C63   C     C_R   0.159265 0.017701 0.747154 0.011769
C64   C     C_R   0.211213 0.800381 0.302829 -0.124899
C65   C     C_R   0.063414 0.985381 0.752604 -0.119037
C66   C     C_R   0.067308 0.021228 0.853773 0.040758
C67   C     C_R   0.781683 0.261803 0.690052 -0.105400
C68   C     C_R   0.168528 0.087140 0.949088 -0.090067
C69   C     C_R   0.264034 0.116252 0.943041 -0.124093
C70   C     C_R   0.259510 0.083391 0.842310 -0.161913
C71   C     C_R   0.941160 0.862431 0.840745 -0.196689
C72   C     C_R   0.896037 0.825274 0.897357 0.052914
C73   C     C_R   0.837785 0.872261 0.933290 0.024102
C74   C     C_R   0.846318 0.966857 0.932146 -0.226940
C75   C     C_R   0.923025 0.023575 0.910501 0.054712
C76   C     C_R   0.007518 0.200832 0.911319 -0.123574
C77   C     C_R   0.969812 0.968391 0.860813 0.013481
C78   C     C_R   0.928187 0.743221 0.022173 -0.139695
C79   C     C_R   0.663127 0.745874 0.903640 -0.132659
C80   C     C_R   0.590838 0.721224 0.941855 -0.121380
C81   C     C_R   0.625557 0.778813 0.052741 -0.106443
C82   C     C_R   0.732744 0.861151 0.125732 -0.139169
C83   C     C_R   0.804145 0.889204 0.087172 -0.207802
C84   C     C_R   0.769694 0.830733 0.976000 0.118354
C85   C     C_R   0.953145 0.138564 0.944874 0.059401
C86   C     C_R   0.021484 0.744959 0.932687 -0.116054
Cl1   Cl    Cl    0.039675 0.132615 0.622633 -0.783138
Cl2   Cl    Cl    0.405237 0.384557 0.178639 -0.683068
Cl3   Cl    Cl    0.727779 0.636143 0.303096 -0.685551
H1    H     H_    0.857196 0.170454 0.026046 0.099829
H2    H     H_    0.635598 0.282941 0.145630 0.109683
H3    H     H_    0.810085 0.425417 0.312823 0.150919
H4    H     H_    0.351650 0.828833 0.177386 0.093134
H5    H     H_    0.909413 0.181574 0.296996 0.121713
H6    H     H_    0.734639 0.042412 0.128759 0.139590
H7    H     H_    0.931020 0.334641 0.502054 0.127848
H8    H     H_    0.211493 0.637181 0.517733 0.128837
H9    H     H_    0.237882 0.792072 0.670474 0.107638
H10   H     H_    0.371630 0.952416 0.852316 0.105422
H11   H     H_    0.454477 0.927399 0.007296 0.100606
H12   H     H_    0.138042 0.674330 0.814033 0.119900
H13   H     H_    0.410080 0.741682 0.977268 0.097265
H14   H     H_    0.290401 0.581234 0.793864 0.122137
H15   H     H_    0.990703 0.000826 0.338858 0.110998
H16   H     H_    0.204181 0.323800 0.940435 0.124857
H17   H     H_    0.082723 0.038125 0.235050 0.114914
H18   H     H_    0.267398 0.062642 0.291786 0.119696
H19   H     H_    0.273671 0.024015 0.563901 0.111273
H20   H     H_    0.085413 0.989922 0.500195 0.163422
H21   H     H_    0.480037 0.201361 0.609330 0.137294
H22   H     H_    0.500549 0.902988 0.353003 0.135984
H23   H     H_    0.805239 0.261333 0.629754 0.119033
H24   H     H_    0.700029 0.096474 0.391575 0.152160
H25   H     H_    0.886505 0.128423 0.444140 0.150221
H26   H     H_    0.887218 0.032781 0.682554 0.135295
H27   H     H_    0.586291 0.413399 0.167895 0.241895
H28   H     H_    0.520300 0.323251 0.024491 0.116234
H29   H     H_    0.363965 0.323652 0.995312 0.075917
H30   H     H_    0.526941 0.604374 0.246372 0.250912
H31   H     H_    0.579649 0.548923 0.954120 0.190830
H32   H     H_    0.505189 0.405354 0.900305 0.190292
H33   H     H_    0.360635 0.424664 0.891315 0.196714
H34   H     H_    0.873066 0.748439 0.051895 0.122330
H35   H     H_    0.375498 0.675935 0.114417 0.093132
H36   H     H_    0.438520 0.570189 0.964932 0.179720
H37   H     H_    0.529961 0.680150 0.178520 0.114441
H38   H     H_    0.333689 0.106950 0.837993 0.098268
H39   H     H_    0.155964 0.989365 0.669199 0.105390
H40   H     H_    0.173378 0.110825 0.027707 0.141019
H41   H     H_    0.341762 0.163096 0.016490 0.156362
H42   H     H_    0.975308 0.820522 0.800469 0.127713
H43   H     H_    0.799478 0.000109 0.958602 0.128181
H44   H     H_    0.952944 0.323153 0.194570 0.120952
H45   H     H_    0.055186 0.756056 0.881944 0.096417
H46   H     H_    0.634801 0.702648 0.817362 0.123825
H47   H     H_    0.507949 0.657302 0.884826 0.121758
H48   H     H_    0.569837 0.760267 0.082676 0.091142
H49   H     H_    0.759248 0.905960 0.211395 0.127938
H50   H     H_    0.885309 0.957663 0.143050 0.113640
H51   H     H_    0.185139 0.826185 0.361219 0.105269
H52   H     H_    0.031608 0.174658 0.851380 0.134505
H53   H     H_    0.647436 0.324528 0.976231 0.090206
H54   H     H_    0.102480 0.673721 0.380002 0.094495
H55   H     H_    0.702531 0.003442 0.632922 0.136403
H56   H     H_    0.620246 0.225775 0.794367 0.098471
H57   H     H_    0.672844 0.677687 0.163888 0.076182
H58   H     H_    0.986479 0.929608 0.678239 0.139708
H59   H     H_    0.820197 0.675249 0.153975 0.121781
H60   H     H_    0.986607 0.325033 0.653923 0.140200
H61   H     H_    0.599350 0.093522 0.052442 0.100838
N1    N     N_R   0.947080 0.293830 0.002870 -0.041379
N2    N     N_R   0.153670 0.443180 0.946090 -0.042230
N3    N     N_R   0.002360 0.556820 0.208890 -0.039806
N4    N     N_R   0.210070 0.556820 0.002870 -0.044050
N5    N     N_R   0.945960 0.443180 0.152110 -0.043406
N6    N     N_R   0.151710 0.706170 0.208890 -0.041337
N7    N     N_R   0.004320 0.293830 0.946090 -0.038144
N8    N     N_R   0.789930 0.443180 0.997130 -0.038523
N9    N     N_R   0.054040 0.556820 0.847890 -0.042416
N10   N     N_R   0.848290 0.293830 0.791110 -0.045123
N11   N     N_R   0.995680 0.706170 0.053910 -0.043138
N12   N     N_R   0.052920 0.706170 0.997130 -0.043856
N13   N     N_R   0.791050 0.293830 0.847890 -0.043458
N14   N     N_R   0.846330 0.556820 0.053910 -0.045850
N15   N     N_R   0.997640 0.443180 0.791110 -0.042721
N16   N     N_R   0.208950 0.706170 0.152110 -0.036097
Ni1   Ni    Ni4+2 0.869690 0.369690 0.000000 0.218492
Ni2   Ni    Ni4+2 0.130310 0.630310 0.000000 0.215359
Ni3   Ni    Ni4+2 0.000970 0.369690 0.869780 0.242269
Ni4   Ni    Ni4+2 0.999030 0.630310 0.130220 0.230481

loop_
_geom_bond_atom_site_label_1
_geom_bond_atom_site_label_2
_ccdc_geom_bond_type
C70   H38   S    
C25   C31   A    
C66   C68   A    
C63   C65   A    
C58   C62   S    
C1    H1    S    
C6    C45   A    
C74   H43   S    
C36   H19   S    
C18   H7    S    
C41   C42   A    
C49   Cl1   S    
N14   Ni4   S    
C17   H61   S    
C33   H18   S    
C9    C72   S    
C62   H33   S    
C3    C6    A    
C40   N4    A    
C83   H50   S    
N11   N12   A    
C39   C41   A    
C51   H55   S    
C2    H56   S    
C81   H48   S    
C26   C27   A    
C29   C30   A    
C57   Cl3   S    
C83   C84   A    
C18   C24   A    
N1    N7    A    
C36   C37   A    
C56   H12   S    
C18   C19   A    
C56   N9    A    
C76   N7    A    
C42   C53   S    
C15   H6    S    
C79   C84   A    
C12   C64   A    
C57   C59   S    
C27   C29   A    
C10   C17   A    
C23   C40   A    
C5    H60   S    
N9    Ni2   S    
C60   C62   S    
C50   H26   S    
C73   C74   A    
C55   Cl2   S    
C38   H15   S    
C13   C14   A    
N7    Ni3   S    
C11   H3    S    
C86   H45   S    
C39   H21   S    
C35   C36   A    
N5    Ni1   S    
C69   H41   S    
C54   H27   S    
N3    Ni4   S    
C29   H13   S    
N10   Ni3   S    
C67   N10   A    
C86   N12   A    
C32   C38   A    
C65   H58   S    
C4    C12   A    
C73   C84   S    
C37   H20   S    
C63   H39   S    
N8    N14   A    
C26   H10   S    
C47   C53   A    
C76   H52   S    
C28   C34   A    
C3    H59   S    
C32   H17   S    
C55   C60   S    
N16   Ni2   S    
C52   H44   S    
N4    Ni2   S    
C69   C70   A    
C43   H22   S    
C7    C56   A    
C22   C34   S    
C61   H30   S    
C75   C85   S    
N8    Ni1   S    
C81   C82   A    
C54   C59   S    
N15   Ni3   S    
C23   C60   S    
C40   H35   S    
C27   H11   S    
C74   C75   A    
N10   N13   A    
C8    C41   S    
C72   C73   A    
C5    C7    A    
C4    H4    S    
C68   C69   A    
C44   C46   A    
C25   C26   A    
C82   C83   A    
N9    N15   A    
C13   C24   S    
C60   C61   S    
C52   N5    A    
C30   H14   S    
N13   Ni1   S    
C43   C44   A    
C37   C38   A    
C9    C86   A    
C21   H8    S    
C25   H9    S    
C47   C48   A    
C63   C70   A    
N6    N16   A    
C47   H24   S    
C58   H31   S    
C50   C51   A    
C16   N2    A    
C28   H54   S    
C78   H34   S    
C75   C77   A    
C61   H37   S    
C3    N14   A    
C8    C67   A    
C39   C46   A    
N12   Ni2   S    
N11   Ni4   S    
C16   H16   S    
C48   C49   A    
N2    N4    A    
C10   H2    S    
C65   C66   A    
C16   C23   A    
C5    N15   A    
C28   N3    A    
C22   C24   A    
C1    C85   A    
N3    N5    A    
C42   C43   A    
C71   C77   A    
C48   H25   S    
C64   H51   S    
C15   C17   A    
C66   C77   S    
C54   C55   S    
C58   H32   S    
C34   C52   A    
C6    C59   S    
C2    C8    A    
C45   N8    A    
C55   H29   S    
C80   C81   A    
C2    N13   A    
C62   H36   S    
C57   C61   S    
C79   H46   S    
C64   N6    A    
C7    C19   S    
C80   H47   S    
C57   H57   S    
C32   C33   A    
C19   C20   A    
C58   C59   S    
C71   C72   A    
C12   C44   S    
N2    Ni3   S    
C11   C13   A    
C30   C31   A    
N1    Ni1   S    
N6    Ni4   S    
C33   C35   A    
C4    N16   A    
C45   H53   S    
C1    N1    A    
C9    C78   A    
C68   H40   S    
C10   C11   A    
C71   H42   S    
C79   C80   A    
C67   H23   S    
C20   C21   A    
C78   N11   A    
C82   H49   S    
C49   C50   A    
C54   H28   S    
C14   C15   A    
C51   C53   A    
C21   C22   A    
C35   C46   S    
C76   C85   A    
C14   H5    S    
C20   C31   S    
