data_mof_unit_3552.cif
_audit_creation_date              2012-12-10T17:52:28-0500
_audit_creation_method            fapswitch 2.2
_symmetry_space_group_name_H-M    P1
_symmetry_Int_Tables_number       1
_space_group_crystal_system       triclinic
_cell_length_a                    19.008661
_cell_length_b                    10.695738
_cell_length_c                    9.883671
_cell_angle_alpha                 90.280152
_cell_angle_beta                  89.514159
_cell_angle_gamma                 92.161061
_cell_volume                      2007.94316435

loop_
_atom_site_label
_atom_site_type_symbol
_atom_type_description
_atom_site_fract_x
_atom_site_fract_y
_atom_site_fract_z
_atom_type_partial_charge
Br1   Br    Br    0.601182 0.705396 0.155814 -0.502927
Br2   Br    Br    0.870171 0.520367 0.784116 -0.417539
Br3   Br    Br    0.854378 0.668447 0.211951 -0.387753
C1    C     C_R   0.507297 0.261122 0.499989 0.888161
C2    C     C_R   0.855364 0.589946 0.497314 -0.085166
C3    C     C_R   0.554632 0.118227 0.743419 0.545260
C4    C     C_R   0.364940 0.505888 0.500151 0.890143
C5    C     C_R   0.539779 0.063798 0.869213 -0.175679
C6    C     C_R   0.499108 0.953328 0.877084 -0.229406
C7    C     C_R   0.478576 0.891052 0.758808 -0.166660
C8    C     C_R   0.497009 0.941037 0.630112 0.037793
C9    C     C_R   0.523885 0.064178 0.624340 -0.038323
C10   C     C_R   0.516263 0.128499 0.500803 -0.112073
C11   C     C_R   0.502836 0.063652 0.380230 -0.219136
C12   C     C_R   0.289523 0.535172 0.498397 -0.279969
C13   C     C_R   0.492706 0.936506 0.382402 -0.163441
C14   C     C_R   0.490487 0.873930 0.506071 -0.101604
C15   C     C_R   0.414456 0.323671 0.140995 -0.145987
C16   C     C_R   0.494694 0.739913 0.501422 0.895994
C17   C     C_R   0.376095 0.231357 0.070964 -0.237090
C18   C     C_R   0.376686 0.230557 0.930966 -0.224898
C19   C     C_R   0.414553 0.323478 0.860497 -0.081794
C20   C     C_R   0.458065 0.412718 0.928019 0.166450
C21   C     C_R   0.458089 0.412711 0.072754 0.111134
C22   C     C_R   0.540545 0.583365 0.069877 0.298889
C23   C     C_R   0.931787 0.609618 0.491618 0.362065
C24   C     C_R   0.540205 0.583063 0.927047 -0.143286
C25   C     C_R   0.634936 0.503526 0.499438 0.926843
C26   C     C_R   0.248748 0.532968 0.619172 0.480521
C27   C     C_R   0.179879 0.574584 0.617263 -0.254921
C28   C     C_R   0.149312 0.608339 0.495934 -0.053353
C29   C     C_R   0.188734 0.610553 0.376802 -0.258271
C30   C     C_R   0.258440 0.573997 0.375754 0.467788
C31   C     C_3   0.245147 0.381038 0.779671 -0.337060
C32   C     C_3   0.664382 0.186127 0.677916 -0.270708
C33   C     C_3   0.272140 0.506227 0.157255 -0.251989
C34   C     C_R   0.073718 0.621903 0.489302 0.326356
C35   C     C_R   0.821528 0.548013 0.617713 0.274809
C36   C     C_R   0.749612 0.518686 0.617412 -0.231059
C37   C     C_R   0.711164 0.525967 0.497912 -0.169119
C38   C     C_R   0.744792 0.566359 0.378680 -0.175227
C39   C     C_R   0.815829 0.600913 0.378028 0.267174
H1    H     H_    0.559899 0.107433 0.960843 0.172001
H2    H     H_    0.572936 0.650548 0.871750 0.184446
H3    H     H_    0.165049 0.641637 0.284142 0.176076
H4    H     H_    0.723956 0.489046 0.710763 0.203691
H5    H     H_    0.715584 0.574721 0.285994 0.228123
H6    H     H_    0.498914 0.111008 0.284056 0.178042
H7    H     H_    0.263432 0.304673 0.712768 0.158618
H8    H     H_    0.186633 0.381258 0.780795 0.169396
H9    H     H_    0.260778 0.360990 0.884723 0.195230
H10   H     H_    0.657829 0.172468 0.567111 0.156386
H11   H     H_    0.685152 0.100493 0.724686 0.175063
H12   H     H_    0.485544 0.913515 0.974816 0.181182
H13   H     H_    0.704553 0.262562 0.692772 0.200594
H14   H     H_    0.221647 0.537459 0.115801 0.166102
H15   H     H_    0.266072 0.408379 0.194895 0.143245
H16   H     H_    0.310477 0.506708 0.072071 0.211249
H17   H     H_    0.446278 0.806412 0.770148 0.186767
H18   H     H_    0.485881 0.887582 0.286880 0.192037
H19   H     H_    0.406955 0.324328 0.247801 0.205301
H20   H     H_    0.343916 0.162596 0.125707 0.161057
H21   H     H_    0.344926 0.161157 0.876575 0.155317
H22   H     H_    0.406774 0.324575 0.753978 0.199162
H23   H     H_    0.149084 0.574411 0.710033 0.182385
N1    N     N_R   0.037971 0.567867 0.385179 -0.151928
N2    N     N_R   0.968237 0.561304 0.386702 -0.112842
N3    N     N_R   0.967515 0.666855 0.594294 -0.106184
N4    N     N_R   0.037512 0.671863 0.593884 -0.146012
N5    N     N_R   0.499340 0.498800 0.142780 -0.136593
N6    N     N_R   0.499320 0.498720 0.857170 -0.132228
O1    O     O_R   0.500000 0.316780 0.614690 -0.604451
O2    O     O_3   0.600877 0.221279 0.739680 -0.595381
O3    O     O_3   0.298261 0.588913 0.258304 -0.579867
O4    O     O_R   0.499990 0.316750 0.385360 -0.658475
O5    O     O_R   0.398140 0.500000 0.614700 -0.596312
O6    O     O_R   0.398130 0.499970 0.385370 -0.588241
O7    O     O_R   0.500010 0.683250 0.614640 -0.640961
O8    O     O_R   0.500000 0.683220 0.385310 -0.572840
O9    O     O_R   0.601870 0.500030 0.614630 -0.587913
O10   O     O_R   0.601860 0.500000 0.385300 -0.588685
O11   O     O_3   0.277006 0.496917 0.740809 -0.586568
Zn1   Zn    Zn3+2 0.500000 0.500020 0.653130 0.983647
Zn2   Zn    Zn3+2 0.500000 0.499980 0.346870 0.995417

loop_
_geom_bond_atom_site_label_1
_geom_bond_atom_site_label_2
_ccdc_geom_bond_type
C2    C39   A    
Br3   C39   S    
C34   N4    A    
C32   H11   S    
C29   H3    S    
C5    H1    S    
C21   N5    A    
C31   H9    S    
C15   C21   A    
C23   N2    A    
C33   H16   S    
C3    C9    A    
O8    Zn2   S    
O4    Zn2   S    
C13   C14   A    
C25   C37   S    
C38   C39   A    
C1    C10   S    
C1    O4    A    
O7    Zn1   S    
C8    C14   A    
C5    C6    A    
C20   C21   A    
C10   C11   A    
N5    Zn2   S    
C6    C7    A    
C4    O6    A    
C4    C12   S    
N1    N2    A    
C18   C19   A    
Br1   C22   S    
O9    Zn1   S    
C24   H2    S    
O5    Zn1   S    
C12   C26   A    
N6    Zn1   S    
C35   C36   A    
C31   H8    S    
C32   H13   S    
O1    Zn1   S    
C20   N6    A    
C33   H15   S    
C36   C37   A    
N3    N4    A    
C11   H6    S    
O6    Zn2   S    
C28   C34   S    
C16   O7    A    
C26   C27   A    
C33   H14   S    
Br2   C35   S    
C28   C29   A    
C34   N1    A    
C38   H5    S    
C9    C10   A    
C16   O8    A    
C33   O3    S    
C36   H4    S    
C13   H18   S    
C37   C38   A    
C11   C13   A    
C1    O1    A    
O10   Zn2   S    
C24   N6    A    
C3    O2    S    
C32   O2    S    
C31   H7    S    
C25   O10   A    
C3    C5    A    
C8    C9    A    
C15   H19   S    
C4    O5    A    
C22   N5    A    
C22   C24   A    
C23   N3    A    
C29   C30   A    
C7    H17   S    
C26   O11   S    
C27   C28   A    
C14   C16   S    
C15   C17   A    
C17   H20   S    
C25   O9    A    
C18   H21   S    
C27   H23   S    
C7    C8    A    
C19   H22   S    
C2    C23   S    
C30   O3    S    
C17   C18   A    
C32   H10   S    
C19   C20   A    
C6    H12   S    
C31   O11   S    
C2    C35   A    
C12   C30   A    
