data_mof_unit_2268.cif
_audit_creation_date              2013-03-05T15:55:01-0500
_audit_creation_method            fapswitch 2.2
_symmetry_space_group_name_H-M    P1
_symmetry_Int_Tables_number       1
_space_group_crystal_system       triclinic
_cell_length_a                    6.927312
_cell_length_b                    14.602471
_cell_length_c                    16.168717
_cell_angle_alpha                 90.554356
_cell_angle_beta                  89.624081
_cell_angle_gamma                 90.172316
_cell_volume                      1635.44183363

loop_
_atom_site_label
_atom_site_type_symbol
_atom_site_description
_atom_site_fract_x
_atom_site_fract_y
_atom_site_fract_z
_atom_type_partial_charge
O1    O     O_R   0.505810 0.583360 0.413880 -0.597943
O2    O     O_R   0.175870 0.595480 0.585520 -0.556866
O3    O     O_R   0.005540 0.416640 0.586120 -0.602848
C1    C     C_R   0.344273 0.618495 0.614087 0.965171
O4    O     O_R   0.176100 0.594390 0.414490 -0.599958
O5    O     O_R   0.005770 0.415540 0.413870 -0.604642
C2    C     C_R   0.345881 0.615805 0.385531 0.934070
O6    O     O_R   0.505580 0.584460 0.586130 -0.573317
O7    O     O_3   0.339190 0.441320 0.500000 -0.289776
V1    V     V_3+5 0.064350 0.510890 0.500000 1.203546
O8    O     O_R   0.676050 0.404520 0.414480 -0.606279
C3    C     C_R   0.845282 0.382289 0.385531 0.905215
O9    O     O_R   0.675830 0.405610 0.585510 -0.603208
C4    C     C_R   0.844692 0.383672 0.613754 1.014330
V2    V     V_3+5 0.564340 0.489110 0.500000 1.177557
O10   O     O_3   0.839370 0.558680 0.500000 -0.237014
C5    C     C_2   0.721039 0.208709 0.786390 -0.065358
C6    C     C_2   0.886563 0.181657 0.822417 -0.455324
H1    H     H_    0.584955 0.180001 0.807733 0.136056
H2    H     H_    0.024439 0.209577 0.803165 0.154782
C7    C     C_2   0.707916 0.277017 0.718469 -0.084445
C8    C     C_2   0.861105 0.315549 0.680510 -0.450929
H3    H     H_    0.563593 0.295553 0.698964 0.132092
H4    H     H_    0.006481 0.297675 0.698296 0.157937
C9    C     C_R   0.047386 0.224221 0.217942 -0.149315
H5    H     H_    0.188359 0.204882 0.194473 0.119975
C10   C     C_R   0.036383 0.287536 0.283334 -0.142105
H6    H     H_    0.169360 0.315516 0.307866 0.124587
C11   C     C_R   0.856537 0.314198 0.316576 -0.118568
C12   C     C_R   0.687968 0.276039 0.282406 -0.139732
H7    H     H_    0.547016 0.294956 0.306187 0.121433
C13   C     C_R   0.698950 0.212763 0.216991 -0.148079
H8    H     H_    0.566032 0.184407 0.192742 0.123497
C14   C     C_R   0.878837 0.185789 0.184009 -0.112266
C15   C     C_R   0.210000 0.754792 0.696084 0.386811
C16   C     C_R   0.224141 0.816376 0.763129 -0.228028
H9    H     H_    0.113332 0.867971 0.771353 0.156365
C17   C     C_R   0.379966 0.813172 0.818215 -0.185763
C18   C     C_R   0.523732 0.747088 0.804793 -0.121627
H10   H     H_    0.645741 0.742878 0.846116 0.126869
C19   C     C_R   0.509385 0.684228 0.738974 -0.070815
H11   H     H_    0.620313 0.632598 0.731938 0.153814
C20   C     C_R   0.353241 0.686716 0.683593 -0.313799
C21   C     C_R   0.198626 0.739623 0.302054 -0.176876
H12   H     H_    0.070963 0.732992 0.340686 0.143790
C22   C     C_R   0.203180 0.806413 0.239951 0.166576
C23   C     C_R   0.373089 0.816074 0.189472 -0.164306
C24   C     C_R   0.531952 0.759209 0.206266 -0.187875
H13   H     H_    0.662685 0.763825 0.169458 0.130539
C25   C     C_R   0.525060 0.694871 0.269938 -0.132591
H14   H     H_    0.650601 0.652703 0.280721 0.124496
C26   C     C_R   0.357382 0.684006 0.318039 -0.142842
O11   O     O_R   0.230120 0.912300 0.917180 -0.593308
O12   O     O_R   0.559740 0.902430 0.088770 -0.600952
O13   O     O_R   0.729930 0.081310 0.089370 -0.601571
C27   C     C_R   0.389192 0.882588 0.119522 0.914953
O14   O     O_R   0.559840 0.901330 0.917750 -0.593862
O15   O     O_R   0.730030 0.080210 0.917120 -0.593361
C28   C     C_R   0.391133 0.879527 0.888498 0.959700
O16   O     O_R   0.230020 0.913400 0.089430 -0.602572
O17   O     O_3   0.396460 0.055470 0.003290 -0.277606
V3    V     V_3+5 0.671360 0.985960 0.003250 1.145833
O18   O     O_R   0.059740 0.091300 0.917690 -0.602566
C29   C     C_R   0.891411 0.113218 0.889400 1.020335
O19   O     O_R   0.059640 0.092400 0.088720 -0.606015
C30   C     C_R   0.890243 0.115972 0.116506 0.919246
V4    V     V_3+5 0.171350 0.007820 0.003190 1.142417
O20   O     O_3   0.896380 0.938200 0.003220 -0.280151
C31   C     C_3   0.027847 0.868583 0.236779 -0.437682
C32   C     C_3   0.069360 0.961299 0.278745 -0.243948
C33   C     C_3   0.883452 0.006112 0.310105 -0.878528
H15   H     H_    0.777336 0.011818 0.259287 0.250146
H16   H     H_    0.818412 0.964643 0.360401 0.271012
H17   H     H_    0.915872 0.075424 0.335259 0.259624
H18   H     H_    0.166042 0.952035 0.332676 0.212210
H19   H     H_    0.143477 0.007403 0.234457 0.194236
H20   H     H_    0.971612 0.876892 0.173438 0.216262
H21   H     H_    0.905223 0.835636 0.269991 0.190236
N1    N     N_R   0.053855 0.765532 0.639531 0.227764
O21   O     O_R   0.039196 0.841217 0.598276 -0.405577
O22   O     O_R   0.905448 0.711064 0.644013 -0.403291

loop_
_geom_bond_atom_site_label_1
_geom_bond_atom_site_label_2
_geom_bond_distance
_ccdc_geom_bond_type
O15   V3    2.006239 S    
C3    C11   1.488499 S    
C10   C11   1.408077 A    
C19   H11   1.082821 S    
C31   H20   1.106008 S    
C15   C16   1.405500 A    
C1    O6    1.300896 A    
C14   C30   1.488185 S    
O11   C28   1.296269 A    
O14   V3    2.002585 S    
C18   C19   1.402462 A    
C16   H9    1.083858 S    
C2    C26   1.486081 S    
O5    C3    1.296463 A    
C17   C18   1.403228 A    
O14   C28   1.301149 A    
V2    O10   2.156446 S    
O13   V3    2.002163 S    
C22   C31   1.519988 S    
O8    V2    1.998818 S    
O16   V4    2.014572 S    
O19   V4    1.998838 S    
C25   C26   1.403099 A    
C32   C33   1.527724 S    
O1    V2    2.011298 S    
C15   C20   1.418806 A    
O7    V1    2.160675 S    
C9    C14   1.406324 A    
C17   C28   1.488491 S    
C21   C26   1.396060 A    
C24   C25   1.400925 A    
C7    C8    1.346824 D    
C19   C20   1.409506 A    
C31   H21   1.112642 S    
O17   V3    2.160621 S    
C21   C22   1.406707 A    
C5    C6    1.351322 D    
O12   C27   1.311488 A    
C7    H3    1.086133 S    
O15   C29   1.295133 A    
O18   V4    2.011760 S    
V4    O20   2.156421 S    
C18   H10   1.083081 S    
N1    O22   1.299990 A    
O12   V3    2.002644 S    
C9    H5    1.082653 S    
C5    C7    1.494094 S    
C27   O16   1.291983 A    
C13   C14   1.408025 A    
O2    C1    1.299581 A    
C11   C12   1.406379 A    
O17   V4    1.705692 S    
C23   C24   1.409994 A    
C25   H14   1.083124 S    
O3    C4    1.291255 A    
C24   H13   1.082695 S    
O6    V2    2.000532 S    
O9    V2    2.011723 S    
C32   H19   1.109984 S    
C8    H4    1.082514 S    
O2    V1    2.002450 S    
C32   H18   1.112535 S    
O13   C30   1.296418 A    
C21   H12   1.083998 S    
O4    C2    1.301418 A    
C22   C23   1.435282 A    
O1    C2    1.294599 A    
O18   C29   1.297480 A    
O5    V1    2.002289 S    
C33   H17   1.109993 S    
O8    C3    1.300370 A    
C1    C20   1.496033 S    
C9    C10   1.399626 A    
V3    O20   1.709595 S    
C13   H8    1.082716 S    
C4    C8    1.480047 S    
C16   C17   1.405138 A    
O7    V2    1.706770 S    
C33   H15   1.109991 S    
O3    V1    2.006316 S    
V1    O10   1.709526 S    
C12   C13   1.399542 A    
C6    C29   1.481366 S    
C12   H7    1.082672 S    
C15   N1    1.430895 S    
C5    H1    1.086113 S    
C6    H2    1.082385 S    
C31   C32   1.535751 S    
O11   V4    2.000926 S    
N1    O21   1.300981 A    
O4    V1    2.002606 S    
O19   C30   1.299949 A    
C33   H16   1.110895 S    
C10   H6    1.082693 S    
O9    C4    1.300623 A    
C23   C27   1.501321 S    
