data_mof_unit_2642.cif
_audit_creation_date              2012-12-11T14:13:24-0500
_audit_creation_method            fapswitch 2.2
_symmetry_space_group_name_H-M    P1
_symmetry_Int_Tables_number       1
_space_group_crystal_system       triclinic
_cell_length_a                    11.498735
_cell_length_b                    18.635835
_cell_length_c                    10.039261
_cell_angle_alpha                 90.725508
_cell_angle_beta                  109.522734
_cell_angle_gamma                 90.045982
_cell_volume                      2027.42662043

loop_
_atom_site_label
_atom_site_type_symbol
_atom_type_description
_atom_site_fract_x
_atom_site_fract_y
_atom_site_fract_z
_atom_type_partial_charge
C1    C     C_R   0.070996 0.646870 0.140438 0.515376
C2    C     C_2   0.592105 0.076722 0.077481 -0.127981
C3    C     C_2   0.607195 0.429266 0.069057 -0.100149
C4    C     C_2   0.392845 0.570760 0.930826 -0.100200
C5    C     C_2   0.494118 0.962738 0.014766 -0.174898
C6    C     C_2   0.505908 0.037250 0.985198 -0.174883
C7    C     C_2   0.500834 0.461345 0.008679 -0.174146
C8    C     C_2   0.499214 0.538684 0.991169 -0.174179
C9    C     C_2   0.032277 0.928815 0.131398 -0.103377
C10   C     C_2   0.967717 0.071184 0.868601 -0.103390
C11   C     C_2   0.988435 0.423705 0.879554 -0.116753
C12   C     C_R   0.928962 0.353151 0.859551 0.515408
C13   C     C_2   0.011370 0.576361 0.120390 -0.116820
C14   C     C_2   0.985367 0.961021 0.006259 0.015840
C15   C     C_2   0.014636 0.038976 0.993737 0.015821
C16   C     C_2   0.013426 0.460397 0.001667 0.018303
C17   C     C_2   0.986405 0.539666 0.998289 0.018272
C18   C     C_R   0.436909 0.637278 0.374673 0.540368
C19   C     C_R   0.563058 0.362733 0.625245 0.540265
C20   C     C_R   0.529383 0.147193 0.555637 0.541202
C21   C     C_R   0.470615 0.852808 0.444360 0.541196
C22   C     C_R   0.375453 0.644787 0.963751 0.547682
C23   C     C_R   0.924218 0.145187 0.856652 0.537006
C24   C     C_R   0.624556 0.355222 0.036227 0.547709
C25   C     C_R   0.622761 0.145803 0.035896 0.555149
C26   C     C_R   0.377240 0.854196 0.964101 0.555156
C27   C     C_R   0.540816 0.438574 0.581766 -0.043738
C28   C     C_R   0.459108 0.561412 0.417987 -0.043788
C29   C     C_R   0.497530 0.924863 0.510259 -0.047350
C30   C     C_R   0.502463 0.075140 0.489730 -0.047356
C31   C     C_R   0.357015 0.448812 0.661378 -0.075554
C32   C     C_R   0.642900 0.551214 0.338376 -0.075539
C33   C     C_R   0.715164 0.921143 0.520847 -0.089278
C34   C     C_R   0.075782 0.854812 0.143348 0.536991
C35   C     C_R   0.284832 0.078863 0.479172 -0.089279
C36   C     C_R   0.236029 0.471615 0.633245 -0.137577
C37   C     C_R   0.763877 0.528413 0.366461 -0.137581
C38   C     C_R   0.814413 0.953347 0.494575 -0.140105
C39   C     C_R   0.185598 0.046662 0.505485 -0.140094
C40   C     C_R   0.185696 0.519094 0.524834 -0.118907
C41   C     C_R   0.814191 0.480869 0.474752 -0.118960
C42   C     C_R   0.806569 0.024415 0.453223 -0.132386
C43   C     C_R   0.193435 0.975590 0.546810 -0.132399
C44   C     C_R   0.259584 0.545983 0.452249 -0.084834
C45   C     C_R   0.429170 0.471974 0.579170 0.023918
C46   C     C_R   0.740305 0.453940 0.547299 -0.085031
C47   C     C_R   0.702109 0.064318 0.445343 -0.080838
C48   C     C_R   0.297884 0.935684 0.554650 -0.080838
C49   C     C_R   0.383679 0.527972 0.485240 -0.004942
C50   C     C_R   0.616228 0.471991 0.514433 -0.004969
C51   C     C_R   0.602772 0.033749 0.479268 0.004174
C52   C     C_R   0.397220 0.966253 0.520721 0.004165
C53   C     C_3   0.111078 0.079771 0.113161 -0.264412
C54   C     C_3   0.240634 0.051463 0.132776 -0.428651
C55   C     C_3   0.888912 0.920227 0.886841 -0.264415
C56   C     C_R   0.570746 0.528015 0.420558 0.023900
C57   C     C_3   0.759357 0.948526 0.867274 -0.428656
C58   C     C_3   0.905620 0.576169 0.863556 -0.254318
C59   C     C_3   0.770333 0.556211 0.833410 -0.441024
C60   C     C_3   0.094388 0.423929 0.136356 -0.254385
C61   C     C_3   0.229656 0.443768 0.166047 -0.441101
C62   C     C_R   0.605340 0.959667 0.505198 0.010233
C63   C     C_R   0.394653 0.040336 0.494795 0.010216
C64   C     C_2   0.407900 0.923273 0.922505 -0.127992
Cr1   Cr    Cr6+3 0.187610 0.750000 0.979860 1.001584
Cr2   Cr    Cr6+3 0.812390 0.250000 0.020140 1.001611
Cr3   Cr    Cr6+3 0.245810 0.750000 0.341640 1.013572
Cr4   Cr    Cr6+3 0.754190 0.250000 0.658360 1.013521
Cr5   Cr    Cr6+3 0.485760 0.750000 0.219910 1.000411
Cr6   Cr    Cr6+3 0.514240 0.250000 0.780090 1.000450
H1    H     H_    0.180938 0.451103 0.693357 0.099357
H2    H     H_    0.608366 0.588410 0.254055 0.153263
H3    H     H_    0.724791 0.865774 0.554137 0.127230
H4    H     H_    0.275202 0.134234 0.445895 0.127244
H5    H     H_    0.219019 0.575040 0.360381 0.154464
H6    H     H_    0.780894 0.424812 0.639047 0.154692
H7    H     H_    0.697963 0.118292 0.405877 0.139922
H8    H     H_    0.302024 0.881708 0.594107 0.139932
H9    H     H_    0.448328 0.058694 0.884333 0.172859
H10   H     H_    0.551710 0.941292 0.115618 0.172854
H11   H     H_    0.583352 0.570060 0.033893 0.124406
H12   H     H_    0.818967 0.548959 0.306379 0.099339
H13   H     H_    0.416691 0.429972 0.965978 0.124426
H14   H     H_    0.653588 0.052945 0.172771 0.112151
H15   H     H_    0.346407 0.947052 0.827228 0.112158
H16   H     H_    0.310003 0.538929 0.882310 0.116172
H17   H     H_    0.690047 0.461094 0.117524 0.116193
H18   H     H_    0.929947 0.039538 0.772459 0.109219
H19   H     H_    0.070032 0.960462 0.227543 0.109214
H20   H     H_    0.022101 0.548241 0.217163 0.077720
H21   H     H_    0.977527 0.451841 0.782752 0.077810
H22   H     H_    0.254297 0.997272 0.179803 0.167133
H23   H     H_    0.896474 0.922630 0.503906 0.106926
H24   H     H_    0.256402 0.048965 0.029506 0.163805
H25   H     H_    0.310735 0.088339 0.203538 0.136467
H26   H     H_    0.113538 0.137731 0.090056 0.154066
H27   H     H_    0.089221 0.077202 0.212357 0.138577
H28   H     H_    0.743603 0.950986 0.970553 0.163789
H29   H     H_    0.745688 0.002729 0.820311 0.167144
H30   H     H_    0.689250 0.911666 0.796478 0.136467
H31   H     H_    0.910742 0.922807 0.787628 0.138562
H32   H     H_    0.886468 0.862266 0.909932 0.154059
H33   H     H_    0.757138 0.497162 0.828454 0.145352
H34   H     H_    0.103552 0.077387 0.496223 0.106935
H35   H     H_    0.738502 0.578147 0.918527 0.143110
H36   H     H_    0.712938 0.579760 0.731724 0.162660
H37   H     H_    0.910106 0.635496 0.873039 0.166545
H38   H     H_    0.935184 0.563302 0.771755 0.136910
H39   H     H_    0.261186 0.421712 0.080815 0.143069
H40   H     H_    0.242956 0.502800 0.170774 0.145437
H41   H     H_    0.287227 0.420265 0.267701 0.162593
H42   H     H_    0.065141 0.436908 0.228324 0.136844
H43   H     H_    0.089736 0.364606 0.127036 0.166631
H44   H     H_    0.089891 0.534594 0.495868 0.106275
H45   H     H_    0.909983 0.465346 0.503658 0.106304
H46   H     H_    0.881400 0.048803 0.427016 0.110173
H47   H     H_    0.118612 0.951204 0.573044 0.110165
H48   H     H_    0.391557 0.411652 0.745763 0.153190
O1    O     O_R   0.267710 0.668200 0.902110 -0.510362
O2    O     O_R   0.883280 0.330790 0.732340 -0.545104
O3    O     O_R   0.883280 0.169210 0.732340 -0.516115
O4    O     O_R   0.116720 0.830790 0.267660 -0.516128
O5    O     O_R   0.366710 0.675440 0.427590 -0.490257
O6    O     O_R   0.633290 0.324560 0.572410 -0.490378
O7    O     O_R   0.633290 0.175440 0.572410 -0.500483
O8    O     O_R   0.366710 0.824560 0.427590 -0.500499
O9    O     O_R   0.534870 0.669390 0.371760 -0.524990
O10   O     O_R   0.465130 0.330610 0.628240 -0.524935
O11   O     O_R   0.465130 0.169390 0.628240 -0.512398
O12   O     O_R   0.732290 0.331800 0.097890 -0.510363
O13   O     O_R   0.534870 0.830610 0.371760 -0.512393
O14   O     O_R   0.453080 0.674480 0.075160 -0.531242
O15   O     O_R   0.546920 0.325520 0.924840 -0.531181
O16   O     O_R   0.546920 0.174480 0.924840 -0.498416
O17   O     O_R   0.453080 0.825520 0.075160 -0.498415
O18   O     O_3   0.306390 0.750000 0.180470 -0.262644
O19   O     O_3   0.693610 0.250000 0.819530 -0.262607
O20   O     O_R   0.732290 0.168200 0.097890 -0.518357
O21   O     O_R   0.267710 0.831800 0.902110 -0.518354
O22   O     O_R   0.099480 0.674460 0.038850 -0.501227
O23   O     O_R   0.900520 0.325540 0.961150 -0.501218
O24   O     O_R   0.900520 0.174460 0.961150 -0.496581
O25   O     O_R   0.099480 0.825540 0.038850 -0.496589
O26   O     O_R   0.116720 0.669210 0.267660 -0.545004

loop_
_geom_bond_atom_site_label_1
_geom_bond_atom_site_label_2
_ccdc_geom_bond_type
C24   O15   A    
C44   C49   A    
C7    H13   S    
C30   C51   A    
C35   H4    S    
C13   H20   S    
C2    H14   S    
C20   O11   A    
C4    C8    D    
C61   H39   S    
Cr4   O6    S    
C46   H6    S    
C28   C56   A    
C7    C8    S    
C23   O3    A    
Cr2   O23   S    
C20   C30   S    
C53   C54   S    
C55   H32   S    
C10   H18   S    
C59   H35   S    
C33   H3    S    
C15   C53   S    
C38   C42   A    
C48   C52   A    
C3    C7    D    
C10   C15   D    
C5    C6    S    
Cr1   O25   S    
C4    H16   S    
Cr3   O26   S    
C57   H29   S    
C19   O10   A    
C12   O23   A    
C58   H37   S    
C16   C60   S    
C48   H8    S    
C26   C64   S    
C21   O13   A    
C36   C40   A    
C26   O17   A    
C12   O2    A    
Cr1   O22   S    
C40   H44   S    
C33   C62   A    
Cr6   O15   S    
C41   C46   A    
C23   O24   A    
C19   C27   S    
C43   C48   A    
C27   C50   A    
C18   O5    A    
C27   C45   A    
C14   C55   S    
C34   O4    A    
C30   C63   A    
C53   H26   S    
Cr4   O19   S    
C2    C6    D    
C51   C62   A    
C41   H45   S    
C61   H40   S    
C22   O1    A    
C34   O25   A    
C19   O6    A    
C59   H36   S    
C3    H17   S    
C8    H11   S    
Cr1   O18   S    
C39   H34   S    
C18   C28   S    
C32   H2    S    
C26   O21   A    
Cr3   O8    S    
C9    H19   S    
C16   C17   S    
C39   C43   A    
C53   H27   S    
C58   C59   S    
C57   H30   S    
C21   C29   S    
Cr6   O11   S    
C50   C56   A    
C5    C64   D    
C60   C61   S    
C44   H5    S    
C35   C39   A    
C9    C14   D    
C31   H48   S    
C54   H22   S    
C60   H42   S    
C24   O12   A    
C18   O9    A    
C4    C22   S    
C28   C49   A    
Cr2   O20   S    
C45   C49   A    
Cr5   O13   S    
C60   H43   S    
Cr1   O1    S    
C32   C37   A    
C5    H10   S    
C25   O16   A    
C54   H25   S    
C1    O22   A    
C43   H47   S    
C42   H46   S    
Cr5   O18   S    
C55   C57   S    
C9    C34   S    
C37   H12   S    
C1    C13   S    
C47   H7    S    
C61   H41   S    
Cr3   O4    S    
C64   H15   S    
Cr6   O10   S    
C46   C50   A    
C29   C62   A    
C17   C58   S    
C22   O14   A    
C31   C36   A    
C3    C24   S    
C52   C63   A    
Cr3   O5    S    
Cr4   O3    S    
C47   C51   A    
C11   C12   S    
C36   H1    S    
Cr2   O24   S    
C10   C23   S    
C55   H31   S    
C33   C38   A    
C13   C17   D    
C59   H33   S    
C25   O20   A    
C20   O7    A    
C1    O26   A    
Cr4   O2    S    
C6    H9    S    
Cr2   O19   S    
Cr5   O14   S    
C57   H28   S    
C38   H23   S    
Cr3   O18   S    
C2    C25   S    
C58   H38   S    
C42   C47   A    
C37   C41   A    
C54   H24   S    
C11   C16   D    
Cr1   O21   S    
C11   H21   S    
C40   C44   A    
Cr5   O9    S    
Cr6   O19   S    
Cr5   O17   S    
C31   C45   A    
Cr6   O16   S    
C14   C15   S    
C35   C63   A    
C21   O8    A    
Cr4   O7    S    
C32   C56   A    
Cr2   O12   S    
C29   C52   A    
