data_mof_unit_4714.cif
_audit_creation_date              2013-03-05T16:03:40-0500
_audit_creation_method            fapswitch 2.2
_symmetry_space_group_name_H-M    P1
_symmetry_Int_Tables_number       1
_space_group_crystal_system       triclinic
_cell_length_a                    25.681244
_cell_length_b                    7.264336
_cell_length_c                    23.199987
_cell_angle_alpha                 90.002345
_cell_angle_beta                  104.110916
_cell_angle_gamma                 90.002173
_cell_volume                      4197.52564356

loop_
_atom_site_label
_atom_site_type_symbol
_atom_site_description
_atom_site_fract_x
_atom_site_fract_y
_atom_site_fract_z
_atom_type_partial_charge
O1    O     O_R   0.438720 0.630760 0.439780 -0.567284
O2    O     O_R   0.061280 0.869240 0.060220 -0.569041
O3    O     O_R   0.561280 0.130760 0.560220 -0.568976
O4    O     O_R   0.938720 0.369240 0.939780 -0.567020
O5    O     O_R   0.546410 0.956760 0.446260 -0.596638
O6    O     O_R   0.953590 0.543240 0.053740 -0.576313
O7    O     O_R   0.453590 0.456760 0.553740 -0.576204
O8    O     O_R   0.046410 0.043240 0.946260 -0.596670
C1    C     C_R   0.562809 0.791783 0.434472 0.988178
C2    C     C_R   0.937214 0.708213 0.065560 0.989625
C3    C     C_R   0.437213 0.291788 0.565558 0.989089
C4    C     C_R   0.062809 0.208217 0.934471 0.988285
O9    O     O_R   0.438220 0.960230 0.432810 -0.586076
O10   O     O_R   0.061780 0.539770 0.067190 -0.559776
O11   O     O_R   0.561780 0.460230 0.567190 -0.559810
O12   O     O_R   0.938220 0.039770 0.932810 -0.585962
O13   O     O_R   0.452310 0.134250 0.546660 -0.600895
O14   O     O_R   0.047690 0.365750 0.953340 -0.592050
O15   O     O_R   0.547690 0.634250 0.453340 -0.592064
O16   O     O_R   0.952310 0.865750 0.046660 -0.600906
C5    C     C_R   0.418299 0.792060 0.417441 0.982834
C6    C     C_R   0.081472 0.707792 0.082837 0.946391
C7    C     C_R   0.581464 0.292213 0.582842 0.946376
C8    C     C_R   0.918296 0.207931 0.917432 0.982420
O17   O     O_3   0.504750 0.798450 0.537370 -0.277785
O18   O     O_3   0.995250 0.701550 0.962630 -0.295627
O19   O     O_3   0.495250 0.298450 0.462630 -0.295769
O20   O     O_3   0.004750 0.201550 0.037370 -0.277888
V1    V     V_3+5 0.499120 0.071860 0.493070 1.209516
V2    V     V_3+5 0.000880 0.428140 0.006930 1.239550
V3    V     V_3+5 0.500880 0.571860 0.506930 1.239475
V4    V     V_3+5 0.999120 0.928140 0.993070 1.209687
C9    C     C_R   0.721965 0.377063 0.680943 -0.267987
C10   C     C_R   0.781876 0.354671 0.820940 -0.299979
C11   C     C_R   0.281624 0.646140 0.321380 -0.300348
C12   C     C_R   0.221908 0.622581 0.181084 -0.267678
H1    H     H_    0.756039 0.466656 0.682463 0.162255
H2    H     H_    0.750558 0.454137 0.821417 0.175916
H3    H     H_    0.250162 0.547449 0.322090 0.176190
H4    H     H_    0.255977 0.532953 0.182630 0.162174
C13   C     C_R   0.675332 0.399384 0.635103 0.375599
C14   C     C_R   0.827321 0.347943 0.869036 0.382955
C15   C     C_R   0.327112 0.653011 0.369429 0.382861
C16   C     C_R   0.175317 0.600468 0.135167 0.375337
C17   C     C_R   0.630749 0.282256 0.632251 -0.309343
C18   C     C_R   0.868085 0.216249 0.869038 -0.309915
C19   C     C_R   0.368062 0.783702 0.369102 -0.309183
C20   C     C_R   0.130751 0.717736 0.132266 -0.308956
C21   C     C_R   0.634087 0.146826 0.676280 -0.178931
C22   C     C_R   0.861239 0.092322 0.821180 -0.211088
C23   C     C_R   0.361378 0.906506 0.320977 -0.213361
C24   C     C_R   0.134088 0.853190 0.176295 -0.180366
H5    H     H_    0.599795 0.058381 0.674829 0.148100
H6    H     H_    0.892212 0.991365 0.820704 0.150827
H7    H     H_    0.392513 0.006620 0.320248 0.150292
H8    H     H_    0.099837 0.941879 0.174791 0.148309
C25   C     C_R   0.680433 0.126067 0.722971 0.225696
C26   C     C_R   0.815584 0.098763 0.773072 0.263283
C27   C     C_R   0.315683 0.899922 0.272921 0.264001
C28   C     C_R   0.180379 0.873636 0.223077 0.225834
C29   C     C_R   0.725087 0.242727 0.725057 0.008083
C30   C     C_R   0.775119 0.230714 0.773394 0.003595
C31   C     C_R   0.275030 0.768978 0.273559 0.004035
C32   C     C_R   0.225002 0.756819 0.225224 0.008241
C33   C     C_R   0.135352 0.373977 0.899602 -0.193397
C34   C     C_R   0.364890 0.125757 0.600758 -0.218964
C35   C     C_R   0.864896 0.874236 0.100768 -0.219066
C36   C     C_R   0.635352 0.626027 0.399605 -0.193332
H9    H     H_    0.132160 0.486073 0.929351 0.190643
H10   H     H_    0.368168 0.013343 0.571159 0.191596
H11   H     H_    0.868173 0.986643 0.071167 0.191333
H12   H     H_    0.632158 0.513936 0.429352 0.190698
C37   C     C_R   0.174613 0.383480 0.866593 0.362125
C38   C     C_R   0.325670 0.116285 0.633824 0.361492
C39   C     C_R   0.825680 0.883706 0.133837 0.361522
C40   C     C_R   0.674615 0.616526 0.366598 0.362122
C41   C     C_R   0.179504 0.236624 0.827872 -0.078203
C42   C     C_R   0.320707 0.263437 0.672411 -0.074231
C43   C     C_R   0.820718 0.736564 0.172425 -0.074254
C44   C     C_R   0.679509 0.763374 0.327879 -0.078202
C45   C     C_R   0.146569 0.080791 0.825907 -0.065174
C46   C     C_R   0.353494 0.419549 0.674139 -0.072817
C47   C     C_R   0.853505 0.580463 0.174152 -0.072711
C48   C     C_R   0.646574 0.919199 0.325912 -0.065208
H13   H     H_    0.149417 0.966595 0.796804 0.155937
H14   H     H_    0.350591 0.533976 0.703133 0.155746
H15   H     H_    0.850604 0.466045 0.203147 0.155778
H16   H     H_    0.649425 0.033388 0.296810 0.155932
C49   C     C_R   0.108895 0.070886 0.860392 -0.113661
C50   C     C_R   0.391077 0.429485 0.639541 -0.080799
C51   C     C_R   0.891086 0.570529 0.139550 -0.081280
C52   C     C_R   0.608899 0.929104 0.360396 -0.113669
H17   H     H_    0.084275 0.948593 0.857561 0.140014
H18   H     H_    0.415555 0.552057 0.642163 0.137920
H19   H     H_    0.915563 0.447965 0.142172 0.137916
H20   H     H_    0.584280 0.051392 0.357564 0.140024
C53   C     C_R   0.102401 0.218133 0.897169 -0.202999
C54   C     C_R   0.397676 0.281916 0.602934 -0.182370
C55   C     C_R   0.897681 0.718086 0.102941 -0.182384
C56   C     C_R   0.602402 0.781866 0.397171 -0.203014
N1    N     N_R   0.240504 0.088576 0.773960 -0.035297
N2    N     N_R   0.259780 0.411560 0.726414 -0.034940
N3    N     N_R   0.759789 0.588436 0.226425 -0.034957
N4    N     N_R   0.740513 0.911424 0.273973 -0.035284
N5    N     N_R   0.273319 0.094421 0.737418 -0.032171
N6    N     N_R   0.226968 0.405721 0.762962 -0.032262
N7    N     N_R   0.726976 0.594274 0.262971 -0.032276
N8    N     N_R   0.773331 0.905580 0.237433 -0.032139
C57   C     C_R   0.283435 0.255833 0.712553 0.193616
C58   C     C_R   0.216838 0.244292 0.787809 0.193157
C59   C     C_R   0.716846 0.755706 0.287818 0.193147
C60   C     C_R   0.783447 0.744165 0.212567 0.193604
N9    N     N_R   0.674991 0.536559 0.590669 0.223492
O21   O     O_R   0.647399 0.686819 0.590461 -0.399735
O22   O     O_R   0.711387 0.531484 0.560311 -0.372780
N10   N     N_R   0.829884 0.469389 0.918562 0.238733
O23   O     O_R   0.842738 0.405399 0.972577 -0.375881
O24   O     O_R   0.811233 0.636270 0.909587 -0.399614
N11   N     N_R   0.329562 0.532738 0.419217 0.238679
O25   O     O_R   0.342798 0.597582 0.473116 -0.375998
O26   O     O_R   0.310518 0.366260 0.410624 -0.398695
N12   N     N_R   0.175033 0.463529 0.090671 0.223525
O27   O     O_R   0.147333 0.313410 0.090241 -0.399930
O28   O     O_R   0.211563 0.468584 0.060488 -0.372742
C61   C     C_3   0.679831 0.983915 0.770671 -0.383250
C62   C     C_3   0.677999 0.787714 0.746523 -0.819131
H21   H     H_    0.641329 0.765439 0.710349 0.269806
H22   H     H_    0.713935 0.759367 0.729460 0.252076
H23   H     H_    0.677388 0.688502 0.782737 0.250014
H24   H     H_    0.715376 0.996090 0.808820 0.220589
H25   H     H_    0.643989 0.007505 0.788563 0.199122
C63   C     C_3   0.811917 0.965079 0.722149 -0.403531
C64   C     C_3   0.851965 0.014613 0.685656 -0.797787
H26   H     H_    0.844087 0.156182 0.667487 0.267117
H27   H     H_    0.893784 0.006338 0.713336 0.240253
H28   H     H_    0.847665 0.916756 0.648015 0.271084
H29   H     H_    0.820055 0.823218 0.740060 0.196045
H30   H     H_    0.771308 0.963382 0.691650 0.225112
C65   C     C_3   0.312197 0.032220 0.221681 -0.404152
C66   C     C_3   0.351850 0.979667 0.185022 -0.796627
H31   H     H_    0.393765 0.986604 0.212509 0.240287
H32   H     H_    0.343386 0.837997 0.167122 0.266933
H33   H     H_    0.347749 0.076678 0.147190 0.271064
H34   H     H_    0.271489 0.034918 0.191398 0.225270
H35   H     H_    0.320880 0.174243 0.239261 0.195634
C67   C     C_3   0.179744 0.015676 0.270795 -0.382540
C68   C     C_3   0.178735 0.211940 0.246889 -0.819855
H36   H     H_    0.215360 0.239815 0.231055 0.251422
H37   H     H_    0.142746 0.234834 0.209885 0.270702
H38   H     H_    0.177375 0.311045 0.282908 0.250269
H39   H     H_    0.143566 0.993293 0.288188 0.198780
H40   H     H_    0.214966 0.002135 0.309258 0.220533
N13   N     N_R   0.210897 0.537462 0.875763 0.240360
O29   O     O_R   0.262081 0.510778 0.882009 -0.354129
O30   O     O_R   0.194634 0.698409 0.888715 -0.398214
N14   N     N_R   0.289478 0.962045 0.624812 0.236979
O31   O     O_R   0.238285 0.988443 0.618592 -0.358623
O32   O     O_R   0.305798 0.801182 0.611861 -0.385471
N15   N     N_R   0.789488 0.037934 0.124827 0.236946
O33   O     O_R   0.738295 0.011520 0.118607 -0.358728
O34   O     O_R   0.805808 0.198801 0.111880 -0.385910
N16   N     N_R   0.710898 0.462554 0.375770 0.240373
O35   O     O_R   0.762082 0.489252 0.382018 -0.354082
O36   O     O_R   0.694634 0.301608 0.388721 -0.398174

loop_
_geom_bond_atom_site_label_1
_geom_bond_atom_site_label_2
_geom_bond_distance
_ccdc_geom_bond_type
O17   V3    1.784285 S    
C6    C20   1.488018 S    
C26   C30   1.415146 A    
C62   H21   1.109945 S    
C7    C17   1.487885 S    
O19   V1    1.784346 S    
O13   V1    1.981182 S    
O3    C7    1.336775 A    
C68   H36   1.108656 S    
C10   C14   1.405183 A    
C66   H33   1.110425 S    
C52   H20   1.083043 S    
C44   C48   1.407151 A    
O15   V3    1.981181 S    
C21   C25   1.408595 A    
C34   H10   1.083354 S    
O1    C5    1.335735 A    
C22   H6    1.083976 S    
C43   C60   1.490371 S    
C3    C54   1.489066 S    
O9    V1    1.997953 S    
N14   O31   1.301365 A    
C68   H37   1.109953 S    
C66   H32   1.111201 S    
N9    O21   1.300745 A    
C25   C61   1.516476 S    
C11   H3    1.083291 S    
O4    C8    1.335794 A    
C33   H9    1.083375 S    
C63   H30   1.108431 S    
C34   C38   1.408692 A    
O1    V3    1.986421 S    
C33   C37   1.408672 A    
N10   O23   1.301449 A    
O2    V4    1.986421 S    
C23   H7    1.084000 S    
C14   C18   1.418174 A    
C16   N12   1.432315 S    
O3    V1    1.986366 S    
C42   C46   1.407161 A    
O12   V4    1.998048 S    
C24   C28   1.408587 A    
C40   N16   1.438043 S    
C61   H24   1.109274 S    
C1    O15   1.317135 A    
C3    O13   1.317227 A    
N13   O29   1.301359 A    
C26   C63   1.514370 S    
C63   C64   1.525975 S    
O2    C6    1.336834 A    
C64   H28   1.110429 S    
N15   O34   1.301100 A    
O14   V2    1.981180 S    
C27   C65   1.514283 S    
N13   O30   1.301108 A    
C11   C15   1.405286 A    
O5    V1    1.999123 S    
C36   H12   1.083377 S    
C45   C49   1.399570 A    
O11   C7    1.337035 A    
O12   C8    1.338814 A    
C2    C55   1.489071 S    
C28   C67   1.516323 S    
O10   V2    1.997953 S    
O16   V4    1.981183 S    
C50   H18   1.083036 S    
N16   O36   1.301110 A    
N11   O26   1.301482 A    
N1    N5    1.333840 A    
O7    V3    1.999126 S    
C67   C68   1.527756 S    
O9    C5    1.338749 A    
O8    V4    1.999125 S    
C48   H16   1.083248 S    
C12   H4    1.084182 S    
C68   H38   1.109965 S    
C66   H31   1.110497 S    
C2    O16   1.317233 A    
O18   V4    1.784286 S    
C19   C23   1.406605 A    
C62   H23   1.109968 S    
C63   H29   1.111773 S    
C46   H14   1.083232 S    
C9    H1    1.084177 S    
C31   C32   1.487753 S    
C49   C53   1.403299 A    
N3    C60   1.359221 A    
C22   C26   1.408736 A    
O7    C3    1.320788 A    
C36   C56   1.406267 A    
O5    C1    1.320836 A    
C65   H34   1.108510 S    
C61   H25   1.111393 S    
N15   O33   1.301366 A    
C17   C21   1.405699 A    
O8    C4    1.320829 A    
C4    O14   1.317131 A    
C38   N14   1.438111 S    
N11   O25   1.301453 A    
O11   V3    1.998046 S    
C4    C53   1.488970 S    
C67   H40   1.109320 S    
C14   N10   1.437333 S    
O6    V2    1.999126 S    
C1    C56   1.488969 S    
C64   H26   1.111172 S    
C12   C16   1.403827 A    
C35   C39   1.408690 A    
N12   O28   1.300796 A    
C10   C30   1.401522 A    
N4    N8    1.333836 A    
C52   C56   1.403297 A    
N16   O35   1.301360 A    
N6    C58   1.359512 A    
C39   N15   1.438104 S    
N5    C57   1.359512 A    
C65   H35   1.111794 S    
C62   H22   1.108590 S    
C10   H2    1.083272 S    
N7    C59   1.359514 A    
C40   C44   1.419789 A    
C13   N9    1.432277 S    
C47   H15   1.083234 S    
O6    C2    1.320795 A    
N4    C59   1.359183 A    
N3    N7    1.333865 A    
C65   C66   1.525908 S    
C25   C29   1.417212 A    
C35   C55   1.406242 A    
C36   C40   1.408672 A    
C47   C51   1.399597 A    
C18   C22   1.406716 A    
C27   C31   1.415084 A    
C46   C50   1.399596 A    
C28   C32   1.417067 A    
C9    C13   1.403755 A    
O10   C6    1.337055 A    
N14   O32   1.301100 A    
N1    C58   1.359182 A    
C33   C53   1.406269 A    
C16   C20   1.415156 A    
C43   C47   1.407157 A    
C34   C54   1.406246 A    
C61   C62   1.527921 S    
N9    O22   1.300789 A    
C15   C19   1.418152 A    
C21   H5    1.083974 S    
C44   C59   1.490244 S    
O20   V2    1.784347 S    
N10   O24   1.301478 A    
N2    N6    1.333865 A    
C42   C57   1.490377 S    
C35   H11   1.083358 S    
C49   H17   1.083047 S    
C29   C30   1.487804 S    
O4    V2    1.986367 S    
C51   H19   1.083030 S    
C67   H39   1.111433 S    
N8    C60   1.359514 A    
C20   C24   1.405772 A    
C23   C27   1.408711 A    
C37   C41   1.419790 A    
C9    C29   1.402226 A    
C41   C45   1.407156 A    
C38   C42   1.419823 A    
C37   N13   1.438049 S    
C64   H27   1.110471 S    
C13   C17   1.415014 A    
N2    C57   1.359220 A    
C11   C31   1.401543 A    
C48   C52   1.399571 A    
C51   C55   1.403294 A    
N12   O27   1.300724 A    
C12   C32   1.402202 A    
C39   C43   1.419822 A    
C41   C58   1.490248 S    
C50   C54   1.403296 A    
C45   H13   1.083246 S    
C24   H8    1.084036 S    
C15   N11   1.437419 S    
C8    C18   1.490310 S    
C5    C19   1.490068 S    
