data_mof_unit_4074.cif
_audit_creation_date              2012-12-10T17:43:36-0500
_audit_creation_method            fapswitch 2.2
_symmetry_space_group_name_H-M    P1
_symmetry_Int_Tables_number       1
_space_group_crystal_system       triclinic
_cell_length_a                    14.8643
_cell_length_b                    10.643083
_cell_length_c                    10.061671
_cell_angle_alpha                 91.289126
_cell_angle_beta                  89.710636
_cell_angle_gamma                 90.143389
_cell_volume                      1591.34853901

loop_
_atom_site_label
_atom_site_type_symbol
_atom_type_description
_atom_site_fract_x
_atom_site_fract_y
_atom_site_fract_z
_atom_type_partial_charge
C1    C     C_R   0.515069 0.262608 0.498191 0.960651
C2    C     C_R   0.905882 0.616604 0.515618 0.141659
C3    C     C_R   0.949114 0.284667 0.603806 -0.120039
C4    C     C_R   0.043242 0.287888 0.616124 -0.057143
C5    C     C_R   0.092011 0.389519 0.562114 -0.023134
C6    C     C_R   0.046199 0.503568 0.539816 0.066537
C7    C     C_R   0.093764 0.615707 0.513183 0.081546
C8    C     C_R   0.046534 0.730251 0.498932 -0.146326
C9    C     C_R   0.952644 0.729139 0.501437 -0.273640
C10   C     C_R   0.184476 0.381947 0.530922 -0.095193
C11   C     C_R   0.230853 0.494542 0.505075 -0.148389
C12   C     C_R   0.327230 0.498571 0.500598 0.941867
C13   C     C_R   0.186782 0.609045 0.498134 -0.234011
C14   C     C_R   0.611890 0.139523 0.718049 -0.004460
C15   C     C_R   0.639881 0.079185 0.831639 -0.046085
C16   C     C_R   0.632236 0.949814 0.838769 -0.110556
C17   C     C_R   0.597293 0.880430 0.731870 -0.160952
C18   C     C_R   0.564963 0.939757 0.616662 0.072969
C19   C     C_R   0.571633 0.071761 0.610849 0.065614
C20   C     C_R   0.543806 0.131577 0.493498 -0.167729
C21   C     C_R   0.538276 0.060672 0.373425 -0.066277
C22   C     C_R   0.524054 0.933363 0.382001 -0.229037
C23   C     C_R   0.508170 0.739936 0.501750 0.875712
C24   C     C_R   0.530022 0.873240 0.503711 -0.125766
C25   C     C_R   0.337304 0.446940 0.129737 -0.022499
C26   C     C_R   0.260950 0.485299 0.059180 -0.220543
C27   C     C_R   0.263855 0.469543 0.920988 -0.216131
C28   C     C_R   0.345325 0.429370 0.863915 -0.013947
C29   C     C_R   0.423094 0.472140 0.927888 0.098264
C30   C     C_R   0.421889 0.473561 0.070351 0.089301
C31   C     C_R   0.574581 0.530577 0.072121 -0.063830
C32   C     C_R   0.576271 0.522243 0.930199 -0.101783
C33   C     C_R   0.672621 0.499681 0.499602 0.838574
C34   C     C_R   0.812897 0.614582 0.507001 -0.256205
C35   C     C_R   0.768554 0.499560 0.500808 -0.056844
C36   C     C_R   0.814615 0.385773 0.511351 -0.052533
C37   C     C_R   0.904869 0.389607 0.550916 -0.032355
C38   C     C_R   0.952333 0.503842 0.538158 0.069351
H1    H     H_    0.915725 0.815949 0.489709 0.181153
N1    N     N_R   0.499150 0.498800 0.142780 -0.137509
N2    N     N_R   0.499120 0.498720 0.857170 -0.149845
O1    O     O_R   0.500000 0.316780 0.614690 -0.610131
O2    O     O_R   0.499990 0.316750 0.385360 -0.548798
O3    O     O_R   0.367850 0.499980 0.614680 -0.615237
O4    O     O_R   0.367840 0.499960 0.385350 -0.633712
O5    O     O_R   0.500010 0.683250 0.614640 -0.636239
O6    O     O_R   0.500000 0.683220 0.385310 -0.591970
O7    O     O_R   0.632160 0.500040 0.614650 -0.633196
O8    O     O_R   0.632150 0.500020 0.385320 -0.591283
Zn1   Zn    Zn3+2 0.500010 0.500020 0.653130 0.989711
Zn2   Zn    Zn3+2 0.499990 0.499980 0.346870 1.035548
H2    H     H_    0.775263 0.701284 0.498264 0.136979
H3    H     H_    0.627368 0.238330 0.712420 0.207385
H4    H     H_    0.670630 0.132523 0.912276 0.183060
H5    H     H_    0.656600 0.902363 0.925562 0.194117
H6    H     H_    0.601293 0.780654 0.740414 0.217051
H7    H     H_    0.510054 0.880532 0.291114 0.230459
C39   C     C_2   0.653676 0.582842 0.142021 1.007577
O9    O     O_2   0.724804 0.525236 0.140686 -0.569727
O10   O     O_R   0.647411 0.700100 0.206570 -0.800957
H8    H     H_    0.705933 0.726865 0.250229 0.328996
C40   C     C_2   0.324109 0.321080 0.187517 0.958290
O11   O     O_2   0.387986 0.251623 0.202773 -0.578418
O12   O     O_R   0.236986 0.274908 0.207116 -0.800800
H9    H     H_    0.236269 0.180969 0.221124 0.366453
H10   H     H_    0.195478 0.487682 0.107024 0.216512
H11   H     H_    0.201375 0.459353 0.867028 0.225084
C41   C     C_2   0.347594 0.297072 0.814345 0.999854
O13   O     O_2   0.279358 0.246716 0.772714 -0.628643
O14   O     O_R   0.425059 0.224769 0.830494 -0.773880
H12   H     H_    0.416625 0.134259 0.799316 0.361994
C42   C     C_2   0.780826 0.274338 0.435960 0.910878
O15   O     O_2   0.784289 0.274358 0.314572 -0.521769
O16   O     O_R   0.747891 0.169367 0.500718 -0.824021
H13   H     H_    0.732916 0.097462 0.436761 0.345956
C43   C     C_2   0.665437 0.526450 0.866475 0.998133
O17   O     O_2   0.704812 0.428028 0.841012 -0.578099
O18   O     O_R   0.708572 0.641469 0.848013 -0.846624
H14   H     H_    0.770711 0.631322 0.807232 0.354848
C44   C     C_2   0.897202 0.182372 0.666955 0.990645
O19   O     O_2   0.836501 0.208326 0.745274 -0.571283
O20   O     O_R   0.918188 0.056818 0.637547 -0.760337
H15   H     H_    0.877900 0.996046 0.686407 0.343412
C45   C     C_2   0.085282 0.208527 0.717641 0.988311
O21   O     O_2   0.101694 0.098033 0.693497 -0.487487
O22   O     O_R   0.098968 0.259148 0.845260 -0.795996
H16   H     H_    0.124191 0.195568 0.908629 0.377131
C46   C     C_2   0.227506 0.257464 0.500345 0.987850
O23   O     O_2   0.308957 0.244041 0.507250 -0.628851
O24   O     O_R   0.174872 0.156769 0.454764 -0.707092
H17   H     H_    0.212357 0.079628 0.432565 0.381512
H18   H     H_    0.226354 0.691514 0.476081 0.166922
C47   C     C_2   0.092464 0.852897 0.482537 1.009505
O25   O     O_2   0.155386 0.881659 0.554566 -0.542631
O26   O     O_R   0.063320 0.938445 0.388489 -0.718504
H19   H     H_    0.014425 0.903659 0.328238 0.311100
C48   C     C_2   0.552994 0.112461 0.238424 1.018175
O27   O     O_2   0.516925 0.062969 0.141422 -0.601154
O28   O     O_R   0.612081 0.213127 0.220696 -0.748613
H20   H     H_    0.616036 0.239804 0.124751 0.351567

loop_
_geom_bond_atom_site_label_1
_geom_bond_atom_site_label_2
_ccdc_geom_bond_type
C8    C9    A    
C47   O25   D    
O26   H19   S    
C22   H7    S    
C48   O27   D    
C7    C8    A    
C10   C46   S    
C26   C27   A    
C29   C30   A    
C18   C24   A    
C31   C39   S    
C36   C37   A    
C28   C41   S    
C45   O22   S    
C18   C19   A    
C5    C6    A    
C44   O19   D    
O4    Zn2   S    
C33   O8    A    
C15   C16   A    
C9    H1    S    
C31   N1    A    
C34   C35   A    
C40   O12   S    
C1    O2    A    
C31   C32   A    
C41   O13   D    
O8    Zn2   S    
C23   C24   S    
C6    C38   A    
O14   H12   S    
C2    C34   A    
O7    Zn1   S    
C47   O26   S    
C23   O5    A    
C21   C22   A    
C3    C44   S    
C48   O28   S    
C23   O6    A    
O16   H13   S    
C26   H10   S    
C15   H4    S    
C45   O21   D    
C44   O20   S    
O22   H16   S    
C42   O15   D    
O6    Zn2   S    
C39   O9    D    
O10   H8    S    
C35   C36   A    
C37   C38   A    
C21   C48   S    
C2    C38   A    
O28   H20   S    
C4    C45   S    
C7    C13   A    
C32   N2    A    
C20   C21   A    
C40   O11   D    
C17   C18   A    
C30   N1    A    
C43   O17   D    
C17   H6    S    
O1    Zn1   S    
C42   O16   S    
C46   O24   S    
C13   H18   S    
C22   C24   A    
C3    C4    A    
N2    Zn1   S    
O3    Zn1   S    
C25   C30   A    
C28   C29   A    
C1    C20   S    
C29   N2    A    
O18   H14   S    
C14   C19   A    
C8    C47   S    
C43   O18   S    
C12   O4    A    
C32   C43   S    
C11   C12   S    
C6    C7    A    
N1    Zn2   S    
O5    Zn1   S    
C34   H2    S    
O12   H9    S    
C19   C20   A    
C25   C26   A    
C16   H5    S    
C5    C10   A    
C12   O3    A    
C11   C13   A    
O2    Zn2   S    
O24   H17   S    
C16   C17   A    
C33   C35   S    
C25   C40   S    
C27   H11   S    
C10   C11   A    
C1    O1    A    
C4    C5    A    
C14   H3    S    
C46   O23   D    
C3    C37   A    
C41   O14   S    
O20   H15   S    
C27   C28   A    
C33   O7    A    
C14   C15   A    
C2    C9    A    
C39   O10   S    
C36   C42   S    
