data_mof_unit_4597.cif
_audit_creation_date              2012-12-10T17:05:23-0500
_audit_creation_method            fapswitch 2.2
_symmetry_space_group_name_H-M    P1
_symmetry_Int_Tables_number       1
_space_group_crystal_system       triclinic
_cell_length_a                    10.050105
_cell_length_b                    10.740104
_cell_length_c                    15.540293
_cell_angle_alpha                 90.063724
_cell_angle_beta                  67.952995
_cell_angle_gamma                 89.838758
_cell_volume                      1554.73766392

loop_
_atom_site_label
_atom_site_type_symbol
_atom_type_description
_atom_site_fract_x
_atom_site_fract_y
_atom_site_fract_z
_atom_type_partial_charge
C1    C     C_R   0.501796 0.737200 0.496839 0.931814
C2    C     C_R   0.742092 0.509908 0.027759 0.151066
C3    C     C_R   0.598358 0.540410 0.082162 0.094930
C4    C     C_R   0.410284 0.500807 0.675702 0.872848
C5    C     C_R   0.842837 0.499004 0.069519 -0.251373
C6    C     C_R   0.800554 0.510306 0.166082 0.099164
C7    C     C_R   0.553414 0.535331 0.178574 -0.306212
C8    C     C_2   0.619614 0.066937 0.484827 -0.160333
C9    C     C_2   0.497142 0.130902 0.506754 -0.332573
C10   C     C_2   0.618265 0.932877 0.489935 -0.159076
C11   C     C_2   0.508059 0.868426 0.484913 -0.341446
C12   C     C_R   0.431220 0.544179 0.906145 0.097078
C13   C     C_2   0.104245 0.424584 0.449692 -0.124697
C14   C     C_2   0.952024 0.419888 0.453861 -0.151634
C15   C     C_R   0.499651 0.262719 0.501068 0.933520
C16   C     C_R   0.590910 0.504161 0.323790 0.855186
C17   C     C_R   0.357005 0.518922 0.775819 -0.056351
C18   C     C_R   0.651061 0.515718 0.221685 -0.094395
C19   C     C_R   0.198983 0.624516 0.913777 -0.228089
C20   C     C_R   0.228183 0.582052 0.823641 -0.204877
C21   C     C_R   0.451989 0.493205 0.819603 -0.255931
C22   C     C_3   0.917170 0.527048 0.204800 -0.397599
C23   C     C_R   0.300352 0.607137 0.955007 0.174565
C24   C     C_3   0.916273 0.662234 0.238327 -0.292389
C25   C     C_3   0.019423 0.680463 0.288477 -0.876222
C26   C     C_R   0.537960 0.535302 0.944753 0.068147
C27   C     C_R   0.501060 0.567888 0.038912 0.077191
C28   C     C_R   0.371489 0.632544 0.085776 -0.240834
C29   C     C_R   0.274589 0.654747 0.043132 -0.252727
C30   C     C_R   0.681754 0.500714 0.891677 -0.228963
C31   C     C_R   0.783420 0.492925 0.932318 -0.233021
H1    H     H_    0.954968 0.484763 0.026508 0.145017
H2    H     H_    0.099875 0.674717 0.949927 0.141782
H3    H     H_    0.153918 0.603473 0.790101 0.154772
H4    H     H_    0.544803 0.436167 0.783174 0.152427
H5    H     H_    0.347994 0.673283 0.153485 0.151900
H6    H     H_    0.720499 0.486123 0.817599 0.149676
H7    H     H_    0.179349 0.709137 0.079137 0.161278
H8    H     H_    0.722827 0.113231 0.465023 0.166102
H9    H     H_    0.878564 0.571279 0.532654 0.160149
H10   H     H_    0.967261 0.651663 0.361801 0.272854
H11   H     H_    0.118733 0.624830 0.255667 0.257681
H12   H     H_    0.392109 0.087851 0.531400 0.149703
H13   H     H_    0.048096 0.780384 0.287274 0.237727
H14   H     H_    0.946591 0.725425 0.177527 0.195280
H15   H     H_    0.807321 0.691441 0.285787 0.230917
H16   H     H_    0.906983 0.458080 0.259888 0.221967
H17   H     H_    0.024502 0.508279 0.150159 0.187605
H18   H     H_    0.709262 0.887434 0.498479 0.173180
H19   H     H_    0.421486 0.910920 0.469610 0.151405
H20   H     H_    0.180768 0.359832 0.403151 0.161613
H21   H     H_    0.075006 0.555821 0.546484 0.157801
H22   H     H_    0.925652 0.347021 0.414600 0.152888
H23   H     H_    0.440296 0.542343 0.220814 0.170317
H24   H     H_    0.893709 0.470401 0.889356 0.150688
N1    N     N_2   0.148330 0.498670 0.499030 -0.191190
N2    N     N_2   0.852680 0.498640 0.499000 -0.197111
O1    O     O_R   0.386950 0.680940 0.500010 -0.616029
O2    O     O_R   0.613110 0.680900 0.499990 -0.615977
O3    O     O_R   0.322330 0.500030 0.632270 -0.614640
O4    O     O_R   0.548480 0.499990 0.632240 -0.606806
O5    O     O_R   0.386890 0.319100 0.500010 -0.611494
O6    O     O_R   0.613050 0.319060 0.499990 -0.609714
O7    O     O_R   0.451520 0.500010 0.367760 -0.609026
O8    O     O_R   0.677670 0.499970 0.367730 -0.612138
Zn1   Zn    Zn3+2 0.349000 0.500030 0.500020 0.935022
Zn2   Zn    Zn3+2 0.651000 0.499970 0.499980 0.927607

loop_
_geom_bond_atom_site_label_1
_geom_bond_atom_site_label_2
_ccdc_geom_bond_type
C29   H7    S    
C25   H11   S    
C22   H17   S    
C21   H4    S    
C8    H8    S    
C2    C3    A    
O4    Zn2   S    
C19   C23   A    
C19   C20   A    
C1    C11   S    
C7    C18   A    
C20   H3    S    
C4    O3    A    
C22   C24   S    
C3    C27   A    
C22   H16   S    
C9    C15   S    
O3    Zn1   S    
C11   H19   S    
C13   H20   S    
C13   C14   S    
C14   H22   S    
C12   C23   A    
C26   C27   A    
C5    C6    A    
C12   C21   A    
N2    Zn2   S    
N1    Zn1   S    
C4    C17   S    
C23   C29   A    
C25   H13   S    
C8    C10   S    
C28   C29   A    
C16   O8    A    
C15   O5    A    
C26   C30   A    
C3    C7    A    
C1    O2    A    
C30   C31   A    
C6    C18   A    
O6    Zn2   S    
C9    H12   S    
C2    C5    A    
C10   C11   D    
C24   H14   S    
C13   N1    D    
C6    C22   S    
C17   C20   A    
O2    Zn2   S    
C24   C25   S    
C28   H5    S    
C8    C9    D    
C16   C18   S    
C19   H2    S    
C25   H10   S    
C27   C28   A    
C14   N2    D    
O5    Zn1   S    
C2    C31   A    
C15   O6    A    
H9    N2    S    
C16   O7    A    
C7    H23   S    
C31   H24   S    
C1    O1    A    
C10   H18   S    
C4    O4    A    
O1    Zn1   S    
C5    H1    S    
C17   C21   A    
H21   N1    S    
C30   H6    S    
C12   C26   A    
C24   H15   S    
O8    Zn2   S    
O7    Zn1   S    
