data_mof_unit_975.cif
_audit_creation_date              2012-12-11T15:23:42-0500
_audit_creation_method            fapswitch 2.2
_symmetry_space_group_name_H-M    P1
_symmetry_Int_Tables_number       1
_space_group_crystal_system       triclinic
_cell_length_a                    6.952015
_cell_length_b                    17.481155
_cell_length_c                    19.33996
_cell_angle_alpha                 109.447593
_cell_angle_beta                  90.526353
_cell_angle_gamma                 90.723349
_cell_volume                      2215.87371016

loop_
_atom_site_label
_atom_site_type_symbol
_atom_type_description
_atom_site_fract_x
_atom_site_fract_y
_atom_site_fract_z
_atom_type_partial_charge
O1    O     O_R   0.505810 0.439670 0.562310 -0.542205
O2    O     O_R   0.169070 0.404920 0.411210 -0.547243
O3    O     O_R   0.005550 0.560330 0.437690 -0.542477
C1    C     C_R   0.337852 0.381130 0.383391 0.720363
O4    O     O_R   0.175650 0.430000 0.560110 -0.535942
O5    O     O_R   0.012170 0.585580 0.587650 -0.539415
C2    C     C_R   0.344627 0.413962 0.580785 0.713216
O6    O     O_R   0.499180 0.414420 0.412350 -0.526081
O7    O     O_3   0.341430 0.551020 0.508860 -0.374464
V1    V     V_3+5 0.063930 0.490540 0.498360 1.406659
O8    O     O_R   0.682850 0.595080 0.588790 -0.551673
C3    C     C_R   0.853389 0.616965 0.617317 0.731350
O9    O     O_R   0.676280 0.570000 0.439890 -0.532297
C4    C     C_R   0.845105 0.586469 0.419648 0.737328
V2    V     V_3+5 0.564760 0.509460 0.501640 1.415102
O10   O     O_3   0.837130 0.448980 0.491140 -0.369695
C5    C     C_R   0.773245 0.892896 0.193938 0.131075
C6    C     C_R   0.914532 0.874290 0.138343 -0.103521
C7    C     C_R   0.044492 0.811972 0.133080 -0.247343
C8    C     C_R   0.033980 0.765533 0.180038 0.085445
C9    C     C_R   0.884333 0.779829 0.231897 -0.030151
C10   C     C_R   0.751237 0.841943 0.237445 0.055217
C11   C     C_R   0.168156 0.703881 0.175040 0.211420
C12   C     C_R   0.149653 0.656474 0.220654 -0.207580
C13   C     C_R   0.003239 0.670582 0.272452 0.065765
C14   C     C_R   0.869327 0.732512 0.278840 -0.013892
C15   C     C_R   0.722167 0.747356 0.332255 0.084138
C16   C     C_R   0.574766 0.802590 0.330081 0.149590
C17   C     C_R   0.594904 0.850173 0.284786 -0.202597
C18   C     C_R   0.990079 0.622980 0.317764 -0.243265
C19   C     C_R   0.854079 0.639394 0.373466 -0.087504
C20   C     C_R   0.728929 0.705867 0.384791 0.104784
H1    H     H_    0.152959 0.799140 0.091056 0.168755
H2    H     H_    0.252511 0.609107 0.216600 0.121899
H3    H     H_    0.088790 0.573403 0.310452 0.128216
H4    H     H_    0.481056 0.891818 0.284724 0.145663
C21   C     C_3   0.757296 0.807397 0.748487 -0.205364
C22   C     C_3   0.923980 0.773754 0.694807 0.167486
H5    H     H_    0.655031 0.854539 0.745732 0.138018
C23   C     C_3   0.870974 0.685595 0.688367 -0.148391
C24   C     C_3   0.709207 0.718720 0.743132 0.195636
C25   C     C_3   0.846239 0.725272 0.807101 0.197140
C26   C     C_3   0.011079 0.691391 0.753211 0.062342
C27   C     C_3   0.063409 0.779872 0.758598 0.176741
C28   C     C_3   0.899673 0.812950 0.812959 -0.127142
C29   C     C_3   0.483889 0.236909 0.303264 0.211821
C30   C     C_3   0.326634 0.178637 0.257500 -0.124824
H6    H     H_    0.282001 0.120399 0.264348 0.111775
C31   C     C_3   0.416215 0.188670 0.187710 -0.078596
C32   C     C_3   0.576910 0.245376 0.233973 -0.175876
C33   C     C_3   0.442888 0.317627 0.242783 0.215252
C34   C     C_3   0.284374 0.261947 0.195059 -0.172277
C35   C     C_3   0.196052 0.253043 0.265915 -0.193193
C36   C     C_3   0.354674 0.310329 0.312899 -0.038705
H7    H     H_    0.732223 0.243250 0.221120 0.111664
H8    H     H_    0.204225 0.273659 0.149784 0.113783
H9    H     H_    0.041100 0.255840 0.279418 0.121323
C37   C     C_R   0.259063 0.123981 0.820360 -0.204207
C38   C     C_R   0.415781 0.134209 0.868734 -0.088185
C39   C     C_R   0.559723 0.191668 0.869973 -0.207189
C40   C     C_R   0.547945 0.240060 0.824028 0.056314
C41   C     C_R   0.389959 0.227530 0.774220 0.016110
C42   C     C_R   0.246563 0.169256 0.772832 0.075032
C43   C     C_R   0.689231 0.300606 0.827136 0.115221
C44   C     C_R   0.669669 0.348106 0.780564 0.197417
C45   C     C_R   0.514085 0.333772 0.729966 0.060678
C46   C     C_R   0.374724 0.272798 0.725791 -0.080972
C47   C     C_R   0.220805 0.256762 0.673049 0.082642
C48   C     C_R   0.069673 0.202186 0.677236 0.158808
C49   C     C_R   0.088031 0.158250 0.725650 -0.191932
C50   C     C_R   0.495864 0.380235 0.683429 -0.223790
C51   C     C_R   0.353846 0.362588 0.628478 -0.106995
C52   C     C_R   0.225240 0.296244 0.618977 0.120937
H10   H     H_    0.147043 0.079734 0.819044 0.125834
H11   H     H_    0.678224 0.199087 0.908358 0.136403
H12   H     H_    0.595368 0.430104 0.688573 0.166943
H13   H     H_    0.974365 0.116011 0.727800 0.129114
O11   O     O_R   0.271890 0.085690 0.087580 -0.538454
O12   O     O_R   0.595690 0.070020 0.939870 -0.546378
O13   O     O_R   0.758900 0.914390 0.912370 -0.532817
C53   C     C_R   0.426717 0.085113 0.918222 0.710993
O14   O     O_R   0.602020 0.095100 0.088770 -0.546142
O15   O     O_R   0.765280 0.939660 0.062330 -0.528677
C54   C     C_R   0.433326 0.118480 0.116899 0.692134
O16   O     O_R   0.265520 0.060430 0.937620 -0.539055
O17   O     O_3   0.429560 0.949050 0.991100 -0.360293
V3    V     V_3+5 0.707160 0.009450 0.001650 1.420960
O18   O     O_R   0.094540 0.929890 0.060190 -0.548740
C55   C     C_R   0.926154 0.918197 0.084412 0.720586
O19   O     O_R   0.088200 0.904800 0.911290 -0.533761
C56   C     C_R   0.917481 0.882367 0.883205 0.756041
V4    V     V_3+5 0.206300 0.990390 0.998440 1.430058
O20   O     O_3   0.934030 0.050940 0.008900 -0.377936
C57   C     C_3   0.655759 0.969529 0.210594 -0.779045
H14   H     H_    0.510302 0.954567 0.185047 0.206987
H15   H     H_    0.642465 0.999473 0.270717 0.192948
H16   H     H_    0.726238 0.016150 0.191740 0.202011
N1    N     N_3   0.521349 0.680158 0.735861 -0.670798
H17   H     H_    0.463639 0.677573 0.685105 0.237998
H18   H     H_    0.543411 0.620244 0.733343 0.222397
N2    N     N_3   0.796530 0.700347 0.869581 -0.646728
H19   H     H_    0.765894 0.638087 0.849746 0.235460
H20   H     H_    0.919407 0.708658 0.902969 0.221732
C58   C     C_3   0.129877 0.621052 0.758574 -0.764352
H21   H     H_    0.210830 0.593834 0.707459 0.220742
H22   H     H_    0.228168 0.642278 0.806942 0.237928
H23   H     H_    0.032709 0.573062 0.764969 0.201828
N3    N     N_3   0.250570 0.820326 0.767361 -0.666649
H24   H     H_    0.320556 0.799437 0.717245 0.232972
H25   H     H_    0.328998 0.804336 0.806631 0.279580
N4    N     N_3   0.590499 0.222213 0.362663 -0.679600
H26   H     H_    0.662861 0.167655 0.340091 0.221900
H27   H     H_    0.696095 0.267813 0.380943 0.234929
N5    N     N_3   0.505573 0.394035 0.234849 -0.674147
H28   H     H_    0.551163 0.381294 0.180896 0.224423
H29   H     H_    0.384680 0.430544 0.241061 0.211021
C59   C     C_3   0.857991 0.314646 0.880572 -0.788517
H30   H     H_    0.804023 0.333657 0.937564 0.203836
H31   H     H_    0.939847 0.257833 0.869390 0.215383
H32   H     H_    0.962049 0.361855 0.877781 0.214209
N6    N     N_3   0.809087 0.410303 0.782679 -0.704149
H33   H     H_    0.813786 0.453328 0.835340 0.236306
H34   H     H_    0.943969 0.384069 0.769286 0.244242
C60   C     C_3   0.125193 0.259425 0.544996 -0.727202
H35   H     H_    0.207064 0.271971 0.500803 0.195790
H36   H     H_    0.121206 0.192338 0.528297 0.204415
H37   H     H_    0.978945 0.284202 0.545560 0.214592
C61   C     C_3   0.876833 0.195652 0.638741 -0.761768
H38   H     H_    0.831332 0.255848 0.637943 0.225332
H39   H     H_    0.881018 0.150959 0.582569 0.209074
H40   H     H_    0.762282 0.174596 0.668211 0.205202
N7    N     N_3   0.323264 0.689627 0.123741 -0.668818
H41   H     H_    0.418281 0.739328 0.142199 0.233642
H42   H     H_    0.401273 0.638858 0.123705 0.232009
C62   C     C_3   0.635467 0.740734 0.459100 -0.728460
H43   H     H_    0.719941 0.727232 0.502521 0.209531
H44   H     H_    0.634776 0.807896 0.477026 0.209531
H45   H     H_    0.488192 0.715262 0.458171 0.209915
C63   C     C_3   0.382945 0.805956 0.367137 -0.764958
H46   H     H_    0.389330 0.849266 0.423983 0.209545
H47   H     H_    0.267957 0.826875 0.337681 0.206473
H48   H     H_    0.336608 0.744682 0.366043 0.222200
N8    N     N_3   0.967891 0.799996 0.632619 -0.680832
H49   H     H_    0.010262 0.861048 0.653542 0.241670
H50   H     H_    0.087231 0.767629 0.606557 0.224314

loop_
_geom_bond_atom_site_label_1
_geom_bond_atom_site_label_2
_ccdc_geom_bond_type
C62   H45   S    
O15   V3    S    
C9    C14   A    
C61   H40   S    
N2    H19   S    
C10   C17   A    
C22   N8    S    
C7    C8    A    
C4    C19   S    
C1    O6    A    
C61   H38   S    
C58   H22   S    
N5    H28   S    
C62   H43   S    
C30   C31   S    
C35   C36   S    
C34   C35   S    
C17   H4    S    
C14   C15   A    
C21   C22   S    
C18   H3    S    
C31   C54   S    
C60   H36   S    
C16   C17   A    
O13   V3    S    
C48   C49   A    
C59   H31   S    
O5    C3    A    
C18   C19   A    
C63   H48   S    
V2    O10   S    
N1    H17   S    
C37   C42   A    
N3    H24   S    
C62   H44   S    
C6    C7    A    
C24   C25   S    
C26   C58   S    
O9    C4    A    
O8    V2    S    
C23   C26   S    
O18   V4    S    
C48   C61   S    
N7    H41   S    
C32   H7    S    
C11   C12   A    
C42   C49   A    
O1    V2    S    
C44   N6    S    
O7    V1    S    
C30   C35   S    
C52   C60   S    
C45   C46   A    
C38   C39   A    
N2    H20   S    
C29   N4    S    
C49   H13   S    
C21   C24   S    
C57   H14   S    
C16   C63   S    
O12   V3    S    
C58   H21   S    
O16   V4    S    
C32   C33   S    
C27   N3    S    
O15   C55   A    
C33   N5    S    
C33   C34   S    
C12   C13   A    
C7    H1    S    
C59   H32   S    
C2    C51   S    
O12   C53   A    
C35   H9    S    
O17   V3    S    
C47   C48   A    
C57   H16   S    
O11   V4    S    
C47   C52   A    
C12   H2    S    
C43   C59   S    
C46   C47   A    
C39   C40   A    
C25   C28   S    
C3    C23   S    
C40   C43   A    
O2    C1    A    
C26   C27   S    
C45   C50   A    
C22   C27   S    
C41   C42   A    
O19   V4    S    
C30   H6    S    
C8    C11   A    
C63   H46   S    
C31   C34   S    
C29   C36   S    
C5    C6    A    
N4    H27   S    
C8    C9    A    
C57   H15   S    
N6    H33   S    
O3    C4    A    
C60   H37   S    
C41   C46   A    
C23   C24   S    
C44   C45   A    
O6    V2    S    
N1    H18   S    
O9    V2    S    
C37   C38   A    
C25   C26   S    
C21   C28   S    
O2    V1    S    
C25   N2    S    
C27   C28   S    
C37   H10   S    
O4    C2    A    
C13   C18   A    
N8    H50   S    
C29   C30   S    
N4    H26   S    
C1    C36   S    
C15   C20   A    
O1    C2    A    
C6    C55   S    
C19   C20   A    
C38   C53   S    
C51   C52   A    
C61   H39   S    
O5    V1    S    
C20   C62   S    
N5    H29   S    
O8    C3    A    
C29   C32   S    
C39   H11   S    
O14   C54   A    
C5    C10   A    
C33   C36   S    
C43   C44   A    
O13   C56   A    
N8    H49   S    
C13   C14   A    
O4    V1    S    
C21   H5    S    
O3    V1    S    
V1    O10   S    
C59   H30   S    
C22   C23   S    
C63   H47   S    
O19   C56   A    
C50   H12   S    
C34   H8    S    
V3    O20   S    
V4    O20   S    
N3    H25   S    
C11   N7    S    
O7    V2    S    
C40   C41   A    
C28   C56   S    
N6    H34   S    
O11   C54   A    
C50   C51   A    
O18   C55   A    
N7    H42   S    
C31   C32   S    
C15   C16   A    
C24   N1    S    
O17   V4    S    
C5    C57   S    
C9    C10   A    
C58   H23   S    
C53   O16   A    
O14   V3    S    
C60   H35   S    
