data_mof_unit_1897.cif
_audit_creation_date              2012-12-10T17:40:03-0500
_audit_creation_method            fapswitch 2.2
_symmetry_space_group_name_H-M    P1
_symmetry_Int_Tables_number       1
_space_group_crystal_system       triclinic
_cell_length_a                    11.965983
_cell_length_b                    12.80099
_cell_length_c                    27.707912
_cell_angle_alpha                 90.746987
_cell_angle_beta                  85.950449
_cell_angle_gamma                 94.681723
_cell_volume                      4219.36428986

loop_
_atom_site_label
_atom_site_type_symbol
_atom_type_description
_atom_site_fract_x
_atom_site_fract_y
_atom_site_fract_z
_atom_type_partial_charge
C1    C     C_R   0.523852 0.700644 0.498608 0.949211
C2    C     C_R   0.499047 0.615145 0.127228 -0.016881
C3    C     C_R   0.499694 0.497875 0.646560 -0.100152
C4    C     C_R   0.501776 0.508750 0.353427 -0.095571
C5    C     C_R   0.502444 0.611354 0.025101 0.044425
C6    C     C_R   0.485596 0.415013 0.975799 0.044371
C7    C     C_R   0.495091 0.418005 0.026423 0.045151
C8    C     C_R   0.508608 0.608465 0.973873 0.044837
C9    C     C_R   0.499608 0.516117 0.050988 0.073758
C10   C     C_R   0.496506 0.510250 0.949602 0.074061
C11   C     C_R   0.498012 0.706380 0.051547 -0.216711
C12   C     C_R   0.476451 0.299270 0.501487 0.943843
C13   C     C_R   0.464410 0.319773 0.950351 -0.217844
C14   C     C_R   0.496119 0.707985 0.101675 -0.142668
C15   C     C_R   0.460116 0.317921 0.900475 -0.140083
C16   C     C_R   0.499960 0.499639 0.593958 0.895926
C17   C     C_R   0.500205 0.501120 0.406005 0.883028
C18   C     C_R   0.527559 0.700600 0.945864 -0.212034
C19   C     C_R   0.501403 0.325991 0.053446 -0.212242
C20   C     C_R   0.459433 0.186934 0.502734 -0.313473
C21   C     C_R   0.543234 0.812643 0.495876 -0.290980
C22   C     C_R   0.633645 0.971728 0.526562 -0.281073
C23   C     C_R   0.495371 0.507194 0.898552 -0.054075
C24   C     C_R   0.371461 0.028012 0.470551 -0.244363
C25   C     C_R   0.634751 0.864684 0.517923 0.426073
C26   C     C_R   0.369312 0.134236 0.480106 0.403940
C27   C     C_R   0.464175 0.868252 0.474103 0.378111
C28   C     C_R   0.542018 0.131743 0.522243 0.357497
C29   C     C_R   0.460536 0.974047 0.484859 -0.063657
C30   C     C_R   0.545591 0.025954 0.511490 -0.051283
C31   C     C_R   0.955377 0.412003 0.450506 -0.393668
C32   C     C_R   0.044595 0.586492 0.550119 -0.447516
C33   C     C_R   0.838104 0.416899 0.456170 0.636862
C34   C     C_R   0.501180 0.518968 0.102024 -0.053028
C35   C     C_R   0.163129 0.582121 0.544482 0.671536
C36   C     C_R   0.858049 0.535606 0.522315 -0.149292
C37   C     C_R   0.141951 0.464755 0.477591 -0.158785
C38   C     C_R   0.975581 0.530611 0.518441 0.046366
C39   C     C_R   0.024583 0.468763 0.481814 0.033897
C40   C     C_R   0.512768 0.595550 0.821329 0.573545
C41   C     C_R   0.506674 0.430152 0.178299 0.571133
C42   C     C_R   0.475912 0.409546 0.823761 0.476507
C43   C     C_R   0.499063 0.615873 0.177729 0.489680
C44   C     C_R   0.601260 0.512910 0.719498 0.548153
C45   C     C_R   0.512357 0.600580 0.871788 -0.042778
C46   C     C_R   0.606434 0.514862 0.274957 0.540302
C47   C     C_R   0.601013 0.515342 0.669076 -0.343171
C48   C     C_R   0.603094 0.502815 0.325149 -0.318508
C49   C     C_R   0.398005 0.479414 0.674601 -0.219968
C50   C     C_R   0.402827 0.524602 0.331232 -0.243321
C51   C     C_R   0.397449 0.479421 0.724665 -0.188783
C52   C     C_R   0.404841 0.532617 0.281297 -0.206375
C53   C     C_R   0.498290 0.497481 0.747082 0.230014
C54   C     C_R   0.505705 0.526101 0.253235 0.237755
C55   C     C_3   0.194371 0.188165 0.500366 0.116384
C56   C     C_R   0.504461 0.425550 0.127966 -0.040801
C57   C     C_3   0.085921 0.138718 0.480831 -0.353606
C58   C     C_3   0.986350 0.146515 0.517872 -1.008113
C59   C     C_3   0.823583 0.836794 0.513772 0.093114
C60   C     C_3   0.835420 0.793436 0.461810 -0.363559
C61   C     C_3   0.954750 0.816250 0.439215 -0.951236
C62   C     C_3   0.202222 0.728727 0.595733 0.055248
C63   C     C_3   0.191837 0.812932 0.557614 -0.349787
C64   C     C_3   0.157330 0.914705 0.581121 -0.985521
C65   C     C_3   0.761976 0.254229 0.432937 0.124945
C66   C     C_3   0.817412 0.195824 0.390286 -0.384688
C67   C     C_R   0.529508 0.696487 0.895765 -0.136940
C68   C     C_3   0.794062 0.077214 0.395735 -0.945450
C69   C     C_3   0.787165 0.586381 0.255548 0.043290
C70   C     C_3   0.763530 0.688845 0.231516 -0.350145
C71   C     C_3   0.858187 0.774186 0.237782 -0.932530
C72   C     C_3   0.774360 0.458383 0.734522 0.037006
C73   C     C_3   0.744567 0.368184 0.770207 -0.349487
C74   C     C_3   0.837284 0.293052 0.769468 -0.923318
C75   C     C_3   0.584547 0.198870 0.595848 0.136437
C76   C     C_3   0.675307 0.259354 0.623638 -0.333670
C77   C     C_3   0.776724 0.196094 0.628159 -0.838693
C78   C     C_R   0.506065 0.329928 0.103282 -0.136874
C79   C     C_3   0.430582 0.783537 0.402082 0.116820
C80   C     C_3   0.444829 0.872502 0.365133 -0.413581
C81   C     C_3   0.490410 0.833604 0.315874 -0.852354
C82   C     C_R   0.477070 0.410742 0.874177 -0.018335
H1    H     H_    0.318940 0.465491 0.657892 0.179588
H2    H     H_    0.679514 0.532846 0.647705 0.169212
H3    H     H_    0.492684 0.782699 0.120328 0.189184
H4    H     H_    0.443935 0.243000 0.882578 0.189976
H5    H     H_    0.182539 0.270828 0.510384 0.176387
H6    H     H_    0.209714 0.148187 0.534641 0.110116
H7    H     H_    0.069091 0.179415 0.447222 0.232108
H8    H     H_    0.095659 0.054918 0.471972 0.216549
H9    H     H_    0.001296 0.106770 0.551943 0.268931
H10   H     H_    0.909298 0.108012 0.503373 0.261710
H11   H     H_    0.972673 0.230005 0.525792 0.276689
H12   H     H_    0.323718 0.529695 0.352331 0.172757
H13   H     H_    0.886442 0.802314 0.535141 0.166358
H14   H     H_    0.845175 0.922885 0.514148 0.125303
H15   H     H_    0.814569 0.707368 0.461951 0.250240
H16   H     H_    0.776365 0.829646 0.439070 0.208629
H17   H     H_    0.977716 0.902054 0.438354 0.264192
H18   H     H_    0.960056 0.785385 0.401556 0.267008
H19   H     H_    0.015347 0.777546 0.460140 0.268393
H20   H     H_    0.268337 0.759323 0.619632 0.182790
H21   H     H_    0.125266 0.715264 0.620321 0.128160
H22   H     H_    0.273981 0.828447 0.536863 0.265358
H23   H     H_    0.698955 0.011005 0.546927 0.195744
H24   H     H_    0.128419 0.786053 0.531897 0.212756
H25   H     H_    0.075512 0.901002 0.602537 0.269619
H26   H     H_    0.147930 0.972183 0.552450 0.268462
H27   H     H_    0.222424 0.947592 0.605003 0.269705
H28   H     H_    0.671492 0.226539 0.435706 0.189167
H29   H     H_    0.796482 0.232133 0.467446 0.147735
H30   H     H_    0.784012 0.220144 0.356093 0.251398
H31   H     H_    0.909614 0.215485 0.387928 0.211670
H32   H     H_    0.827765 0.050470 0.429356 0.263379
H33   H     H_    0.835348 0.036899 0.364420 0.273484
H34   H     H_    0.303818 0.988757 0.451477 0.204048
H35   H     H_    0.702220 0.054779 0.396961 0.262062
H36   H     H_    0.992047 0.365104 0.421737 0.155188
H37   H     H_    0.004809 0.631965 0.578517 0.150316
H38   H     H_    0.544545 0.769183 0.875877 0.188705
H39   H     H_    0.510681 0.257290 0.122416 0.188702
H40   H     H_    0.869152 0.562223 0.239796 0.185786
H41   H     H_    0.797189 0.599329 0.294854 0.124986
H42   H     H_    0.754132 0.674718 0.192286 0.245170
H43   H     H_    0.684120 0.716740 0.248146 0.242661
H44   H     H_    0.867659 0.790558 0.276825 0.259952
H45   H     H_    0.181106 0.417058 0.449704 0.170584
H46   H     H_    0.838265 0.847309 0.220274 0.276570
H47   H     H_    0.938707 0.749607 0.220639 0.266776
H48   H     H_    0.859817 0.494169 0.740933 0.186260
H49   H     H_    0.779031 0.427983 0.696638 0.119072
H50   H     H_    0.731253 0.400404 0.807438 0.240998
H51   H     H_    0.665637 0.323860 0.760414 0.243294
H52   H     H_    0.851207 0.258623 0.732804 0.263128
H53   H     H_    0.812348 0.228550 0.795421 0.274654
H54   H     H_    0.916912 0.334740 0.780196 0.263916
H55   H     H_    0.492843 0.780972 0.034639 0.142206
H56   H     H_    0.818887 0.584133 0.549859 0.171665
H57   H     H_    0.447765 0.245161 0.968080 0.142791
H58   H     H_    0.544337 0.777277 0.961498 0.141883
H59   H     H_    0.505948 0.249590 0.037003 0.141685
H60   H     H_    0.559940 0.122346 0.613952 0.136975
H61   H     H_    0.510088 0.246018 0.597430 0.074699
H62   H     H_    0.703142 0.333956 0.604689 0.235906
H63   H     H_    0.639513 0.278762 0.660470 0.176427
H64   H     H_    0.752290 0.124971 0.650211 0.254584
H65   H     H_    0.843223 0.244831 0.645922 0.230849
H66   H     H_    0.811564 0.172277 0.591909 0.287457
H67   H     H_    0.318521 0.466671 0.746213 0.162371
H68   H     H_    0.372128 0.720002 0.388332 0.173624
H69   H     H_    0.512277 0.748950 0.405097 0.096503
H70   H     H_    0.362312 0.904485 0.361348 0.238503
H71   H     H_    0.504285 0.936546 0.377842 0.221165
H72   H     H_    0.573361 0.801979 0.318893 0.249691
H73   H     H_    0.500976 0.899536 0.289883 0.280795
H74   H     H_    0.431068 0.771244 0.301734 0.285109
H75   H     H_    0.327659 0.541872 0.264194 0.161809
H76   H     H_    0.679166 0.487524 0.341867 0.193638
N1    N     N_R   0.495659 0.500918 0.798571 -0.338896
N2    N     N_R   0.504302 0.524345 0.201881 -0.334527
N3    N     N_R   0.207800 0.519340 0.508990 -0.136305
N4    N     N_R   0.792200 0.480660 0.491010 -0.142604
O1    O     O_R   0.421700 0.658820 0.502400 -0.557820
O2    O     O_2   0.510323 0.341280 0.203664 -0.545573
O3    O     O_2   0.494142 0.706992 0.202534 -0.600182
O4    O     O_2   0.456206 0.317922 0.799966 -0.587730
O5    O     O_3   0.283280 0.187114 0.463736 -0.626536
O6    O     O_3   0.715820 0.808193 0.536663 -0.623612
O7    O     O_3   0.237795 0.634334 0.574844 -0.618845
O8    O     O_3   0.769731 0.363664 0.424166 -0.637758
O9    O     O_3   0.704344 0.504629 0.245985 -0.629869
O10   O     O_3   0.699205 0.537750 0.742497 -0.625485
O11   O     O_3   0.626273 0.183363 0.547524 -0.623264
O12   O     O_R   0.578300 0.341180 0.497600 -0.576547
O13   O     O_3   0.382021 0.817759 0.447068 -0.645895
O14   O     O_R   0.609310 0.646410 0.496630 -0.607332
O15   O     O_R   0.390690 0.353590 0.503370 -0.616458
O16   O     O_R   0.406200 0.506190 0.574130 -0.583970
O17   O     O_R   0.593800 0.493810 0.425870 -0.591603
O18   O     O_R   0.593820 0.493770 0.568360 -0.639086
O19   O     O_R   0.406180 0.506230 0.431640 -0.633867
O20   O     O_2   0.529499 0.684318 0.795116 -0.542061
Zn1   Zn    Zn3+2 0.374730 0.508290 0.503850 0.991683
Zn2   Zn    Zn3+2 0.625270 0.491710 0.496150 0.981963

loop_
_geom_bond_atom_site_label_1
_geom_bond_atom_site_label_2
_ccdc_geom_bond_type
C66   C68   S    
C1    O14   A    
C1    C21   S    
C23   C45   A    
C23   C82   A    
C75   O11   S    
C73   C74   S    
C40   N1    A    
C42   N1    A    
C42   C82   A    
C17   O19   A    
C55   O5    S    
C36   H56   S    
C37   H45   S    
C3    C49   A    
C80   H71   S    
C31   H36   S    
C34   C56   A    
C29   C30   A    
C81   H74   S    
C57   H7    S    
C72   H49   S    
C72   O10   S    
C37   N3    A    
C66   H31   S    
C58   H11   S    
C24   C26   A    
C5    C11   A    
C60   H16   S    
C4    C48   A    
C38   C39   A    
C11   C14   A    
C28   O11   S    
C27   C29   A    
C69   H41   S    
C16   O18   A    
C56   C78   A    
C46   O9    S    
C7    C9    A    
C69   O9    S    
C3    C47   A    
C55   H6    S    
C78   H39   S    
C24   C29   A    
C65   H29   S    
C44   C53   A    
C16   O16   A    
C49   C51   A    
C22   C25   A    
C74   H54   S    
N4    Zn2   S    
C45   C67   A    
C50   C52   A    
C31   C33   A    
C71   H44   S    
C70   C71   S    
C72   H48   S    
C32   C38   A    
C58   H9    S    
C77   H65   S    
O16   Zn1   S    
C44   C47   A    
C72   C73   S    
C17   O17   A    
C43   O3    S    
C12   O15   A    
C21   C27   A    
C73   H50   S    
C59   C60   S    
C19   H59   S    
C36   N4    A    
C46   C54   A    
C61   H17   S    
C59   H13   S    
C33   O8    S    
C52   C54   A    
C64   H26   S    
C15   C82   A    
C40   O20   S    
O19   Zn1   S    
C25   O6    S    
C40   C45   A    
C46   C48   A    
C26   O5    S    
C53   N1    S    
C57   H8    S    
O1    Zn1   S    
C32   C35   A    
C79   O13   S    
C76   C77   S    
C60   H15   S    
C27   O13   S    
C50   H12   S    
C20   C28   A    
C18   C67   A    
O15   Zn1   S    
C48   H76   S    
C8    C18   A    
C81   H72   S    
C63   C64   S    
C4    C50   A    
C60   C61   S    
C51   C53   A    
N3    Zn1   S    
C19   C78   A    
C61   H19   S    
C75   C76   S    
C44   O10   S    
C41   C56   A    
C5    C9    A    
C62   C63   S    
C75   H60   S    
C70   H42   S    
C68   H35   S    
C71   H47   S    
C41   N2    A    
C13   C15   A    
C2    C43   A    
C63   H22   S    
C74   H53   S    
C12   C20   S    
C35   N3    A    
C47   H2    S    
C63   H24   S    
C18   H58   S    
C77   H66   S    
C51   H67   S    
C75   H61   S    
C79   H68   S    
C4    C17   S    
C76   H62   S    
C70   H43   S    
C73   H51   S    
C76   H63   S    
C43   N2    A    
C7    C19   A    
C15   H4    S    
C9    C34   A    
C35   O7    S    
C80   H70   S    
C71   H46   S    
C61   H18   S    
C59   H14   S    
C32   H37   S    
O12   Zn2   S    
C13   H57   S    
C64   H25   S    
C12   O12   A    
O17   Zn2   S    
C67   H38   S    
C79   H69   S    
C52   H75   S    
O14   Zn2   S    
C62   O7    S    
C21   C25   A    
C22   C30   A    
C14   H3    S    
C80   C81   S    
C62   H21   S    
C5    C8    A    
C24   H34   S    
C6    C7    A    
C10   C23   A    
C22   H23   S    
C81   H73   S    
C65   O8    S    
C49   H1    S    
C55   C57   S    
C33   N4    A    
C11   H55   S    
C28   C30   A    
C37   C39   A    
C6    C13   A    
C2    C34   A    
C64   H27   S    
C20   C26   A    
C69   H40   S    
C74   H52   S    
C36   C38   A    
C31   C39   A    
C55   H5    S    
C69   C70   S    
C2    C14   A    
C65   H28   S    
C6    C10   A    
C59   O6    S    
C68   H33   S    
C54   N2    S    
C79   C80   S    
C42   O4    S    
C1    O1    A    
C8    C10   A    
C65   C66   S    
C41   O2    S    
C66   H30   S    
C57   C58   S    
C58   H10   S    
C77   H64   S    
C3    C16   S    
O18   Zn2   S    
C68   H32   S    
C62   H20   S    
