data_mof_unit_909.cif
_audit_creation_date              2012-12-10T17:07:12-0500
_audit_creation_method            fapswitch 2.2
_symmetry_space_group_name_H-M    P1
_symmetry_Int_Tables_number       1
_space_group_crystal_system       triclinic
_cell_length_a                    10.066473
_cell_length_b                    10.721359
_cell_length_c                    13.592578
_cell_angle_alpha                 90.640639
_cell_angle_beta                  82.533505
_cell_angle_gamma                 90.570532
_cell_volume                      1454.41318946

loop_
_atom_site_label
_atom_site_type_symbol
_atom_type_description
_atom_site_fract_x
_atom_site_fract_y
_atom_site_fract_z
_atom_type_partial_charge
C1    C     C_R   0.502152 0.736910 0.493417 0.835948
C2    C     C_R   0.498747 0.263140 0.504234 0.897978
C3    C     C_R   0.524588 0.500206 0.314356 0.886466
C4    C     C_1   0.544570 0.505410 0.210542 -0.204553
C5    C     C_2   0.560524 0.515995 0.017412 0.500092
C6    C     C_2   0.441865 0.508488 0.982040 0.119503
C7    C     C_1   0.443847 0.505857 0.877668 0.077291
C8    C     C_1   0.557514 0.510671 0.122665 -0.155544
C9    C     C_3   0.308260 0.498524 0.046856 -0.987085
C10   C     C_3   0.797886 0.534088 0.995191 0.101313
C11   C     C_3   0.825152 0.668547 0.027364 -0.359717
C12   C     C_1   0.455854 0.503181 0.789661 -0.182710
C13   C     C_3   0.962903 0.681293 0.062049 -0.961813
C14   C     C_3   0.397435 0.078774 0.602492 -0.869866
C15   C     C_3   0.826547 0.963351 0.538308 0.096831
C16   C     C_3   0.918626 0.944639 0.440232 -0.411643
C17   C     C_3   0.050746 0.015521 0.440903 -0.908753
C18   C     C_3   0.414945 0.862017 0.317337 0.092900
C19   C     C_3   0.521098 0.927529 0.244097 -0.389981
C20   C     C_3   0.511002 0.886086 0.137521 -0.948682
C21   C     C_3   0.153429 0.362275 0.353444 -0.928751
C22   C     C_3   0.108516 0.650127 0.613031 0.177891
C23   C     C_2   0.599329 0.068957 0.470858 -0.253140
C24   C     C_3   0.003979 0.695099 0.697437 -0.390090
C25   C     C_3   0.046751 0.818120 0.742114 -0.979371
C26   C     C_2   0.497826 0.132514 0.520594 0.087475
C27   C     C_2   0.612434 0.937020 0.486894 0.400366
C28   C     C_2   0.511243 0.864907 0.462793 0.229852
C29   C     C_2   0.081625 0.428378 0.442678 0.342824
C30   C     C_2   0.931183 0.412043 0.460520 -0.092238
C31   C     C_R   0.475454 0.500510 0.685663 0.890214
H1    H     H_    0.894910 0.584594 0.509126 0.197448
H2    H     H_    0.748010 0.697600 0.088942 0.223143
H3    H     H_    0.970921 0.617490 0.124820 0.268748
H4    H     H_    0.978089 0.778631 0.087325 0.265753
H5    H     H_    0.042659 0.659194 0.000082 0.268530
H6    H     H_    0.341184 0.154214 0.645896 0.232886
H7    H     H_    0.323035 0.018005 0.571765 0.272637
H8    H     H_    0.449950 0.024788 0.654820 0.236051
H9    H     H_    0.880636 0.931628 0.599349 0.175505
H10   H     H_    0.805358 0.063625 0.554544 0.147129
H11   H     H_    0.939829 0.843603 0.428492 0.227920
H12   H     H_    0.673783 0.113943 0.417238 0.106804
H13   H     H_    0.868496 0.977881 0.377411 0.207425
H14   H     H_    0.031966 0.116503 0.454711 0.264183
H15   H     H_    0.113266 0.004052 0.367920 0.268612
H16   H     H_    0.106561 0.978544 0.499412 0.270767
H17   H     H_    0.315098 0.876283 0.293015 0.170655
H18   H     H_    0.431453 0.759509 0.315128 0.128573
H19   H     H_    0.507310 0.030194 0.250366 0.236932
H20   H     H_    0.622626 0.905239 0.262363 0.201429
H21   H     H_    0.519838 0.783218 0.130194 0.262057
H22   H     H_    0.593008 0.930094 0.086683 0.266735
H23   H     H_    0.886862 0.327831 0.433374 0.135597
H24   H     H_    0.413467 0.914776 0.115400 0.266840
H25   H     H_    0.083573 0.301871 0.317000 0.206393
H26   H     H_    0.195929 0.431588 0.297816 0.252730
H27   H     H_    0.233008 0.301620 0.374689 0.279734
H28   H     H_    0.107135 0.713298 0.548485 0.117261
H29   H     H_    0.207473 0.655810 0.639509 0.204265
H30   H     H_    0.906388 0.707504 0.668949 0.236426
H31   H     H_    0.990227 0.623978 0.756918 0.248585
H32   H     H_    0.137291 0.804083 0.779377 0.269755
H33   H     H_    0.964767 0.852734 0.798012 0.275154
H34   H     H_    0.224439 0.493813 0.001185 0.252567
H35   H     H_    0.069617 0.889460 0.683623 0.259055
H36   H     H_    0.304696 0.412712 0.092179 0.255817
H37   H     H_    0.293235 0.581380 0.096725 0.252537
H38   H     H_    0.881316 0.505515 0.937940 0.169060
H39   H     H_    0.799276 0.467360 0.057202 0.136384
H40   H     H_    0.820249 0.732110 0.963898 0.236402
N1    N     N_2   0.147970 0.498670 0.498970 0.059982
N2    N     N_2   0.852310 0.498640 0.498940 -0.181911
O1    O     O_R   0.386960 0.680940 0.500020 -0.645234
O2    O     O_3   0.709271 0.888816 0.541013 -0.649809
O3    O     O_3   0.410871 0.914587 0.413670 -0.669087
O4    O     O_3   0.078568 0.525886 0.588378 -0.588006
O5    O     O_R   0.613100 0.680900 0.499980 -0.582834
O6    O     O_R   0.370650 0.500000 0.640370 -0.613093
O7    O     O_R   0.596800 0.499960 0.640330 -0.576519
O8    O     O_R   0.386900 0.319100 0.500020 -0.606371
O9    O     O_R   0.613040 0.319060 0.499980 -0.633573
O10   O     O_R   0.403200 0.500040 0.359670 -0.625985
O11   O     O_R   0.629350 0.500000 0.359630 -0.614131
O12   O     O_3   0.678564 0.526358 0.950452 -0.656997
Zn1   Zn    Zn3+2 0.349000 0.500030 0.500020 0.957824
Zn2   Zn    Zn3+2 0.651000 0.499970 0.499980 0.958253

loop_
_geom_bond_atom_site_label_1
_geom_bond_atom_site_label_2
_ccdc_geom_bond_type
O5    Zn2   S    
C15   O2    S    
C24   C25   S    
C10   O12   S    
C24   H30   S    
C19   C20   S    
O11   Zn2   S    
C4    C8    T    
C6    C9    S    
C31   O7    A    
C30   H23   S    
N1    O4    S    
C1    O1    A    
C17   H14   S    
C13   H4    S    
O7    Zn2   S    
C22   H29   S    
C5    C6    D    
C11   H40   S    
C15   C16   S    
C23   H12   S    
C18   C19   S    
C25   H32   S    
C23   C26   D    
N2    Zn2   S    
C14   H8    S    
C16   C17   S    
C1    C28   S    
C18   O3    S    
C23   C27   S    
C16   H13   S    
O8    Zn1   S    
C29   N1    D    
C5    O12   S    
C1    O5    A    
C20   H24   S    
C27   O2    S    
C7    C12   T    
C11   H2    S    
C17   H15   S    
C15   H10   S    
C13   H5    S    
C22   H28   S    
C30   N2    D    
C21   C29   S    
O1    Zn1   S    
C25   H33   S    
C9    H36   S    
C21   H26   S    
C29   C30   S    
C14   H7    S    
C2    C26   S    
C14   C26   S    
C10   H39   S    
C12   C31   S    
C3    O10   A    
C22   C24   S    
C2    O9    A    
C5    C8    S    
C3    C4    S    
C28   O3    S    
C16   H11   S    
C27   C28   D    
C24   H31   S    
C25   H35   S    
C17   H16   S    
C22   O4    S    
C20   H22   S    
C18   H17   S    
C21   H25   S    
N1    Zn1   S    
C31   O6    A    
C6    C7    S    
C9    H37   S    
C13   H3    S    
C20   H21   S    
C14   H6    S    
C11   C13   S    
C19   H19   S    
C9    H34   S    
C15   H9    S    
C10   C11   S    
C10   H38   S    
C19   H20   S    
C21   H27   S    
O10   Zn1   S    
C3    O11   A    
C2    O8    A    
H1    N2    S    
O6    Zn1   S    
O9    Zn2   S    
C18   H18   S    
