data_mof_unit_2402.cif
_audit_creation_date              2013-03-05T15:46:33-0500
_audit_creation_method            fapswitch 2.2
_symmetry_space_group_name_H-M    P1
_symmetry_Int_Tables_number       1
_space_group_crystal_system       triclinic
_cell_length_a                    10.137387
_cell_length_b                    10.683219
_cell_length_c                    10.847165
_cell_angle_alpha                 89.731206
_cell_angle_beta                  94.97821
_cell_angle_gamma                 81.928159
_cell_volume                      1158.55156724

loop_
_atom_site_label
_atom_site_type_symbol
_atom_site_description
_atom_site_fract_x
_atom_site_fract_y
_atom_site_fract_z
_atom_type_partial_charge
O1    O     O_R   0.568940 0.489660 0.307530 -0.626476
O2    O     O_R   0.431060 0.510340 0.692470 -0.624891
O3    O     O_R   0.348880 0.522640 0.340350 -0.606961
O4    O     O_R   0.651120 0.477360 0.659650 -0.606632
C1    C     C_R   0.444189 0.511057 0.267645 0.919316
C2    C     C_R   0.555922 0.494025 0.732353 0.923174
O5    O     O_R   0.610030 0.300280 0.483580 -0.607661
O6    O     O_R   0.389970 0.699720 0.516420 -0.609418
O7    O     O_R   0.389970 0.333270 0.516400 -0.617512
O8    O     O_R   0.610030 0.666730 0.483600 -0.619095
C3    C     C_R   0.498966 0.260916 0.500263 0.869565
C4    C     C_R   0.500878 0.739092 0.499147 0.865958
Zn1   Zn    Zn3+2 0.646940 0.477980 0.478080 0.936383
Zn2   Zn    Zn3+2 0.353060 0.522020 0.521920 0.936560
H1    H     H_    0.364074 0.130686 0.896400 0.147606
H2    H     H_    0.644809 0.868482 0.105988 0.149345
C5    C     C_R   0.566169 0.123183 0.284838 -0.165327
C6    C     C_R   0.440069 0.876054 0.716370 -0.170042
C7    C     C_R   0.610244 0.054057 0.183466 0.257781
C8    C     C_R   0.400823 0.944478 0.819699 0.254771
C9    C     C_R   0.612689 0.923460 0.184385 -0.155362
C10   C     C_R   0.393357 0.075668 0.817079 -0.162549
C11   C     C_R   0.573044 0.862695 0.285892 -0.211108
C12   C     C_R   0.427509 0.137119 0.713515 -0.211315
C13   C     C_R   0.537126 0.930722 0.393023 0.075119
C14   C     C_R   0.462943 0.069180 0.606196 0.076335
C15   C     C_R   0.533565 0.061830 0.392454 0.024316
C16   C     C_R   0.467904 0.937942 0.607218 0.028144
C17   C     C_R   0.503251 0.871192 0.500089 -0.168198
C18   C     C_R   0.496536 0.128791 0.499052 -0.170471
H3    H     H_    0.559240 0.224853 0.278419 0.152452
H4    H     H_    0.449146 0.774201 0.723487 0.153709
H5    H     H_    0.572573 0.761953 0.279007 0.164588
H6    H     H_    0.426003 0.238141 0.719815 0.168199
H7    H     H_    0.384664 0.556349 0.895338 0.193050
H8    H     H_    0.616930 0.521750 0.104443 0.189831
C19   C     C_2   0.412777 0.525984 0.136084 -0.370952
C20   C     C_2   0.587759 0.499130 0.863875 -0.380224
C21   C     C_2   0.513416 0.528862 0.065655 -0.176594
C22   C     C_2   0.487846 0.532278 0.934190 -0.167511
H9    H     H_    0.690666 0.475129 0.903215 0.154691
H10   H     H_    0.309547 0.533034 0.096782 0.154169
H11   H     H_    0.891033 0.578234 0.577570 0.166124
H12   H     H_    0.108943 0.421835 0.422372 0.165871
N1    N     N_2   0.157300 0.551390 0.551120 -0.194994
N2    N     N_2   0.842700 0.448610 0.448880 -0.195247
C23   C     C_2   0.072790 0.489902 0.489986 -0.122720
C24   C     C_2   0.927196 0.510140 0.509981 -0.124191
H13   H     H_    0.880113 0.384639 0.385348 0.165499
H14   H     H_    0.119898 0.615326 0.614683 0.163508
C25   C     C_3   0.657076 0.118474 0.075366 -0.938995
H15   H     H_    0.764930 0.084999 0.068763 0.246555
H16   H     H_    0.600591 0.095169 0.988625 0.252360
H17   H     H_    0.643352 0.222922 0.084686 0.245153
C26   C     C_3   0.368570 0.876261 0.932147 -0.935628
H18   H     H_    0.340365 0.942873 0.006942 0.248384
H19   H     H_    0.283976 0.822810 0.907165 0.242637
H20   H     H_    0.457087 0.808819 0.968007 0.248921

loop_
_geom_bond_atom_site_label_1
_geom_bond_atom_site_label_2
_geom_bond_distance
_ccdc_geom_bond_type
C20   C22   1.330004 D    
O7    Zn2   2.000706 S    
C2    C20   1.438119 S    
H2    C9    1.083133 S    
C1    C19   1.438078 S    
C4    C17   1.414895 S    
C13   C15   1.396017 A    
H11   C24   1.085303 S    
C14   C16   1.395832 A    
C23   C24   1.496189 S    
H12   C23   1.085275 S    
O6    C4    1.282474 A    
C25   H17   1.111114 S    
O3    C1    1.292429 A    
C26   H18   1.111279 S    
N1    C23   1.291790 D    
H7    C22   1.088475 S    
C6    C16   1.421837 A    
C19   C21   1.330139 D    
C15   C18   1.413259 A    
O5    C3    1.282523 A    
O7    C3    1.282181 A    
N2    H13   1.030924 S    
O2    C2    1.289193 A    
O3    Zn2   1.966255 S    
O8    C4    1.282121 A    
N1    H14   1.030899 S    
C8    C26   1.501185 S    
O1    C1    1.289065 A    
C16   C17   1.412643 A    
C5    C7    1.397978 A    
C5    H3    1.080058 S    
C12   C14   1.420654 A    
C14   C18   1.412420 A    
Zn2   N1    2.017958 S    
C6    C8    1.397242 A    
C26   H19   1.110656 S    
C9    C11   1.392355 A    
C13   C17   1.412360 A    
Zn1   N2    2.017956 S    
O2    Zn2   1.944093 S    
C10   C12   1.391846 A    
C6    H4    1.080876 S    
C21   C22   1.426453 S    
C25   H15   1.110167 S    
C5    C15   1.422029 A    
N2    C24   1.291799 D    
C7    C25   1.501567 S    
O5    Zn1   1.987413 S    
C11   C13   1.420632 A    
O1    Zn1   1.944091 S    
C20   H9    1.087533 S    
O4    C2    1.292333 A    
H1    C10   1.083501 S    
C26   H20   1.109441 S    
C19   H10   1.087516 S    
O6    Zn2   1.987414 S    
C11   H5    1.079842 S    
C7    C9    1.391902 A    
H8    C21   1.088415 S    
C12   H6    1.079767 S    
O4    Zn1   1.966256 S    
C3    C18   1.415285 S    
C8    C10   1.392948 A    
C25   H16   1.106295 S    
O8    Zn1   2.000707 S    
