data_mof_unit_4106.cif
_audit_creation_date              2012-12-11T15:52:21-0500
_audit_creation_method            fapswitch 2.2
_symmetry_space_group_name_H-M    P1
_symmetry_Int_Tables_number       1
_space_group_crystal_system       triclinic
_cell_length_a                    10.993915
_cell_length_b                    10.950731
_cell_length_c                    18.784241
_cell_angle_alpha                 89.78993
_cell_angle_beta                  90.282989
_cell_angle_gamma                 119.774852
_cell_volume                      1962.88512817

loop_
_atom_site_label
_atom_site_type_symbol
_atom_type_description
_atom_site_fract_x
_atom_site_fract_y
_atom_site_fract_z
_atom_type_partial_charge
C1    C     C_R   0.518944 0.459861 0.147950 0.644635
C2    C     C_3   0.077180 0.753247 0.452454 0.790838
C3    C     C_3   0.686774 0.952881 0.453097 0.794554
C4    C     C_3   0.248348 0.352800 0.449434 0.776944
C5    C     C_R   0.522881 0.454631 0.355491 0.574199
C6    C     C_R   0.579635 0.127427 0.360976 0.544302
C7    C     C_R   0.931054 0.477233 0.356014 0.589296
C8    C     C_R   0.458182 0.517034 0.647244 0.606178
C9    C     C_R   0.057187 0.541328 0.647672 0.610882
C10   C     C_R   0.483272 0.942603 0.647456 0.615646
C11   C     C_R   0.479349 0.944839 0.933119 -0.023266
C12   C     C_R   0.540716 0.059904 0.147791 0.629135
C13   C     C_R   0.019392 0.520646 0.927070 0.014407
C14   C     C_R   0.445797 0.544006 0.936500 -0.002735
C15   C     C_R   0.997059 0.495999 0.076655 -0.000939
C16   C     C_R   0.489463 0.982926 0.081012 0.033747
C17   C     C_R   0.493756 0.513757 0.081465 0.065715
C18   C     C_R   0.383113 0.973188 0.966288 -0.022016
C19   C     C_R   0.945253 0.388433 0.958792 -0.024935
C20   C     C_R   0.581407 0.608647 0.964455 -0.007412
C21   C     C_R   0.938539 0.377438 0.032008 0.087568
C22   C     C_R   0.390589 0.996069 0.038904 -0.045648
C23   C     C_R   0.940141 0.480357 0.147890 0.602869
C24   C     C_R   0.605112 0.595009 0.035465 -0.018757
C25   C     C_R   0.559849 0.919007 0.050272 -0.093597
C26   C     C_R   0.059943 0.628835 0.044795 -0.167214
C27   C     C_R   0.357581 0.472053 0.057364 -0.137043
C28   C     C_R   0.069708 0.640920 0.971105 -0.121143
C29   C     C_R   0.559687 0.905938 0.976322 -0.130909
C30   C     C_R   0.334545 0.490248 0.985316 -0.127073
C31   C     C_3   0.347518 0.084960 0.950259 0.305322
C32   C     C_3   0.940647 0.250581 0.949498 0.273795
C33   C     C_3   0.709355 0.606385 0.940799 0.296352
C34   C     C_R   0.421004 0.547531 0.859999 0.525174
C35   C     C_3   0.949972 0.246952 0.030320 0.273009
C36   C     C_3   0.359201 0.113482 0.029586 0.294243
C37   C     C_3   0.735944 0.591221 0.018872 0.293706
C38   C     C_R   0.519705 0.021752 0.581010 0.026957
C39   C     C_R   0.986731 0.504406 0.579232 0.019754
C40   C     C_R   0.493937 0.487717 0.577728 0.015307
C41   C     C_R   0.959632 0.484988 0.431251 0.055721
C42   C     C_R   0.559861 0.098806 0.436796 0.011112
C43   C     C_R   0.515130 0.480329 0.429868 0.048407
C44   C     C_R   0.630002 0.025844 0.542221 -0.045066
C45   C     C_R   0.063834 0.544097 0.853420 0.523403
C46   C     C_R   0.990509 0.613814 0.538518 -0.046298
C47   C     C_R   0.382881 0.388859 0.536242 -0.033726
C48   C     C_R   0.974079 0.602578 0.466350 -0.072948
C49   C     C_R   0.649645 0.063376 0.471863 -0.086156
C50   C     C_R   0.394061 0.384656 0.464178 -0.061774
C51   C     C_R   0.458693 0.112082 0.476714 -0.104316
C52   C     C_R   0.934300 0.366077 0.471702 -0.098796
C53   C     C_R   0.635123 0.568355 0.470992 -0.092233
C54   C     C_R   0.943955 0.374481 0.546264 -0.106662
C55   C     C_R   0.439390 0.074919 0.549301 -0.090325
C56   C     C_R   0.474422 0.923193 0.856704 0.507717
C57   C     C_R   0.624677 0.571672 0.545399 -0.098771
C58   C     C_3   0.662372 0.909766 0.530009 0.770829
C59   C     C_3   0.102763 0.765496 0.531525 0.770562
C60   C     C_3   0.237250 0.365675 0.528512 0.759142
Cr1   Cr    Cr6+3 0.769160 0.541570 0.250690 1.120333
Cr2   Cr    Cr6+3 0.458430 0.227590 0.250690 1.135338
Cr3   Cr    Cr6+3 0.772410 0.230840 0.250690 1.159382
Cr4   Cr    Cr6+3 0.541570 0.769160 0.749310 1.154173
Cr5   Cr    Cr6+3 0.227590 0.458430 0.749310 1.175051
Cr6   Cr    Cr6+3 0.230840 0.772410 0.749310 1.162829
F1    F     F_    0.211292 0.028577 0.925607 -0.582587
F2    F     F_    0.014873 0.828144 0.427311 -0.517034
F3    F     F_    0.824763 0.008195 0.432054 -0.512138
F4    F     F_    0.164259 0.217999 0.423483 -0.512902
F5    F     F_    0.781102 0.929730 0.565990 -0.535815
F6    F     F_    0.069311 0.857494 0.564857 -0.536288
F7    F     F_    0.137834 0.243299 0.561329 -0.547482
F8    F     F_    0.191343 0.773124 0.412545 -0.517674
F9    F     F_    0.591796 0.850303 0.407387 -0.518925
F10   F     F_    0.240948 0.455874 0.409756 -0.543297
F11   F     F_    0.055431 0.258068 0.915642 -0.602582
F12   F     F_    0.808062 0.734997 0.913033 -0.598774
F13   F     F_    0.835298 0.133980 0.059909 -0.635032
F14   F     F_    0.474298 0.241964 0.044951 -0.597761
F15   F     F_    0.722374 0.461408 0.033465 -0.604579
F16   F     F_    0.546280 0.778320 0.540111 -0.547799
F17   F     F_    0.233740 0.785916 0.548852 -0.549060
F18   F     F_    0.231827 0.484935 0.546811 -0.555466
H1    H     H_    0.628642 0.895863 0.081867 0.188245
H2    H     H_    0.050918 0.261524 0.050985 0.132858
H3    H     H_    0.260557 0.094123 0.055577 0.157343
H4    H     H_    0.831550 0.681847 0.041561 0.158286
H5    H     H_    0.388894 0.141271 0.450861 0.190928
H6    H     H_    0.913047 0.269729 0.445703 0.219106
H7    H     H_    0.734697 0.636407 0.445820 0.206157
H8    H     H_    0.933453 0.285726 0.576727 0.210450
H9    H     H_    0.354858 0.075739 0.578224 0.202482
H10   H     H_    0.713913 0.646990 0.576234 0.203387
H11   H     H_    0.097537 0.723181 0.076659 0.140374
H12   H     H_    0.269607 0.419277 0.093114 0.114895
H13   H     H_    0.122591 0.745871 0.948929 0.211996
H14   H     H_    0.627069 0.871370 0.952940 0.190723
H15   H     H_    0.230587 0.459376 0.967527 0.172854
H16   H     H_    0.426711 0.172525 0.917084 0.157704
H17   H     H_    0.838980 0.168199 0.927121 0.174328
H18   H     H_    0.687315 0.514548 0.906889 0.153287
O1    O     O_R   0.911480 0.572650 0.170990 -0.495042
O2    O     O_R   0.528970 0.640340 0.824320 -0.490091
O3    O     O_R   0.111370 0.471030 0.824320 -0.477616
O4    O     O_R   0.359660 0.888630 0.824320 -0.490505
O5    O     O_R   0.909980 0.572450 0.331530 -0.476303
O6    O     O_R   0.427550 0.337530 0.331530 -0.488325
O7    O     O_R   0.662470 0.090020 0.331530 -0.435736
O8    O     O_R   0.572450 0.909980 0.668470 -0.458023
O9    O     O_R   0.337530 0.427550 0.668470 -0.457936
O10   O     O_R   0.090020 0.662470 0.668470 -0.455630
O11   O     O_R   0.638950 0.528780 0.324500 -0.505981
O12   O     O_R   0.427350 0.338830 0.170990 -0.471468
O13   O     O_R   0.471220 0.110170 0.324500 -0.460995
O14   O     O_R   0.889830 0.361050 0.324500 -0.516911
O15   O     O_R   0.528780 0.638950 0.675500 -0.442432
O16   O     O_R   0.110170 0.471220 0.675500 -0.443882
O17   O     O_R   0.361050 0.889830 0.675500 -0.438848
O18   O     O_3   0.666667 0.333333 0.250560 -0.329200
O19   O     O_3   0.333333 0.666667 0.749440 -0.322060
O20   O     O_R   0.661170 0.088520 0.170990 -0.440634
O21   O     O_R   0.572650 0.911480 0.829010 -0.514723
O22   O     O_R   0.338830 0.427350 0.829010 -0.445104
O23   O     O_R   0.088520 0.661170 0.829010 -0.492471
O24   O     O_R   0.640340 0.528970 0.175680 -0.484744
O25   O     O_R   0.471030 0.111370 0.175680 -0.473577
O26   O     O_R   0.888630 0.359660 0.175680 -0.460740

loop_
_geom_bond_atom_site_label_1
_geom_bond_atom_site_label_2
_ccdc_geom_bond_type
C44   C49   A    
C28   H13   S    
C40   C47   A    
C11   C18   A    
C46   C59   S    
Cr1   O1    S    
C37   H4    S    
C52   H6    S    
C32   H17   S    
C55   H9    S    
C4    F4    S    
C54   H8    S    
C3    C49   S    
C12   O25   A    
C31   F1    S    
C29   H14   S    
C3    F3    S    
Cr6   O4    S    
Cr2   O12   S    
C2    F2    S    
C58   F16   S    
Cr2   O25   S    
C35   H2    S    
C33   F12   S    
C39   C54   A    
Cr2   O6    S    
Cr4   O19   S    
C60   F7    S    
C9    C39   S    
Cr5   O22   S    
Cr5   O9    S    
C10   O17   A    
C32   F11   S    
C43   C53   A    
C23   O1    A    
C38   C55   A    
C20   C24   A    
C44   C58   S    
C53   H7    S    
C16   C22   A    
Cr5   O16   S    
C13   C28   A    
Cr1   O24   S    
Cr5   O19   S    
C3    F9    S    
C41   C52   A    
Cr2   O18   S    
Cr3   O26   S    
C2    F8    S    
C59   F6    S    
C52   C54   A    
C9    O10   A    
C15   C23   S    
C5    C43   S    
C27   C30   A    
C9    O16   A    
C37   F15   S    
C27   H12   S    
C14   C30   A    
Cr1   O5    S    
C19   C32   S    
C26   H11   S    
Cr5   O3    S    
C45   O3    A    
C8    O15   A    
C47   C50   A    
C36   H3    S    
C25   C29   A    
C46   C48   A    
C17   C24   A    
C13   C19   A    
C33   H18   S    
C17   C27   A    
C32   C35   S    
C12   C16   S    
C1    O24   A    
C36   F14   S    
C8    O9    A    
C45   O23   A    
C53   C57   A    
C2    C59   S    
C15   C26   A    
C2    C48   S    
C30   H15   S    
C33   C37   S    
Cr4   O15   S    
C4    C50   S    
C7    O14   A    
Cr3   O7    S    
C56   O21   A    
C38   C44   A    
C19   C21   A    
C14   C20   A    
Cr4   O8    S    
C4    C60   S    
C25   H1    S    
C24   C37   S    
Cr6   O19   S    
C31   H16   S    
C56   O4    A    
C39   C46   A    
C20   C33   S    
C57   H10   S    
Cr1   O11   S    
C6    O7    A    
C7    O5    A    
C1    O12   A    
Cr3   O14   S    
C47   C60   S    
Cr3   O20   S    
C16   C25   A    
Cr4   O2    S    
C34   O22   A    
C40   C57   A    
C5    O11   A    
C18   C22   A    
C1    C17   S    
C59   F17   S    
C14   C34   S    
C43   C50   A    
C21   C35   S    
Cr4   O21   S    
C22   C36   S    
C42   C51   A    
C26   C28   A    
Cr6   O23   S    
C10   C38   S    
Cr6   O17   S    
Cr2   O13   S    
C51   H5    S    
C13   C45   S    
Cr3   O18   S    
C60   F18   S    
C35   F13   S    
C41   C48   A    
C10   O8    A    
C51   C55   A    
C7    C41   S    
C58   F5    S    
C34   O2    A    
C6    O13   A    
C4    F10   S    
C42   C49   A    
C3    C58   S    
C15   C21   A    
C12   O20   A    
C11   C29   A    
C6    C42   S    
C31   C36   S    
C18   C31   S    
C8    C40   S    
Cr6   O10   S    
C11   C56   S    
C23   O26   A    
Cr1   O18   S    
C5    O6    A    
