data_mof_unit_4616.cif
_audit_creation_date              2012-12-11T17:23:05-0500
_audit_creation_method            fapswitch 2.2
_symmetry_space_group_name_H-M    P1
_symmetry_Int_Tables_number       1
_space_group_crystal_system       triclinic
_cell_length_a                    8.599384
_cell_length_b                    16.570035
_cell_length_c                    26.933323
_cell_angle_alpha                 96.940717
_cell_angle_beta                  93.012309
_cell_angle_gamma                 85.854734
_cell_volume                      3795.97246525

loop_
_atom_site_label
_atom_site_type_symbol
_atom_type_description
_atom_site_fract_x
_atom_site_fract_y
_atom_site_fract_z
_atom_type_partial_charge
Ba1   Ba    Ba6+2 0.851940 0.461560 0.523510 1.729503
Ba2   Ba    Ba6+2 0.337880 0.538370 0.476480 1.716481
C1    C     C_3   0.741016 0.163509 0.677596 0.770390
C2    C     C_R   0.962622 0.581341 0.181876 0.665923
C3    C     C_2   0.775546 0.559540 0.272738 -0.188653
C4    C     C_3   0.164454 0.268667 0.657033 0.424237
C5    C     C_3   0.751637 0.578871 0.328345 0.005132
C6    C     C_1   0.980558 0.484862 0.342587 -0.017306
C7    C     C_2   0.019195 0.481889 0.294819 0.535933
C8    C     C_2   0.908224 0.517371 0.256532 0.148465
C9    C     C_R   0.012876 0.502232 0.100980 -0.089725
C10   C     C_R   0.993070 0.430283 0.122713 -0.120034
C11   C     C_R   0.997562 0.355310 0.091216 0.276792
C12   C     C_3   0.695160 0.238337 0.647631 0.316123
C13   C     C_R   0.997673 0.577855 0.130995 -0.162254
C14   C     C_2   0.847367 0.521221 0.358963 -0.389220
C15   C     C_2   0.364240 0.492371 0.642342 -0.090334
C16   C     C_3   0.251691 0.214519 0.693701 0.016401
C17   C     C_R   0.129759 0.421181 0.970492 0.022103
C18   C     C_R   0.079760 0.569173 0.974864 0.117531
C19   C     C_R   0.124648 0.493613 0.947210 0.077610
C20   C     C_R   0.202639 0.350501 0.944961 -0.211285
C21   C     C_R   0.246865 0.347004 0.895330 0.186739
C22   C     C_R   0.224476 0.416915 0.869535 0.069514
C23   C     C_3   0.517066 0.710770 0.638928 0.831864
C24   C     C_R   0.166240 0.490660 0.896075 -0.233126
C25   C     C_R   0.150511 0.561824 0.871768 -0.066785
C26   C     C_R   0.192733 0.558915 0.821344 0.697117
C27   C     C_R   0.261681 0.415768 0.818492 0.616148
C28   C     C_3   0.165507 0.281522 0.409764 1.226041
C29   C     C_2   0.426239 0.446943 0.726813 -0.211862
C30   C     C_3   0.450096 0.428663 0.671406 -0.061275
C31   C     C_1   0.220152 0.518731 0.656091 -0.065959
C32   C     C_2   0.176275 0.516695 0.703108 0.482096
C33   C     C_2   0.288098 0.483488 0.742338 0.161352
C34   C     C_3   0.501785 0.771973 0.686994 1.036606
C35   C     C_R   0.070660 0.422782 0.019571 0.061031
C36   C     C_R   0.047588 0.499144 0.049266 -0.016737
C37   C     C_R   0.058625 0.572804 0.027501 -0.127757
C38   C     C_R   0.029666 0.351759 0.039993 0.044208
C39   C     C_R   0.020158 0.649198 0.109944 -0.075056
C40   C     C_3   0.147983 0.191549 0.391529 0.413616
C41   C     C_R   0.055888 0.638165 0.948530 0.013353
C42   C     C_R   0.091600 0.634663 0.898353 -0.120378
C43   C     C_R   0.052069 0.647182 0.059694 0.610964
C44   C     C_R   0.396274 0.269406 0.520905 -0.056464
C45   C     C_3   0.992014 0.768758 0.344049 0.752340
C46   C     C_R   0.533397 0.243043 0.496632 0.016826
C47   C     C_R   0.579697 0.159623 0.488776 0.437468
C48   C     C_R   0.487006 0.101675 0.505090 0.272560
C49   C     C_R   0.343622 0.129032 0.526579 0.327714
C50   C     C_R   0.296688 0.212535 0.533964 -0.054593
C51   C     C_R   0.615541 0.853176 0.506483 -0.087857
C52   C     C_3   0.003038 0.726547 0.601010 0.916922
C53   C     C_R   0.659803 0.768494 0.500843 0.081398
C54   C     C_R   0.706737 0.908376 0.486028 0.204580
C55   C     C_R   0.796796 0.739812 0.475756 -0.156556
C56   C     C_3   0.031685 0.777222 0.290720 0.690817
C57   C     C_R   0.895056 0.794241 0.459648 0.105907
C58   C     C_R   0.850790 0.878514 0.464967 0.026970
C59   C     C_3   0.983124 0.813675 0.631920 0.315094
C60   C     C_3   0.637997 0.335665 0.364436 0.808879
C61   C     C_3   0.575153 0.306316 0.310101 0.312152
C62   C     C_3   0.533965 0.754106 0.363763 0.369649
C63   C     C_3   0.515523 0.835559 0.342214 0.543416
C64   C     C_R   0.961947 0.436146 0.174876 0.605776
F1    F     F_    0.216516 0.143055 0.425852 -0.646035
F2    F     F_    0.359708 0.861950 0.338340 -0.583057
F3    F     F_    0.157438 0.444399 0.279753 -0.677072
F4    F     F_    0.031326 0.546725 0.716649 -0.628795
F5    F     F_    0.089721 0.718279 0.044751 -0.695965
F6    F     F_    0.708600 0.135251 0.462392 -0.655773
F7    F     F_    0.318500 0.293486 0.421082 -0.735053
F8    F     F_    0.080479 0.302620 0.451718 -0.730975
F9    F     F_    0.860972 0.696721 0.589360 -0.774043
F10   F     F_    0.571864 0.412772 0.379293 -0.671960
F11   F     F_    0.636628 0.103045 0.666011 -0.690326
F12   F     F_    0.368687 0.694073 0.622453 -0.818955
F13   F     F_    0.473545 0.850939 0.675395 -0.692629
F14   F     F_    0.632588 0.768257 0.718994 -0.703496
F15   F     F_    0.883821 0.831699 0.358731 -0.731720
F16   F     F_    0.086622 0.852891 0.288066 -0.564004
H1    H     H_    0.758076 0.230642 0.612068 0.058099
H2    H     H_    0.477474 0.761396 0.400374 0.043352
H3    H     H_    0.576519 0.881384 0.368370 0.096808
H4    H     H_    0.511148 0.422133 0.753163 0.159981
H5    H     H_    0.232972 0.297442 0.963775 0.090717
H6    H     H_    0.694547 0.587228 0.246418 0.119191
H7    H     H_    0.015780 0.707769 0.132786 0.170505
H8    H     H_    0.003127 0.695269 0.965267 0.135153
H9    H     H_    0.253193 0.303017 0.641662 -0.007840
H10   H     H_    0.072283 0.689774 0.880326 0.170934
H11   H     H_    0.803079 0.508520 0.393927 0.126507
H12   H     H_    0.204233 0.174407 0.355265 0.023473
H13   H     H_    0.268313 0.085138 0.537430 -0.795887
H14   H     H_    0.309901 0.160576 0.671826 0.164915
H15   H     H_    0.114912 0.676636 0.537233 0.227165
H16   H     H_    0.174209 0.768352 0.561824 0.189308
H17   H     H_    0.890878 0.855320 0.700640 0.229010
H18   H     H_    0.758085 0.835464 0.655217 0.251397
H19   H     H_    0.916989 0.932023 0.619322 0.227244
H20   H     H_    0.829160 0.861045 0.580021 0.172283
H21   H     H_    0.163934 0.795977 0.683801 0.209190
H22   H     H_    0.217304 0.837941 0.632919 0.240314
H23   H     H_    0.022718 0.179268 0.386292 0.067209
H24   H     H_    0.852851 0.278853 0.356742 0.134817
H25   H     H_    0.841461 0.360625 0.400042 0.189833
H26   H     H_    0.922769 0.078591 0.685431 0.220106
H27   H     H_    0.889172 0.101710 0.626986 0.203920
H28   H     H_    0.586319 0.182678 0.318114 0.214137
H29   H     H_    0.591074 0.203282 0.258717 0.198190
H30   H     H_    0.604456 0.418426 0.286417 0.228644
H31   H     H_    0.750177 0.347652 0.271346 0.206082
H32   H     H_    0.364537 0.267471 0.326838 0.177731
H33   H     H_    0.363468 0.300981 0.270798 0.216633
H34   H     H_    0.403957 0.756229 0.708422 -0.007275
H35   H     H_    0.503375 0.185402 0.613778 0.182592
H36   H     H_    0.500810 0.282384 0.610631 0.112743
H37   H     H_    0.558517 0.615911 0.681431 0.115382
H38   H     H_    0.721290 0.651424 0.662442 0.271821
H39   H     H_    0.826551 0.227463 0.743001 0.193147
H40   H     H_    0.631787 0.217524 0.740676 0.220836
H41   H     H_    0.017927 0.371163 0.659332 0.203795
H42   H     H_    0.109916 0.357983 0.714247 0.155302
H43   H     H_    0.512005 0.795292 0.267160 0.212737
H44   H     H_    0.582941 0.887065 0.282406 0.229288
H45   H     H_    0.344104 0.248832 0.715512 0.107710
H46   H     H_    0.863526 0.259278 0.091326 0.205599
H47   H     H_    0.056787 0.238851 0.104393 0.186799
H48   H     H_    0.417324 0.256041 0.893264 0.189503
H49   H     H_    0.238820 0.226562 0.872332 0.187863
H50   H     H_    0.955666 0.289534 0.972619 0.226170
H51   H     H_    0.089934 0.235792 0.008564 0.187082
H52   H     H_    0.387793 0.567300 0.587699 0.243021
H53   H     H_    0.542627 0.518792 0.600943 0.230314
H54   H     H_    0.394090 0.853801 0.531251 0.237249
H55   H     H_    0.532637 0.881057 0.576319 0.241705
H56   H     H_    0.940830 0.709125 0.344377 -0.115530
H57   H     H_    0.985003 0.974218 0.481470 0.257560
H58   H     H_    0.895557 0.967857 0.423789 0.290166
H59   H     H_    0.266544 0.374209 0.509889 0.287807
H60   H     H_    0.340546 0.367996 0.570168 0.134960
H61   H     H_    0.120427 0.233985 0.755971 0.223411
H62   H     H_    0.208583 0.140674 0.746028 0.213792
H63   H     H_    0.762840 0.621138 0.450660 0.206209
H64   H     H_    0.879560 0.634801 0.504029 0.235113
H65   H     H_    0.121544 0.728943 0.277551 -0.008136
H66   H     H_    0.924086 0.772086 0.266322 0.006310
H67   H     H_    0.661258 0.739753 0.370381 -0.120308
N1    N     N_R   0.945993 0.511199 0.203637 -0.393882
N2    N     N_3   0.895359 0.127307 0.664457 -0.424920
N3    N     N_3   0.632032 0.221230 0.295370 -0.481823
N4    N     N_3   0.629197 0.356988 0.274075 -0.464173
N5    N     N_3   0.404087 0.312967 0.308080 -0.337849
N6    N     N_3   0.527807 0.239981 0.635401 -0.517256
N7    N     N_3   0.607381 0.637260 0.651132 -0.460313
N8    N     N_3   0.739583 0.187278 0.731845 -0.447929
N9    N     N_3   0.053234 0.327376 0.683155 -0.431940
N10   N     N_3   0.584215 0.828538 0.293288 -0.439879
N11   N     N_3   0.962802 0.281947 0.110649 -0.412953
N12   N     N_R   0.246353 0.486228 0.794834 -0.433426
N13   N     N_3   0.317194 0.271843 0.871879 -0.441521
N14   N     N_3   0.993881 0.278159 0.008736 -0.555570
N15   N     N_3   0.425134 0.509769 0.595903 -0.441319
N16   N     N_3   0.493963 0.885577 0.539336 -0.402533
N17   N     N_3   0.954984 0.933963 0.450045 -0.394969
N18   N     N_3   0.361196 0.354951 0.532290 -0.459371
N19   N     N_3   0.146995 0.186335 0.727971 -0.443622
N20   N     N_3   0.847404 0.655312 0.469741 -0.509141
N21   N     N_2   0.526854 0.015794 0.497900 -0.081841
N22   N     N_2   0.667848 0.994915 0.491230 -0.114193
N23   N     N_3   0.077932 0.733621 0.554550 -0.500411
N24   N     N_3   0.865644 0.813416 0.669473 -0.398887
N25   N     N_3   0.935394 0.875227 0.598114 -0.525730
N26   N     N_3   0.129885 0.837002 0.658163 -0.438887
N27   N     N_3   0.804869 0.338584 0.363934 -0.508926
O1    O     O_2   0.915540 0.542930 0.617950 -0.360485
O2    O     O_2   0.221774 0.789537 0.467990 -0.450175
O3    O     O_3   0.128322 0.773778 0.375106 -0.485388
O4    O     O_3   0.147530 0.542870 0.557780 -0.508805
O5    O     O_3   0.552080 0.402920 0.475380 -0.366211
O6    O     O_2   0.387280 0.697260 0.523450 -0.474676
O7    O     O_3   0.590569 0.745436 0.601958 -0.596319
O8    O     O_2   0.429570 0.535657 0.321885 -0.401292
O9    O     O_3   0.463467 0.692795 0.331013 -0.587052
O10   O     O_2   0.947412 0.374659 0.194550 -0.500729
O11   O     O_2   0.306321 0.351566 0.794870 -0.624736
O12   O     O_3   0.603724 0.279971 0.397238 -0.579778
O13   O     O_2   0.947213 0.647444 0.207004 -0.624699
O14   O     O_2   0.183963 0.621587 0.801360 -0.522012
O15   O     O_3   0.664390 0.396160 0.588360 -0.494950
O16   O     O_2   0.761919 0.470072 0.676670 -0.409851
O17   O     O_3   0.090702 0.673040 0.630048 -0.566238
O18   O     O_3   0.738606 0.311673 0.676652 -0.615549
O19   O     O_2   0.802410 0.302720 0.476520 -0.393334
O20   O     O_3   0.070880 0.354870 0.564040 -0.499198
O21   O     O_2   0.971229 0.209532 0.527700 -0.355224
O22   O     O_3   0.083612 0.218680 0.619611 -0.562417
O23   O     O_2   0.274150 0.457040 0.382020 -0.326562
O24   O     O_3   0.042160 0.457070 0.442220 -0.465683
O25   O     O_3   0.525310 0.603770 0.411640 -0.466567
O26   O     O_3   0.114969 0.327356 0.371099 -0.708627
O27   O     O_3   0.637620 0.597020 0.524620 -0.450820
O28   O     O_3   0.118810 0.645070 0.435950 -0.481406
P1    P     P_3+3 0.086060 0.566890 0.610430 1.138967
P2    P     P_3+3 0.625290 0.314770 0.461990 1.186154
P3    P     P_3+3 0.105800 0.248560 0.560286 1.148394
P4    P     P_3+3 0.103630 0.433040 0.389570 1.175025
P5    P     P_3+3 0.087987 0.751485 0.434849 1.023815
P6    P     P_3+3 0.657050 0.401844 0.653811 0.957175
P7    P     P_3+3 0.566627 0.700092 0.538617 1.112966
P8    P     P_3+3 0.542513 0.598605 0.347041 1.043044

loop_
_geom_bond_atom_site_label_1
_geom_bond_atom_site_label_2
_ccdc_geom_bond_type
C39   H7    S    
C19   C24   A    
H37   N7    S    
C12   N6    S    
C43   F5    S    
C50   P3    S    
C16   H14   S    
H53   N15   S    
C57   P5    S    
C59   N26   S    
C63   N10   S    
O27   P7    S    
H29   N3    S    
H55   N16   S    
C5    P8    S    
H44   N10   S    
O12   P2    S    
C24   C25   A    
C33   N12   S    
H15   N23   S    
Ba2   O4    S    
H62   N19   S    
Ba2   O24   S    
H27   N2    S    
C7    F3    S    
C64   N1    Am   
C35   C38   A    
H28   N3    S    
C56   F16   S    
C36   C37   A    
C28   F8    S    
Ba1   O4    S    
C56   H66   S    
C55   C57   A    
H54   N16   S    
O7    P7    S    
C4    H9    S    
C44   C50   A    
H38   N7    S    
C32   C33   S    
Ba2   O6    S    
C6    P4    S    
C22   C27   A    
C62   H2    S    
C11   C38   A    
C45   O3    S    
C17   C35   A    
H60   N18   S    
C3    H6    S    
C9    C13   A    
C25   C42   A    
O1    P1    D    
C6    C7    D    
C47   F6    S    
H42   N9    S    
O28   P5    S    
H35   N6    S    
H24   N27   S    
C21   C22   A    
Ba1   P1    S    
C7    C8    S    
C32   F4    S    
O25   P8    S    
C4    O22   S    
C62   O9    S    
C42   H10   S    
C37   C43   A    
C21   N13   S    
H16   N23   S    
H48   N13   S    
C12   O18   S    
C57   C58   A    
O24   P4    S    
C52   O17   S    
O26   P4    S    
C23   N7    S    
C60   F10   S    
H19   N25   S    
Ba2   O25   S    
C15   C31   D    
C12   H1    S    
C4    C16   S    
H51   N14   S    
C4    N9    S    
C26   N12   Am   
O8    P8    D    
H22   N26   S    
C55   N20   S    
C51   C53   A    
H58   N17   S    
C31   C32   D    
C28   O26   S    
H63   N20   S    
H59   N18   S    
C41   H8    S    
O17   P1    S    
C44   N18   S    
C59   N25   S    
C23   F12   S    
C34   H34   S    
C27   N12   Am   
C17   C20   A    
C59   N24   S    
C13   C39   A    
C38   N14   S    
C34   F14   S    
H31   N4    S    
C3    C5    S    
C28   F7    S    
C16   N19   S    
C56   H65   S    
O15   P6    S    
H49   N13   S    
C29   H4    S    
C10   C64   A    
C58   N17   S    
H25   N27   S    
C49   C50   A    
O2    P5    D    
Ba2   O5    S    
O23   P4    D    
H57   N17   S    
C41   C42   A    
C35   C36   A    
C15   N15   S    
C52   N23   S    
C16   H45   S    
O18   P6    S    
H26   N2    S    
C30   P6    S    
C29   C30   S    
H17   N24   S    
C63   F2    S    
C60   N27   S    
Ba1   O20   S    
C60   C61   S    
H21   N26   S    
C48   C49   A    
C14   H11   S    
O9    P8    S    
Ba2   O28   S    
H36   N6    S    
C48   N21   S    
C20   H5    S    
C10   C11   A    
Ba1   P2    S    
O16   P6    D    
C1    C12   S    
Ba1   O15   S    
C51   N16   S    
C46   C47   A    
C52   C59   S    
H30   N4    S    
C64   O10   D    
C54   N22   S    
C40   F1    S    
C29   C33   D    
O21   P3    D    
Ba1   O24   S    
Ba2   P4    S    
O4    P1    S    
Ba1   O27   S    
H18   N24   S    
C18   C41   A    
H46   N11   S    
C60   O12   S    
C51   C54   A    
C18   C37   A    
C5    C14   S    
Ba1   O5    S    
C11   N11   S    
Ba1   O19   S    
O22   P3    S    
C40   H12   S    
C2    O13   D    
Ba2   O27   S    
C61   N5    S    
C22   C24   A    
C34   F13   S    
C26   O14   D    
C9    C10   A    
H43   N10   S    
C63   H3    S    
H41   N9    S    
H20   N25   S    
C2    N1    Am   
O3    P5    S    
C1    N2    S    
C62   H67   S    
C62   C63   S    
O20   P3    S    
C53   C55   A    
O5    P2    S    
H50   N14   S    
C3    C8    D    
H33   N5    S    
C8    N1    S    
C45   C56   S    
O19   P2    D    
Ba2   O23   S    
C2    C13   A    
Ba1   Ba2   S    
C45   H56   S    
O6    P7    D    
H40   N8    S    
H52   N15   S    
C45   F15   S    
C40   H23   S    
C61   N3    S    
C23   C34   S    
C53   P7    S    
C52   F9    S    
C44   C46   A    
C27   O11   D    
C31   P1    S    
C54   C58   A    
C18   C19   A    
C6    C14   D    
C47   C48   A    
N21   N22   D    
H64   N20   S    
C46   P2    S    
C25   C26   A    
C1    N8    S    
C15   C30   S    
C39   C43   A    
C20   C21   A    
C28   C40   S    
C9    C36   A    
H39   N8    S    
H61   N19   S    
C61   N4    S    
Ba1   O1    S    
H32   N5    S    
H47   N11   S    
C23   O7    S    
C49   H13   S    
C17   C19   A    
C1    F11   S    
