data_mof_unit_3081.cif
_audit_creation_date              2013-03-05T16:34:04-0500
_audit_creation_method            fapswitch 2.2
_symmetry_space_group_name_H-M    P1
_symmetry_Int_Tables_number       1
_space_group_crystal_system       triclinic
_cell_length_a                    9.586205
_cell_length_b                    10.860689
_cell_length_c                    17.002597
_cell_angle_alpha                 88.653784
_cell_angle_beta                  94.149404
_cell_angle_gamma                 89.46546
_cell_volume                      1764.95244559

loop_
_atom_site_label
_atom_site_type_symbol
_atom_site_description
_atom_site_fract_x
_atom_site_fract_y
_atom_site_fract_z
_atom_type_partial_charge
O1    O     O_R   0.618810 0.319640 0.500000 -0.551422
O2    O     O_R   0.381230 0.319680 0.499990 -0.579414
C1    C     C_R   0.500543 0.262864 0.500776 0.806393
O3    O     O_R   0.631790 0.498830 0.613930 -0.605577
O4    O     O_R   0.394210 0.498870 0.613920 -0.596327
C2    C     C_R   0.517525 0.502749 0.650829 0.780444
Cu1   Cu    Cu3+1 0.640670 0.499980 0.500000 0.972465
Cu2   Cu    Cu3+1 0.359330 0.500020 0.500000 0.990551
O5    O     O_R   0.618770 0.680320 0.500010 -0.597006
O6    O     O_R   0.381190 0.680360 0.500000 -0.535752
O7    O     O_R   0.605790 0.501130 0.386080 -0.573794
O8    O     O_R   0.368210 0.501170 0.386070 -0.594833
C3    C     C_R   0.499718 0.737127 0.501619 0.809991
C4    C     C_R   0.482546 0.500143 0.349218 0.806745
C5    C     C_R   0.528736 0.507304 0.737237 -0.037958
C6    C     C_R   0.437029 0.580289 0.779421 0.114172
C7    C     C_R   0.448150 0.572304 0.861965 -0.195454
C8    C     C_R   0.550752 0.497103 0.902604 0.351388
C9    C     C_R   0.646195 0.432571 0.860714 -0.190322
C10   C     C_R   0.634425 0.436385 0.778662 -0.274940
C11   C     C_R   0.557104 0.565131 0.138909 -0.151622
C12   C     C_R   0.562662 0.569928 0.220712 -0.218081
C13   C     C_R   0.460563 0.487925 0.098548 0.375837
N1    N     N_2   0.564125 0.491029 0.985895 -0.255354
N2    N     N_2   0.448851 0.484912 0.015300 -0.264125
C14   C     C_R   0.473326 0.496961 0.263213 -0.026186
H1    H     H_    0.634326 0.632700 0.250610 0.146599
H2    H     H_    0.625886 0.623391 0.106996 0.150513
H3    H     H_    0.727731 0.376810 0.891775 0.150705
H4    H     H_    0.706842 0.382025 0.747353 0.155353
C15   C     C_R   0.376543 0.420465 0.223092 -0.236274
C16   C     C_R   0.368659 0.417761 0.140949 -0.170187
H5    H     H_    0.307385 0.363065 0.255354 0.157740
H6    H     H_    0.379528 0.627562 0.895196 0.147730
H7    H     H_    0.292564 0.359517 0.110310 0.147861
C17   C     C_R   0.621974 0.060594 0.512822 0.025804
C18   C     C_R   0.499801 0.130270 0.501505 -0.107491
C19   C     C_R   0.372479 0.066297 0.492450 -0.183905
H8    H     H_    0.273189 0.115040 0.484351 0.207811
C20   C     C_R   0.372104 0.937391 0.494367 -0.133539
H9    H     H_    0.273041 0.891669 0.488913 0.246124
C21   C     C_R   0.498559 0.869829 0.504060 -0.100008
C22   C     C_R   0.621127 0.936165 0.515405 -0.007016
C23   C     C_3   0.774783 0.923862 0.536601 -0.091483
C24   C     C_3   0.775885 0.066685 0.533436 0.158347
H10   H     H_    0.829738 0.878327 0.489685 0.240756
H11   H     H_    0.802319 0.111434 0.590762 0.093887
C25   C     C_R   0.063553 0.507360 0.430169 0.159397
N3    N     N_R   0.147870 0.500930 0.499500 -0.173628
C26   C     C_R   0.082878 0.481498 0.567823 -0.021812
H12   H     H_    0.143869 0.466562 0.623105 0.120209
C27   C     C_R   0.934813 0.482139 0.567874 -0.022942
H13   H     H_    0.887933 0.468855 0.623262 0.124494
N4    N     N_R   0.851960 0.500890 0.499500 -0.170645
C28   C     C_R   0.916516 0.506002 0.431121 0.248142
C29   C     C_3   0.890560 0.601807 0.368854 -0.514390
C30   C     C_3   0.049058 0.609961 0.366928 0.354411
H14   H     H_    0.836348 0.560139 0.316432 0.183377
H15   H     H_    0.837948 0.685310 0.389817 0.225116
C31   C     C_3   0.806766 0.866991 0.619826 -0.424158
C32   C     C_3   0.962765 0.870474 0.644995 -0.794925
H16   H     H_    0.022745 0.812927 0.605976 0.288755
H17   H     H_    0.001596 0.966427 0.642998 0.255714
H18   H     H_    0.981063 0.833202 0.706285 0.229078
H19   H     H_    0.747815 0.916587 0.663636 0.201530
H20   H     H_    0.772956 0.769446 0.620473 0.235978
N5    N     N_R   0.852081 0.116917 0.468632 0.156685
O9    O     O_R   0.824678 0.081440 0.396581 -0.338438
O10   O     O_R   0.949845 0.197169 0.483171 -0.384649
C33   C     C_3   0.099143 0.575209 0.285427 -0.391381
C34   C     C_3   0.031533 0.653433 0.216376 -0.774019
H21   H     H_    0.920158 0.629288 0.203543 0.230879
H22   H     H_    0.038642 0.753149 0.228762 0.292627
H23   H     H_    0.086986 0.635644 0.162548 0.239054
H24   H     H_    0.212501 0.590197 0.285432 0.249989
H25   H     H_    0.078433 0.476430 0.273945 0.182612
N6    N     N_R   0.103261 0.727935 0.395884 0.158296
O11   O     O_R   0.060946 0.772077 0.460633 -0.432966
O12   O     O_R   0.193915 0.789659 0.357777 -0.372504
C35   C     C_3   0.333489 0.672966 0.739748 -0.405072
C36   C     C_3   0.408373 0.784129 0.706672 -0.805179
H26   H     H_    0.464166 0.834371 0.755436 0.246276
H27   H     H_    0.485371 0.755253 0.664991 0.228821
H28   H     H_    0.330764 0.847595 0.675007 0.245132
H29   H     H_    0.265544 0.630350 0.692847 0.219260
H30   H     H_    0.260944 0.707504 0.782604 0.191729

loop_
_geom_bond_atom_site_label_1
_geom_bond_atom_site_label_2
_geom_bond_distance
_ccdc_geom_bond_type
C25   C28   1.411000 A    
C28   C29   1.473338 S    
C9    C10   1.391107 A    
C36   H26   1.110746 S    
C25   C30   1.528509 S    
C10   H4    1.083725 S    
N6    O11   1.300838 A    
C27   H13   1.079690 S    
Cu1   O7    1.941324 S    
C35   H29   1.105510 S    
C8    N1    1.412603 S    
C17   C18   1.387567 A    
O4    C2    1.299160 A    
O7    C4    1.296973 A    
C5    C6    1.421472 A    
C29   C30   1.525460 S    
C8    C9    1.393340 A    
C24   H11   1.113215 S    
C32   H17   1.110460 S    
O5    C3    1.294615 A    
C35   H30   1.112027 S    
C2    C5    1.467344 S    
C6    C35   1.518513 S    
C23   H10   1.110351 S    
C6    C7    1.400371 A    
C24   N5    1.463174 S    
C26   C27   1.419393 A    
C15   H5    1.083188 S    
C33   C34   1.533930 S    
C30   C33   1.552646 S    
C21   C22   1.387913 A    
C20   C21   1.408507 A    
C31   H20   1.110806 S    
C14   C15   1.402055 A    
C11   C12   1.390254 A    
O3    Cu1   1.944870 S    
C3    C21   1.442778 S    
C36   H27   1.107800 S    
C27   N4    1.369677 A    
C26   H12   1.078507 S    
N6    O12   1.302436 A    
C5    C10   1.404461 A    
N5    O9    1.302189 A    
C16   H7    1.082938 S    
C30   N6    1.469388 S    
Cu1   Cu2   2.696979 S    
N1    N2    1.247095 D    
O3    C2    1.301951 A    
C34   H22   1.109902 S    
C31   C32   1.526462 S    
N5    O10   1.300365 A    
C32   H18   1.110392 S    
C22   C23   1.494877 S    
C18   C19   1.410606 A    
C34   H23   1.111004 S    
C15   C16   1.394234 A    
Cu2   O8    1.944872 S    
C7    C8    1.404293 A    
C17   C24   1.494045 S    
C4    C14   1.459825 S    
C20   H9    1.074813 S    
C11   H2    1.083029 S    
O8    C4    1.301358 A    
C31   H19   1.112847 S    
C12   H1    1.081496 S    
C11   C13   1.407164 A    
C33   H25   1.112048 S    
C7    H6    1.083748 S    
C9    H3    1.083045 S    
C36   H28   1.110627 S    
C23   C24   1.550985 S    
Cu1   O5    1.967893 S    
N4    C28   1.356276 A    
C25   N3    1.380214 A    
O1    Cu1   1.971738 S    
O2    Cu2   1.967893 S    
C35   C36   1.527048 S    
O6    C3    1.296621 A    
O4    Cu2   1.941324 S    
C29   H15   1.111999 S    
C13   C16   1.398302 A    
O2    C1    1.293587 A    
C34   H21   1.109268 S    
C19   C20   1.399662 A    
C19   H8    1.083208 S    
C23   C31   1.539639 S    
C29   H14   1.107067 S    
C13   N2    1.412920 S    
C32   H16   1.108758 S    
C1    C18   1.439906 S    
Cu2   O6    1.971738 S    
N3    C26   1.370342 A    
C12   C14   1.399613 A    
C33   H24   1.100288 S    
C17   C22   1.351181 A    
Cu1   N4    2.026217 S    
O1    C1    1.296368 A    
Cu2   N3    2.026431 S    
