data_mof_unit_2495.cif
_audit_creation_date              2012-12-10T18:42:35-0500
_audit_creation_method            fapswitch 2.2
_symmetry_space_group_name_H-M    P1
_symmetry_Int_Tables_number       1
_space_group_crystal_system       triclinic
_cell_length_a                    8.557958
_cell_length_b                    10.698163
_cell_length_c                    9.931664
_cell_angle_alpha                 89.272762
_cell_angle_beta                  97.590227
_cell_angle_gamma                 91.960528
_cell_volume                      900.762466289

loop_
_atom_site_label
_atom_site_type_symbol
_atom_type_description
_atom_site_fract_x
_atom_site_fract_y
_atom_site_fract_z
_atom_type_partial_charge
C1    C     C_R   0.499051 0.260160 0.500389 0.854546
C2    C     C_R   0.541779 0.063759 0.622534 -0.204704
C3    C     C_R   0.501626 0.872450 0.499333 -0.002348
C4    C     C_R   0.498374 0.127550 0.500666 -0.002348
C5    C     C_R   0.595961 0.583146 0.078835 0.161580
C6    C     C_R   0.404039 0.416854 0.921165 0.161580
C7    C     C_R   0.591602 0.583642 0.935293 -0.118367
C8    C     C_R   0.408398 0.416358 0.064707 -0.118367
C9    C     C_3   0.707773 0.678355 0.155474 -0.405050
C10   C     C_3   0.879587 0.664538 0.128933 -0.386238
C11   C     C_3   0.992537 0.750775 0.220105 -0.852073
C12   C     C_R   0.500949 0.739840 0.499611 0.854546
C13   C     C_3   0.292227 0.321645 0.844526 -0.405050
C14   C     C_3   0.120412 0.335462 0.871067 -0.386237
C15   C     C_3   0.007462 0.249225 0.779895 -0.852072
C16   C     C_R   0.201700 0.497606 0.465052 0.971305
C17   C     C_R   0.798300 0.502394 0.534948 0.971306
C18   C     C_2   0.036904 0.488588 0.447284 -0.395882
C19   C     C_2   0.963096 0.511412 0.552716 -0.395881
C20   C     C_R   0.456347 0.064260 0.378155 -0.193437
C21   C     C_R   0.543653 0.935740 0.621844 -0.193437
C22   C     C_R   0.458221 0.936241 0.377466 -0.204704
H1    H     H_    0.976587 0.460878 0.348557 0.180653
H2    H     H_    0.983786 0.730814 0.328859 0.264589
H3    H     H_    0.115670 0.736057 0.201368 0.257045
H4    H     H_    0.914540 0.566201 0.146993 0.228967
H5    H     H_    0.892243 0.688757 0.021819 0.211650
H6    H     H_    0.668944 0.773730 0.124133 0.174956
H7    H     H_    0.706321 0.670642 0.264780 0.273646
H8    H     H_    0.016215 0.269185 0.671141 0.264589
H9    H     H_    0.035610 0.149917 0.802352 0.254732
H10   H     H_    0.884330 0.263945 0.798631 0.257046
H11   H     H_    0.107757 0.311244 0.978181 0.211649
H12   H     H_    0.023413 0.539122 0.651443 0.180653
H13   H     H_    0.085460 0.433799 0.853007 0.228967
H14   H     H_    0.293679 0.329358 0.735220 0.273646
H15   H     H_    0.331056 0.226270 0.875867 0.174956
H16   H     H_    0.421261 0.113330 0.283418 0.149565
H17   H     H_    0.578739 0.886670 0.716582 0.149565
H18   H     H_    0.424221 0.887525 0.282537 0.152591
H19   H     H_    0.575779 0.112475 0.717463 0.152591
H20   H     H_    0.662149 0.651027 0.885441 0.135465
H21   H     H_    0.337851 0.348973 0.114559 0.135465
H22   H     H_    0.964388 0.850083 0.197650 0.254732
N1    N     N_R   0.499960 0.499970 0.857200 -0.110171
N2    N     N_R   0.500040 0.500030 0.142800 -0.110171
O1    O     O_R   0.499990 0.316750 0.614620 -0.651815
O2    O     O_R   0.500010 0.683250 0.385380 -0.651815
O3    O     O_R   0.499990 0.316780 0.385290 -0.625509
O4    O     O_R   0.500010 0.683220 0.614710 -0.625509
O5    O     O_R   0.271750 0.499990 0.587840 -0.622928
O6    O     O_R   0.728250 0.500010 0.412160 -0.622928
O7    O     O_R   0.271750 0.500010 0.358510 -0.622725
O8    O     O_R   0.728250 0.499990 0.641490 -0.622726
Zn1   Zn    Zn3+2 0.500000 0.499980 0.653120 0.919955
Zn2   Zn    Zn3+2 0.500000 0.500020 0.346880 0.919955

loop_
_geom_bond_atom_site_label_1
_geom_bond_atom_site_label_2
_ccdc_geom_bond_type
C10   H5    S    
C12   O4    A    
C8    H21   S    
C5    C9    S    
C6    N1    A    
O3    Zn2   S    
C20   H16   S    
C9    C10   S    
C2    C4    A    
O4    Zn1   S    
C21   H17   S    
C16   O5    A    
C9    H7    S    
C12   O2    A    
C1    C4    S    
C22   H18   S    
C10   H4    S    
C2    C21   A    
C5    C7    A    
C11   H22   S    
C13   C14   S    
C16   O7    A    
C6    C13   S    
C15   H9    S    
C5    N2    A    
C13   H15   S    
C14   H11   S    
C7    N1    A    
C17   O6    A    
O1    Zn1   S    
C17   C19   S    
C20   C22   A    
O5    Zn1   S    
C8    N2    A    
C3    C21   A    
O7    Zn2   S    
C10   C11   S    
C11   H3    S    
C2    H19   S    
C18   H1    S    
C4    C20   A    
C11   H2    S    
C15   H10   S    
N1    Zn1   S    
C13   H14   S    
C16   C18   S    
C18   C19   D    
C15   H8    S    
C7    H20   S    
N2    Zn2   S    
C14   H13   S    
O2    Zn2   S    
O8    Zn1   S    
C1    O1    A    
C3    C22   A    
C6    C8    A    
C3    C12   S    
C14   C15   S    
C1    O3    A    
C17   O8    A    
O6    Zn2   S    
C9    H6    S    
C19   H12   S    
