data_mof_unit_2450.cif
_audit_creation_date              2012-12-10T17:08:12-0500
_audit_creation_method            fapswitch 2.2
_symmetry_space_group_name_H-M    P1
_symmetry_Int_Tables_number       1
_space_group_crystal_system       triclinic
_cell_length_a                    23.52722
_cell_length_b                    11.091291
_cell_length_c                    9.790801
_cell_angle_alpha                 111.014725
_cell_angle_beta                  98.648127
_cell_angle_gamma                 91.499215
_cell_volume                      2348.94242746

loop_
_atom_site_label
_atom_site_type_symbol
_atom_type_description
_atom_site_fract_x
_atom_site_fract_y
_atom_site_fract_z
_atom_type_partial_charge
C1    C     C_R   0.495753 0.253838 0.440312 0.750158
C2    C     C_R   0.504225 0.746303 0.559676 0.739102
C3    C     C_R   0.234852 0.519199 0.364953 -0.167415
C4    C     C_R   0.748745 0.457498 0.349400 -0.169511
C5    C     C_R   0.294439 0.524717 0.380396 -0.285829
C6    C     C_R   0.690438 0.460107 0.358846 -0.254994
C7    C     C_R   0.327878 0.499887 0.497410 -0.184687
C8    C     C_R   0.672192 0.501880 0.497621 -0.191724
C9    C     C_R   0.300016 0.470319 0.601436 0.276741
C10   C     C_R   0.714438 0.541828 0.628979 0.271115
C11   C     C_R   0.239580 0.467991 0.587977 0.424021
C12   C     C_R   0.773253 0.534010 0.618232 0.432078
C13   C     C_R   0.206885 0.491168 0.467501 0.176531
C14   C     C_R   0.790161 0.494540 0.478090 0.194394
C15   C     C_2   0.492863 0.113919 0.405468 0.260833
C16   C     C_2   0.507925 0.886607 0.594381 0.281106
C17   C     C_2   0.512543 0.069207 0.512123 -0.212355
C18   C     C_2   0.507768 0.930483 0.483613 -0.209503
C19   C     C_2   0.504862 0.511195 0.081845 -0.060453
C20   C     C_2   0.495668 0.487770 0.918010 -0.037254
C21   C     C_R   0.390774 0.499089 0.500266 0.854087
C22   C     C_R   0.609373 0.501832 0.500006 0.875665
C23   C     C_R   0.881690 0.605456 0.492014 0.613367
C24   C     C_R   0.113769 0.374465 0.428241 0.629029
C25   C     C_R   0.874110 0.376595 0.428155 0.552959
C26   C     C_R   0.118658 0.596743 0.454701 0.538458
C27   C     C_R   0.933993 0.373292 0.429991 -0.161850
C28   C     C_R   0.058985 0.601411 0.457909 -0.146087
C29   C     C_R   0.966720 0.488209 0.447716 -0.132891
C30   C     C_R   0.026434 0.486993 0.442689 -0.136090
C31   C     C_R   0.939718 0.604454 0.471378 -0.182034
C32   C     C_R   0.053474 0.370858 0.420972 -0.180514
C33   C     C_R   0.961853 0.258711 0.413639 0.385674
C34   C     C_R   0.031092 0.716519 0.475496 0.364427
C35   C     C_R   0.019871 0.255113 0.396191 0.347894
C36   C     C_R   0.971253 0.715690 0.473305 0.373674
Cu1   Cu    Cu3+1 0.509980 0.521810 0.644910 1.012988
Cu2   Cu    Cu3+1 0.490020 0.478190 0.355090 0.955686
H1    H     H_    0.555078 0.626610 0.936173 0.225185
H2    H     H_    0.444370 0.374617 0.064032 0.214108
H3    H     H_    0.210138 0.536015 0.271822 0.185185
H4    H     H_    0.761908 0.426383 0.241524 0.172368
H5    H     H_    0.314384 0.547409 0.298728 0.196410
H6    H     H_    0.659525 0.429295 0.256434 0.198947
H7    H     H_    0.501583 0.863065 0.369062 0.187538
H8    H     H_    0.529790 0.136217 0.623886 0.193168
H9    H     H_    0.463344 0.412151 0.843507 0.194217
H10   H     H_    0.537732 0.585763 0.156168 0.164753
N1    N     N_R   0.850104 0.492189 0.466146 -0.440709
N2    N     N_R   0.144938 0.486938 0.448888 -0.456012
N3    N     N_2   0.475010 0.445410 0.137370 -0.279693
N4    N     N_2   0.524990 0.554590 0.862630 -0.270691
O1    O     O_R   0.505330 0.332340 0.577400 -0.606003
O2    O     O_R   0.494670 0.667660 0.422600 -0.610154
O3    O     O_R   0.488470 0.295500 0.332650 -0.552205
O4    O     O_R   0.511530 0.704500 0.667350 -0.545536
O5    O     O_R   0.426310 0.518390 0.622390 -0.534473
O6    O     O_R   0.573690 0.481610 0.377610 -0.587577
O7    O     O_R   0.409450 0.481550 0.377650 -0.585434
O8    O     O_R   0.590550 0.518450 0.622350 -0.510741
O9    O     O_2   0.856861 0.718176 0.537952 -0.501485
O10   O     O_2   0.141508 0.267219 0.416622 -0.494649
O11   O     O_2   0.839940 0.265831 0.389208 -0.524483
O12   O     O_2   0.150679 0.701085 0.459109 -0.536204
O13   O     O_3   0.933218 0.147544 0.412523 -0.582453
C37   C     C_3   0.926537 0.161984 0.559156 0.134190
H11   H     H_    0.893997 0.084321 0.550798 0.196491
H12   H     H_    0.909139 0.254571 0.618448 0.118565
C38   C     C_3   0.983056 0.149317 0.651281 -0.357920
H13   H     H_    0.001970 0.061809 0.584843 0.282210
H14   H     H_    0.013922 0.235125 0.676651 0.200423
C39   C     C_3   0.973087 0.138682 0.797275 -0.919278
H15   H     H_    0.952441 0.224422 0.862724 0.252218
H16   H     H_    0.014965 0.134712 0.864217 0.240978
H17   H     H_    0.945141 0.049200 0.775374 0.290724
O14   O     O_3   0.060869 0.828364 0.482288 -0.573239
C40   C     C_3   0.085863 0.901015 0.631468 0.078905
H18   H     H_    0.111006 0.840812 0.684546 0.153671
H19   H     H_    0.051688 0.940764 0.697635 0.150604
C41   C     C_3   0.126872 0.011706 0.634005 -0.258662
H20   H     H_    0.161656 0.970302 0.570503 0.259374
H21   H     H_    0.103139 0.071915 0.579229 0.259388
C42   C     C_3   0.154287 0.098261 0.791677 -0.943718
H22   H     H_    0.120707 0.147377 0.854936 0.246062
H23   H     H_    0.185258 0.173621 0.787483 0.291070
H24   H     H_    0.178061 0.040242 0.849619 0.262374
O15   O     O_3   0.043854 0.137559 0.361158 -0.585377
C43   C     C_3   0.044114 0.086792 0.206496 0.090801
H25   H     H_    0.061853 0.160463 0.167162 0.135521
H26   H     H_    0.999421 0.053170 0.145268 0.151466
C44   C     C_3   0.081978 0.973235 0.170221 -0.258850
H27   H     H_    0.127031 0.008736 0.227688 0.254588
H28   H     H_    0.066685 0.898455 0.210331 0.239048
C45   C     C_3   0.081478 0.911900 0.003583 -1.009144
H29   H     H_    0.037971 0.864432 0.944669 0.260791
H30   H     H_    0.113419 0.838553 0.980966 0.265149
H31   H     H_    0.093511 0.987045 0.960655 0.261365
O16   O     O_3   0.944908 0.827076 0.478004 -0.585398
C46   C     C_3   0.910579 0.807773 0.338338 0.146528
H32   H     H_    0.876354 0.875950 0.358833 0.202376
H33   H     H_    0.887652 0.709004 0.282109 0.107130
C47   C     C_3   0.946615 0.836217 0.234179 -0.390697
H34   H     H_    0.977002 0.922738 0.298526 0.296957
H35   H     H_    0.972124 0.752775 0.187480 0.201963
C48   C     C_3   0.908632 0.861285 0.107652 -0.821054
H36   H     H_    0.872785 0.784137 0.052903 0.282716
H37   H     H_    0.934812 0.863752 0.023278 0.242332
H38   H     H_    0.889946 0.955764 0.150827 0.296701
Cl1   Cl    Cl    0.338406 0.427772 0.744509 -0.660084
Cl2   Cl    Cl    0.696704 0.606691 0.809016 -0.576361
O17   O     O_3   0.212569 0.423734 0.679435 -0.551608
C49   C     C_3   0.193997 0.528907 0.790243 0.079575
H39   H     H_    0.162477 0.581004 0.740388 0.126951
H40   H     H_    0.231452 0.598149 0.860222 0.148594
C50   C     C_3   0.164626 0.475558 0.888609 -0.317401
H41   H     H_    0.130803 0.397023 0.817758 0.232582
H42   H     H_    0.197151 0.433642 0.949409 0.229566
C51   C     C_3   0.136565 0.580201 0.000333 -0.935072
H43   H     H_    0.168695 0.663088 0.068576 0.269657
H44   H     H_    0.118975 0.539342 0.075205 0.263950
H45   H     H_    0.100347 0.614449 0.941140 0.257968
O18   O     O_3   0.814781 0.571375 0.745216 -0.546265
C52   C     C_3   0.826225 0.461222 0.782189 0.097338
H46   H     H_    0.833744 0.376933 0.684773 0.125601
H47   H     H_    0.788987 0.432302 0.825020 0.148118
C53   C     C_3   0.879590 0.491626 0.903514 -0.353033
H48   H     H_    0.870460 0.565344 0.007504 0.214905
H49   H     H_    0.888764 0.402438 0.926640 0.164336
C54   C     C_3   0.932942 0.539832 0.859450 -0.758828
H50   H     H_    0.943659 0.466276 0.757594 0.226339
H51   H     H_    0.970409 0.558857 0.950280 0.221614
H52   H     H_    0.925725 0.630974 0.839306 0.284984
O19   O     O_3   0.517100 0.972452 0.741042 -0.586708
C55   C     C_3   0.465686 0.977625 0.801109 0.085012
H53   H     H_    0.478456 0.006424 0.923189 0.200717
H54   H     H_    0.439665 0.882217 0.760903 0.116966
C56   C     C_3   0.428719 0.080054 0.770678 -0.378290
H55   H     H_    0.455351 0.174050 0.809297 0.226910
H56   H     H_    0.413038 0.049818 0.649420 0.217126
C57   C     C_3   0.376720 0.098420 0.850091 -0.881125
H57   H     H_    0.349251 0.005670 0.812804 0.257466
H58   H     H_    0.350549 0.171739 0.824112 0.298050
H59   H     H_    0.391169 0.133060 0.972139 0.252383
O20   O     O_3   0.471207 0.028801 0.262391 -0.600263
C58   C     C_3   0.410258 0.021172 0.241289 0.037519
H60   H     H_    0.394745 0.108994 0.222922 0.155818
H61   H     H_    0.393460 0.012704 0.338623 0.136627
C59   C     C_3   0.386269 0.900687 0.105137 -0.304607
H62   H     H_    0.403332 0.904533 0.007018 0.218264
H63   H     H_    0.400627 0.812729 0.124913 0.230914
C60   C     C_3   0.320449 0.890248 0.071861 -0.913658
H64   H     H_    0.302229 0.882523 0.166996 0.261535
H65   H     H_    0.304675 0.802310 0.972000 0.257178
H66   H     H_    0.305138 0.976482 0.049784 0.259228

loop_
_geom_bond_atom_site_label_1
_geom_bond_atom_site_label_2
_ccdc_geom_bond_type
C37   H12   S    
O15   C43   S    
C53   H48   S    
C27   C29   A    
O17   C49   S    
C57   H59   S    
C55   C56   S    
C49   H40   S    
C58   H60   S    
C33   O13   S    
C52   H46   S    
C40   H18   S    
C27   C33   A    
C48   H37   S    
Cu1   Cu2   S    
C57   H58   S    
C21   O7    A    
C41   C42   S    
C22   O8    A    
C52   H47   S    
C37   C38   S    
C50   H41   S    
C47   C48   S    
C15   C17   D    
C25   O11   S    
C60   H66   S    
C38   H14   S    
C1    O1    A    
C51   H43   S    
C26   O12   S    
Cu2   O6    S    
Cu1   O4    S    
C35   O15   S    
Cu2   O3    S    
C19   C20   S    
C50   H42   S    
C8    C22   S    
C60   H64   S    
C59   C60   S    
C1    C15   S    
C2    C16   S    
C3    C13   A    
C39   H15   S    
C54   H52   S    
Cu1   O1    S    
C37   H11   S    
C5    H5    S    
C28   C34   A    
C6    H6    S    
C24   N2    A    
C47   H34   S    
C39   H17   S    
C16   O19   S    
C49   H39   S    
C58   H61   S    
C25   N1    A    
C40   H19   S    
C9    Cl1   S    
C56   C57   S    
C11   O17   S    
Cu1   O8    S    
C32   C35   A    
C17   H8    S    
C41   H21   S    
C2    O2    A    
C44   H27   S    
C5    C7    A    
Cu1   N4    S    
C19   H10   S    
C41   H20   S    
C52   C53   S    
C55   H54   S    
Cu2   N3    S    
C53   C54   S    
C7    C21   S    
C15   O20   S    
H1    N4    S    
C51   H45   S    
C23   C31   A    
C38   C39   S    
C45   H30   S    
C24   C32   A    
C21   O5    A    
C29   C30   A    
C44   H28   S    
C56   H56   S    
C42   H22   S    
Cu2   O2    S    
C43   C44   S    
C29   C31   A    
C50   C51   S    
C42   H24   S    
C17   C18   S    
C45   H29   S    
C16   C18   D    
C48   H38   S    
O14   C40   S    
C47   H35   S    
C9    C11   A    
C10   C12   A    
C59   H63   S    
C39   H16   S    
C46   H33   S    
C43   H26   S    
O16   C46   S    
O19   C55   S    
C4    C6    A    
C18   H7    S    
C58   C59   S    
C54   H50   S    
C48   H36   S    
C40   C41   S    
C7    C9    A    
C3    H3    S    
C53   H49   S    
C42   H23   S    
C31   C36   A    
C12   C14   A    
O20   C58   S    
C3    C5    A    
C22   O6    A    
C6    C8    A    
C55   H53   S    
C25   C27   A    
H2    N3    S    
C56   H55   S    
C26   C28   A    
C45   H31   S    
C46   H32   S    
C26   N2    A    
C1    O3    A    
C20   N4    D    
C2    O4    A    
C44   C45   S    
C30   C32   A    
C11   C13   A    
C4    H4    S    
C57   H57   S    
C28   C30   A    
C13   N2    S    
C33   C35   A    
C10   Cl2   S    
C34   C36   A    
C59   H62   S    
C60   H65   S    
C4    C14   A    
C38   H13   S    
C51   H44   S    
C20   H9    S    
C23   N1    A    
Cu2   O7    S    
C14   N1    S    
C19   N3    D    
C23   O9    S    
C46   C47   S    
C12   O18   S    
C43   H25   S    
C8    C10   A    
O13   C37   S    
C24   O10   S    
C36   O16   S    
O18   C52   S    
C49   C50   S    
Cu1   O5    S    
C34   O14   S    
C54   H51   S    
