data_mof_unit_1403.cif
_audit_creation_date              2012-12-10T17:00:38-0500
_audit_creation_method            fapswitch 2.2
_symmetry_space_group_name_H-M    P1
_symmetry_Int_Tables_number       1
_space_group_crystal_system       triclinic
_cell_length_a                    27.778193
_cell_length_b                    10.911837
_cell_length_c                    9.703452
_cell_angle_alpha                 90.758644
_cell_angle_beta                  89.579049
_cell_angle_gamma                 90.486369
_cell_volume                      2940.78338312

loop_
_atom_site_label
_atom_site_type_symbol
_atom_type_description
_atom_site_fract_x
_atom_site_fract_y
_atom_site_fract_z
_atom_type_partial_charge
C1    C     C_R   0.498918 0.265469 0.499077 0.826892
C2    C     C_R   0.276837 0.428016 0.602461 -0.051692
C3    C     C_R   0.252928 0.484159 0.491579 0.277301
C4    C     C_R   0.101182 0.480193 0.497330 -0.041999
C5    C     C_R   0.126410 0.401521 0.407010 -0.028016
C6    C     C_R   0.100962 0.314985 0.327972 -0.227179
C7    C     C_R   0.126861 0.564705 0.580212 -0.008696
C8    C     C_R   0.354267 0.490390 0.501453 -0.110594
C9    C     C_R   0.645215 0.492012 0.498621 -0.063431
C10   C     C_R   0.973976 0.412981 0.404210 0.079330
C11   C     C_R   0.974878 0.532477 0.620188 -0.010618
C12   C     C_R   0.407442 0.496705 0.500669 0.832010
C13   C     C_R   0.949018 0.475828 0.511754 0.021047
C14   C     C_R   0.948144 0.376536 0.286221 -0.134803
C15   C     C_R   0.898491 0.387571 0.281222 -0.094179
C16   C     C_R   0.872998 0.437272 0.393344 -0.010947
C17   C     C_R   0.898137 0.482914 0.509372 -0.055789
C18   C     C_R   0.872483 0.535538 0.621703 -0.115562
C19   C     C_R   0.821459 0.539863 0.612904 0.552291
C20   C     C_R   0.822723 0.442452 0.391321 0.556375
C21   C     C_R   0.720501 0.425348 0.597763 -0.166041
C22   C     C_R   0.670094 0.424245 0.598487 0.221516
C23   C     C_R   0.502419 0.734857 0.501199 0.806617
C24   C     C_R   0.671293 0.556048 0.397724 -0.286582
C25   C     C_R   0.721468 0.556433 0.398176 -0.091711
C26   C     C_R   0.746300 0.491599 0.498535 0.311076
C27   C     C_R   0.024489 0.395904 0.414155 0.026280
C28   C     C_R   0.050303 0.474440 0.505054 0.038450
C29   C     C_R   0.025490 0.547665 0.603746 0.057809
C30   C     C_R   0.050698 0.307141 0.335126 -0.026056
C31   C     C_R   0.101698 0.645055 0.667421 -0.158757
C32   C     C_R   0.949434 0.571025 0.740539 0.194771
C33   C     C_R   0.898481 0.575868 0.740169 -0.057178
C34   C     C_R   0.592396 0.498012 0.499563 0.814719
C35   C     C_R   0.051830 0.637575 0.677928 -0.157877
C36   C     C_2   0.505056 0.932867 0.391833 -0.244954
C37   C     C_2   0.512196 0.866326 0.505819 0.126615
C38   C     C_2   0.509858 0.066306 0.390585 -0.173259
C39   C     C_2   0.494470 0.133800 0.497749 -0.332108
C40   C     C_2   0.477809 0.417415 0.921045 -0.123679
C41   C     C_2   0.471275 0.430927 0.075937 0.385436
C42   C     C_R   0.176965 0.406447 0.403975 0.647016
C43   C     C_R   0.177293 0.566877 0.573570 0.570097
C44   C     C_R   0.279605 0.539186 0.385059 0.271245
C45   C     C_R   0.329792 0.540746 0.390168 -0.334397
C46   C     C_R   0.327615 0.431872 0.607835 0.135063
Cu1   Cu    Cu3+1 0.500010 0.500020 0.638630 0.954251
Cu2   Cu    Cu3+1 0.499990 0.499980 0.361370 0.953914
H1    H     H_    0.120440 0.714226 0.728102 0.189134
H2    H     H_    0.652813 0.608094 0.320252 0.160939
H3    H     H_    0.741105 0.608046 0.321201 0.164516
H4    H     H_    0.034251 0.706470 0.740830 0.176076
H5    H     H_    0.493431 0.889079 0.296386 0.151004
H6    H     H_    0.524221 0.108991 0.298425 0.164417
H7    H     H_    0.477846 0.091805 0.586982 0.178454
H8    H     H_    0.461894 0.338560 0.869256 0.158587
H9    H     H_    0.505973 0.582840 0.891672 0.232608
H10   H     H_    0.120426 0.248482 0.265529 0.182010
H11   H     H_    0.739820 0.373405 0.673679 0.153395
H12   H     H_    0.880147 0.356388 0.188897 0.203937
H13   H     H_    0.966137 0.342030 0.194902 0.136611
H14   H     H_    0.349746 0.584203 0.307468 0.167350
N1    N     N_R   0.201234 0.487152 0.487903 -0.425507
N2    N     N_R   0.798073 0.492405 0.500203 -0.455308
N3    N     N_2   0.499480 0.498660 0.846910 -0.276145
N4    N     N_2   0.499460 0.498630 0.153040 -0.091333
O1    O     O_R   0.500010 0.321960 0.617040 -0.578720
O2    O     O_2   0.798496 0.395906 0.282184 -0.526326
O3    O     O_2   0.202342 0.646792 0.653230 -0.557748
O4    O     O_2   0.795021 0.591326 0.714956 -0.552458
O5    O     O_R   0.499990 0.321920 0.382900 -0.555060
O6    O     O_R   0.430270 0.500040 0.617060 -0.586107
O7    O     O_R   0.430260 0.500000 0.382910 -0.557574
O8    O     O_R   0.500010 0.678080 0.617100 -0.566187
O9    O     O_R   0.499990 0.678040 0.382960 -0.601165
O10   O     O_R   0.569740 0.500000 0.617090 -0.525759
O11   O     O_R   0.569730 0.499960 0.382940 -0.600957
O12   O     O_2   0.201742 0.329749 0.320030 -0.535411
N5    N     N_2   0.350990 0.370867 0.717453 -0.456495
H15   H     H_    0.373629 0.424049 0.777291 0.274046
C47   C     C_3   0.368667 0.249815 0.683514 -0.670181
H16   H     H_    0.397682 0.255008 0.604564 0.221733
H17   H     H_    0.338883 0.190893 0.643925 0.241020
H18   H     H_    0.383298 0.207148 0.777395 0.210803
N6    N     N_2   0.255825 0.591512 0.270880 -0.414259
H19   H     H_    0.273786 0.578011 0.178532 0.257917
C48   C     C_3   0.242511 0.718305 0.291382 -0.646670
H20   H     H_    0.222569 0.750221 0.200014 0.233842
H21   H     H_    0.275227 0.776493 0.304828 0.221830
H22   H     H_    0.218765 0.728799 0.383095 0.253181
N7    N     N_2   0.974952 0.594561 0.865598 -0.440137
H23   H     H_    0.960883 0.660980 0.930365 0.265601
C49   C     C_3   0.990313 0.485890 0.936275 -0.605226
H24   H     H_    0.014369 0.430173 0.868898 0.234709
H25   H     H_    0.010556 0.512775 0.030361 0.216500
H26   H     H_    0.958559 0.429620 0.966527 0.242844
C50   C     C_2   0.873357 0.620849 0.866098 0.444489
H27   H     H_    0.852918 0.705063 0.863517 0.106155
O13   O     O_2   0.875246 0.563608 0.973147 -0.539759
N8    N     N_2   0.536328 0.916348 0.624252 -0.423193
H28   H     H_    0.560178 0.988116 0.610089 0.268233
C51   C     C_3   0.511276 0.914295 0.755864 -0.672953
H29   H     H_    0.509943 0.008339 0.800931 0.203439
H30   H     H_    0.531024 0.854763 0.827655 0.236813
H31   H     H_    0.473690 0.879747 0.745424 0.228132
C52   C     C_2   0.249651 0.363939 0.713883 0.426562
H32   H     H_    0.266782 0.346104 0.811627 0.106164
O14   O     O_2   0.208414 0.327372 0.697564 -0.543229
N9    N     N_2   0.431502 0.370262 0.138870 -0.389371
H33   H     H_    0.398927 0.407450 0.112131 0.232002
C53   C     C_3   0.431370 0.238005 0.126750 -0.690116
H34   H     H_    0.405747 0.199383 0.203359 0.242260
H35   H     H_    0.467694 0.201158 0.147215 0.231239
H36   H     H_    0.419766 0.208423 0.022148 0.192494
N10   N     N_2   0.544134 0.524447 0.096810 -0.354327
H37   H     H_    0.570279 0.463590 0.125581 0.273131
C54   C     C_3   0.558774 0.651544 0.110701 -0.602142
H38   H     H_    0.589000 0.670004 0.038265 0.201026
H39   H     H_    0.571259 0.672518 0.216574 0.241052
H40   H     H_    0.528530 0.713076 0.085157 0.199562
N11   N     N_2   0.644800 0.353778 0.698570 -0.405107
H41   H     H_    0.662793 0.345945 0.790647 0.258302
C55   C     C_3   0.627260 0.236469 0.647836 -0.653251
H42   H     H_    0.605103 0.191876 0.728956 0.226592
H43   H     H_    0.657989 0.175934 0.620830 0.219024
H44   H     H_    0.604425 0.248077 0.555567 0.218082
C56   C     C_2   0.028784 0.193991 0.275646 0.341362
H45   H     H_    0.045623 0.148881 0.187553 0.073348
O15   O     O_2   0.993547 0.146076 0.329085 -0.518363

loop_
_geom_bond_atom_site_label_1
_geom_bond_atom_site_label_2
_ccdc_geom_bond_type
C10   C27   A    
C21   C26   A    
C49   H24   S    
C15   H12   S    
C6    H10   S    
C53   H34   S    
C48   H20   S    
C25   H3    S    
C50   H27   S    
C43   N1    A    
C55   H42   S    
N6    H19   S    
C2    C46   A    
C1    O5    A    
C22   N11   S    
C5    C6    A    
C28   C29   A    
Cu1   O10   S    
C21   H11   S    
N9    C53   S    
C34   O11   A    
C46   N5    S    
C9    C22   A    
C55   H43   S    
C32   N7    S    
C52   H32   S    
C15   C16   A    
C45   H14   S    
C51   H31   S    
C18   C19   A    
C26   N2    S    
C8    C45   A    
C36   H5    S    
C4    C28   A    
C39   H7    S    
C16   C17   A    
N10   C54   S    
C56   H45   S    
C7    C43   A    
C16   C20   A    
C12   O6    A    
C49   H25   S    
C41   N9    S    
C21   C22   A    
C27   C30   A    
Cu2   O9    S    
C31   H1    S    
C4    C7    A    
Cu1   O1    S    
C47   H17   S    
C47   H16   S    
N6    C48   S    
C24   H2    S    
C3    C44   A    
C7    C31   A    
N4    N10   S    
C24   C25   A    
C10   C14   A    
C54   H40   S    
C23   O9    A    
N7    H23   S    
N5    C47   S    
C55   H44   S    
C40   H8    S    
C25   C26   A    
C23   C37   S    
C14   H13   S    
C2    C52   S    
Cu2   O11   S    
C20   N2    A    
C56   O15   D    
N7    C49   S    
Cu1   Cu2   S    
C38   H6    S    
C19   N2    A    
C8    C12   S    
N8    C51   S    
C17   C18   A    
C53   H35   S    
C51   H30   S    
N11   H41   S    
C40   C41   S    
C6    C30   A    
C11   C32   A    
C42   O12   S    
C49   H26   S    
C40   N3    D    
C48   H21   S    
C9    C34   S    
C31   C35   A    
Cu2   O5    S    
C44   N6    S    
C35   H4    S    
C47   H18   S    
C44   C45   A    
C5    C42   A    
C30   C56   S    
C36   C37   D    
C50   O13   D    
Cu2   O7    S    
C20   O2    S    
Cu1   O8    S    
H9    N3    S    
C4    C5    A    
C10   C13   A    
C9    C24   A    
C41   N4    D    
C3    N1    S    
C29   C35   A    
C54   H38   S    
C13   C17   A    
C32   C33   A    
C54   H39   S    
C2    C3    A    
N9    H33   S    
C11   C13   A    
C38   C39   D    
C52   O14   D    
C36   C38   S    
N8    H28   S    
C1    O1    A    
C53   H36   S    
C33   C50   S    
C51   H29   S    
C18   C33   A    
C8    C46   A    
Cu1   O6    S    
N11   C55   S    
C1    C39   S    
N5    H15   S    
C11   C29   A    
C43   O3    S    
C48   H22   S    
C27   C28   A    
C14   C15   A    
C19   O4    S    
C23   O8    A    
Cu2   N4    S    
C12   O7    A    
C42   N1    A    
Cu1   N3    S    
C37   N8    S    
N10   H37   S    
C34   O10   A    
