data_mof_unit_2882.cif
_audit_creation_date              2012-10-26T21:20:08-0400
_audit_creation_method            fapswitch 2.2
_symmetry_space_group_name_H-M    P1
_symmetry_Int_Tables_number       1
_space_group_crystal_system       triclinic
_cell_length_a                    12.964286
_cell_length_b                    10.864476
_cell_length_c                    9.576926
_cell_angle_alpha                 90.165252
_cell_angle_beta                  99.152456
_cell_angle_gamma                 91.187346
_cell_volume                      1331.42610876

loop_
_atom_site_label
_atom_site_type_symbol
_atom_type_description
_atom_site_fract_x
_atom_site_fract_y
_atom_site_fract_z
_atom_type_partial_charge
Br1   Br    Br    0.819606 0.585999 0.843540 -0.513050
Br2   Br    Br    0.180380 0.414003 0.156462 -0.513010
Br3   Br    Br    0.644960 0.151807 0.770267 -0.404602
Br4   Br    Br    0.355064 0.848200 0.229708 -0.404621
Br5   Br    Br    0.669389 0.855744 0.739557 -0.363440
Br6   Br    Br    0.330611 0.144256 0.260444 -0.363457
Br7   Br    Br    0.343409 0.301399 0.808798 -0.383073
Br8   Br    Br    0.656593 0.698598 0.191202 -0.383109
C1    C     C_R   0.498767 0.262356 0.500159 0.585277
C2    C     C_R   0.700568 0.499023 0.530448 0.577716
C3    C     C_R   0.816060 0.493383 0.555057 0.037362
C4    C     C_R   0.183941 0.506639 0.444947 0.037362
C5    C     C_R   0.011891 0.446910 0.316750 0.012941
C6    C     C_R   0.988104 0.553148 0.683252 0.012984
C7    C     C_R   0.121226 0.456790 0.322499 0.164638
C8    C     C_R   0.878769 0.543243 0.677503 0.164672
C9    C     C_R   0.134407 0.567515 0.545230 -0.020916
C10   C     C_R   0.865601 0.432522 0.454773 -0.020919
C11   C     C_R   0.030845 0.531624 0.557629 0.010309
C12   C     C_R   0.501233 0.737644 0.499840 0.585276
C13   C     C_R   0.969156 0.468430 0.442375 0.010305
C14   C     C_R   0.562006 0.065825 0.611371 0.135699
C15   C     C_R   0.438002 0.934177 0.388623 0.135697
C16   C     C_R   0.566148 0.937742 0.606355 0.154678
C17   C     C_R   0.433856 0.062259 0.393643 0.154676
C18   C     C_3   0.815992 0.314942 0.383027 -0.292875
C19   C     C_3   0.782829 0.222808 0.488181 -0.393221
C20   C     C_3   0.184038 0.685089 0.616968 -0.292877
C21   C     C_3   0.217174 0.777225 0.511797 -0.393223
C22   C     C_3   0.941699 0.436407 0.172988 -0.249074
C23   C     C_R   0.501982 0.871629 0.497937 -0.031162
C24   C     C_3   0.941370 0.309235 0.101679 -0.373849
C25   C     C_3   0.058292 0.563701 0.827012 -0.249085
C26   C     C_3   0.058564 0.690878 0.898292 -0.373902
C27   C     C_R   0.498021 0.128371 0.502061 -0.031162
C28   C     C_R   0.438287 0.419408 0.061922 0.054730
C29   C     C_R   0.561712 0.580593 0.938078 0.054733
C30   C     C_R   0.437321 0.419125 0.914114 0.283358
C31   C     C_R   0.562679 0.580874 0.085885 0.283359
C32   C     C_R   0.299432 0.500982 0.469553 0.577705
Cu1   Cu    Cu3+1 0.500000 0.500020 0.640660 1.084711
Cu2   Cu    Cu3+1 0.500000 0.499980 0.359340 1.084707
H1    H     H_    0.389520 0.354631 0.107692 0.217767
H2    H     H_    0.150903 0.795561 0.426121 0.191263
H3    H     H_    0.126467 0.735333 0.666941 0.167352
H4    H     H_    0.251580 0.664226 0.699445 0.184834
H5    H     H_    0.970392 0.316835 0.999118 0.194151
H6    H     H_    0.991096 0.243267 0.169010 0.199762
H7    H     H_    0.860428 0.270470 0.079254 0.171411
H8    H     H_    0.860274 0.462408 0.179433 0.181878
H9    H     H_    0.967924 0.507467 0.103417 0.191881
H10   H     H_    0.009070 0.756918 0.830766 0.199570
H11   H     H_    0.029231 0.683338 0.000631 0.194237
H12   H     H_    0.610477 0.645371 0.892307 0.217770
H13   H     H_    0.139529 0.729518 0.921115 0.171547
H14   H     H_    0.032107 0.492630 0.896603 0.191901
H15   H     H_    0.139728 0.537752 0.820568 0.181827
H16   H     H_    0.756833 0.134777 0.433066 0.171973
H17   H     H_    0.716753 0.258468 0.534541 0.177376
H18   H     H_    0.849071 0.204503 0.573893 0.191274
H19   H     H_    0.748466 0.335801 0.300519 0.184818
H20   H     H_    0.873591 0.264700 0.333094 0.167366
H21   H     H_    0.243219 0.865246 0.566918 0.171977
H22   H     H_    0.283211 0.741537 0.465368 0.177393
N1    N     N_R   0.500030 0.500030 0.852080 -0.255694
N2    N     N_R   0.499970 0.499970 0.147920 -0.255692
O1    O     O_R   0.499990 0.319660 0.618740 -0.430696
O2    O     O_R   0.500010 0.680340 0.381260 -0.430698
O3    O     O_R   0.499990 0.319630 0.381170 -0.496230
O4    O     O_R   0.500010 0.680370 0.618830 -0.496234
O5    O     O_R   0.349000 0.499990 0.599490 -0.492341
O6    O     O_R   0.651000 0.500010 0.400510 -0.492337
O7    O     O_R   0.348990 0.499960 0.361920 -0.450841
O8    O     O_R   0.651010 0.500040 0.638080 -0.450833

loop_
_geom_bond_atom_site_label_1
_geom_bond_atom_site_label_2
_ccdc_geom_bond_type
C4    C9    A    
C4    C32   S    
Cu1   N1    S    
C22   H9    S    
C21   H21   S    
C3    C10   A    
Br2   C7    S    
Br8   C31   S    
Cu2   O2    S    
C29   C31   A    
C10   C13   A    
C24   H6    S    
C3    C8    A    
Br3   C14   S    
C26   H10   S    
C10   C18   S    
C4    C7    A    
Cu1   O5    S    
C12   O4    A    
C9    C20   S    
C25   H14   S    
Cu2   O6    S    
C25   C26   S    
C22   H8    S    
C21   H22   S    
C5    C13   A    
C26   H13   S    
Cu1   O1    S    
Br1   C8    S    
C19   H17   S    
C32   O7    A    
Cu1   O8    S    
C22   C24   S    
C14   C27   A    
C2    O8    A    
C20   H4    S    
C18   C19   S    
Br5   C16   S    
C1    O1    A    
C6    C25   S    
C29   H12   S    
C28   C30   A    
C20   C21   S    
C32   O5    A    
C18   H19   S    
C1    O3    A    
C28   N2    A    
C19   H18   S    
C5    C7    A    
C21   H2    S    
C12   O2    A    
C20   H3    S    
C31   N2    A    
C14   C16   A    
C24   H7    S    
C16   C23   A    
Br6   C17   S    
C2    C3    S    
C12   C23   S    
C5    C22   S    
C24   H5    S    
C15   C17   A    
Cu2   N2    S    
C18   H20   S    
C26   H11   S    
C1    C27   S    
Cu1   Cu2   S    
C17   C27   A    
Br4   C15   S    
C9    C11   A    
C28   H1    S    
C25   H15   S    
C11   C13   A    
C6    C8    A    
C30   N1    A    
C6    C11   A    
Br7   C30   S    
Cu2   O3    S    
C2    O6    A    
C29   N1    A    
Cu1   O4    S    
Cu2   O7    S    
C19   H16   S    
C15   C23   A    
