data_mof_unit_3729.cif
_audit_creation_date              2012-10-26T21:05:24-0400
_audit_creation_method            fapswitch 2.2
_symmetry_space_group_name_H-M    P1
_symmetry_Int_Tables_number       1
_space_group_crystal_system       triclinic
_cell_length_a                    9.645838
_cell_length_b                    10.776354
_cell_length_c                    13.872207
_cell_angle_alpha                 94.015736
_cell_angle_beta                  84.677492
_cell_angle_gamma                 90.170863
_cell_volume                      1432.2225508

loop_
_atom_site_label
_atom_site_type_symbol
_atom_type_description
_atom_site_fract_x
_atom_site_fract_y
_atom_site_fract_z
_atom_type_partial_charge
C1    C     C_R   0.499558 0.737452 0.504123 0.535140
C2    C     C_R   0.590394 0.931745 0.446409 -0.145753
C3    C     C_R   0.590318 0.059743 0.446870 -0.131478
C4    C     C_R   0.477172 0.500493 0.682807 0.527189
C5    C     C_R   0.498434 0.130162 0.512543 0.017278
C6    C     C_R   0.867168 0.354380 0.358811 -0.080647
C7    C     C_R   0.938074 0.308437 0.273662 -0.188524
C8    C     C_R   0.080007 0.313353 0.264066 -0.163647
C9    C     C_R   0.152670 0.354334 0.343045 0.021672
C10   C     C_R   0.082805 0.427549 0.426453 0.138695
C11   C     C_R   0.932510 0.427952 0.429401 0.145613
C12   C     C_1   0.463250 0.499593 0.786078 -0.025966
C13   C     C_R   0.917817 0.568614 0.567359 0.003000
C14   C     C_R   0.065106 0.568048 0.567724 -0.001159
C15   C     C_R   0.499270 0.263543 0.505737 0.553817
C16   C     C_R   0.522889 0.500981 0.317275 0.558803
C17   C     C_1   0.536748 0.500705 0.213952 -0.008498
C18   C     C_2   0.557441 0.500277 0.023171 -0.119591
C19   C     C_2   0.442280 0.497785 0.976764 -0.120658
C20   C     C_1   0.452603 0.498701 0.873007 -0.054135
C21   C     C_1   0.547208 0.500416 0.126971 -0.048247
C22   C     C_1   0.282811 0.287955 0.333020 0.272595
C23   C     C_R   0.325031 0.883324 0.655293 -0.106187
C24   C     C_R   0.239544 0.953919 0.724843 -0.123285
C25   C     C_R   0.238596 0.082937 0.724747 -0.117551
C26   C     C_R   0.323282 0.142199 0.655193 -0.103214
C27   C     C_R   0.409115 0.072504 0.582805 0.022939
C28   C     C_R   0.409694 0.941167 0.582656 0.027300
C29   C     C_R   0.498899 0.872003 0.511809 0.002393
Cu1   Cu    Cu3+1 0.359340 0.500010 0.500010 0.944898
Cu2   Cu    Cu3+1 0.640660 0.499990 0.499990 0.931894
H1    H     H_    0.339813 0.495435 0.016419 0.134358
H2    H     H_    0.173480 0.137503 0.779691 0.115110
H3    H     H_    0.322462 0.242666 0.660330 0.140486
H4    H     H_    0.856098 0.625465 0.622668 0.117218
H5    H     H_    0.659878 0.104059 0.393822 0.124401
H6    H     H_    0.760447 0.330201 0.364996 0.188575
H7    H     H_    0.883021 0.261128 0.217250 0.125727
H8    H     H_    0.132690 0.267218 0.198589 0.124517
H9    H     H_    0.112580 0.624328 0.623294 0.108506
H10   H     H_    0.659894 0.502709 0.983516 0.133982
H11   H     H_    0.659956 0.878715 0.393046 0.133073
H12   H     H_    0.325915 0.783796 0.660695 0.126401
H13   H     H_    0.175239 0.908366 0.779895 0.110166
N1    N     N_R   0.852210 0.498790 0.499090 -0.242201
N2    N     N_R   0.148080 0.498710 0.499060 -0.243664
N3    N     N_1   0.384766 0.230533 0.317528 -0.328541
O1    O     O_R   0.381190 0.680360 0.500010 -0.500342
O2    O     O_R   0.618760 0.680340 0.500000 -0.497549
O3    O     O_R   0.364420 0.499990 0.637850 -0.519135
O4    O     O_R   0.601990 0.499960 0.637840 -0.494458
O5    O     O_R   0.381240 0.319660 0.500000 -0.494204
O6    O     O_R   0.618810 0.319640 0.499990 -0.524431
O7    O     O_R   0.398010 0.500040 0.362160 -0.488728
O8    O     O_R   0.635580 0.500010 0.362150 -0.513952

loop_
_geom_bond_atom_site_label_1
_geom_bond_atom_site_label_2
_ccdc_geom_bond_type
C10   N2    A    
C23   C24   A    
C1    O1    A    
C23   C28   A    
C6    C7    A    
C8    H8    S    
Cu2   O4    S    
C4    C12   S    
C18   C21   S    
C9    C10   A    
C19   C20   S    
Cu1   N2    S    
C12   C20   T    
C1    C29   S    
C22   N3    T    
Cu1   O3    S    
C16   O8    A    
C7    C8    A    
C14   N2    A    
C5    C27   A    
C15   O5    A    
Cu2   O6    S    
C13   N1    A    
Cu1   O7    S    
C26   C27   A    
C3    H5    S    
C2    H11   S    
C2    C29   A    
C19   H1    S    
C15   O6    A    
Cu1   O1    S    
C28   C29   A    
C7    H7    S    
Cu2   O2    S    
C13   H4    S    
C2    C3    A    
Cu1   Cu2   S    
C24   H13   S    
C6    H6    S    
C16   O7    A    
C9    C22   S    
C5    C15   S    
C11   N1    A    
C10   C11   A    
C4    O4    A    
C14   H9    S    
C6    C11   A    
C23   H12   S    
C24   C25   A    
C18   C19   D    
Cu2   N1    S    
C18   H10   S    
C4    O3    A    
C27   C28   A    
Cu1   O5    S    
C16   C17   S    
Cu2   O8    S    
C25   C26   A    
C13   C14   A    
C1    O2    A    
C26   H3    S    
C17   C21   T    
C25   H2    S    
C8    C9    A    
C3    C5    A    
