data_mof_unit_4362.cif
_audit_creation_date              2012-12-10T17:15:47-0500
_audit_creation_method            fapswitch 2.2
_symmetry_space_group_name_H-M    P1
_symmetry_Int_Tables_number       1
_space_group_crystal_system       triclinic
_cell_length_a                    10.188248
_cell_length_b                    10.707287
_cell_length_c                    10.800594
_cell_angle_alpha                 91.753217
_cell_angle_beta                  95.286906
_cell_angle_gamma                 81.208247
_cell_volume                      1159.26018749

loop_
_atom_site_label
_atom_site_type_symbol
_atom_type_description
_atom_site_fract_x
_atom_site_fract_y
_atom_site_fract_z
_atom_type_partial_charge
C1    C     C_R   0.443332 0.509066 0.266517 0.924653
C2    C     C_2   0.493840 0.445149 0.931104 -0.202679
C3    C     C_2   0.081355 0.474294 0.496652 0.044172
C4    C     C_R   0.497597 0.260490 0.486721 0.883501
C5    C     C_2   0.940478 0.467925 0.529520 -0.239267
C6    C     C_R   0.556177 0.489524 0.732730 0.875024
C7    C     C_R   0.502569 0.739889 0.509326 0.863663
C8    C     C_R   0.734198 0.071997 0.411233 -0.003925
C9    C     C_R   0.860445 0.002912 0.447484 0.186112
C10   C     C_R   0.867434 0.898201 0.522953 -0.199967
C11   C     C_R   0.751791 0.855408 0.551380 -0.199609
C12   C     C_R   0.618852 0.042151 0.461797 0.014380
C13   C     C_R   0.625614 0.922378 0.511231 0.089933
C14   C     C_3   0.275891 0.568067 0.068076 -0.407840
C15   C     C_3   0.186122 0.656342 0.149663 -0.827289
C16   C     C_1   0.133522 0.390378 0.399510 0.229691
C17   C     C_1   0.859283 0.459805 0.323494 0.348813
C18   C     C_3   0.116598 0.616452 0.665874 -0.234252
C19   C     C_3   0.187128 0.730460 0.698311 -0.806087
C20   C     C_1   0.720216 0.151007 0.303414 0.185278
C21   C     C_3   0.988655 0.039163 0.409100 -0.423523
C22   C     C_3   0.050105 0.944988 0.313872 -0.864038
C23   C     C_R   0.497452 0.126344 0.469278 -0.110128
C24   C     C_3   0.724329 0.503448 0.922909 -0.395419
C25   C     C_3   0.713398 0.634805 0.983958 -0.825261
C26   C     C_R   0.379655 0.080387 0.486727 -0.198503
C27   C     C_R   0.382662 0.953748 0.503239 -0.227707
C28   C     C_R   0.504952 0.873870 0.515664 -0.107604
C29   C     C_2   0.409492 0.505773 0.131801 -0.011850
C30   C     C_2   0.506167 0.446752 0.064993 -0.210918
C31   C     C_2   0.589530 0.476053 0.865469 -0.002263
H1    H     H_    0.285216 0.142029 0.489015 0.173914
H2    H     H_    0.103669 0.710576 0.089870 0.236220
H3    H     H_    0.296173 0.626235 0.990421 0.220974
H4    H     H_    0.219643 0.493276 0.027412 0.213094
H5    H     H_    0.292206 0.702601 0.734168 0.277066
H6    H     H_    0.181482 0.790977 0.616325 0.246860
H7    H     H_    0.136812 0.787517 0.772830 0.207517
H8    H     H_    0.008670 0.654643 0.656964 0.153359
H9    H     H_    0.137173 0.549308 0.744274 0.169989
H10   H     H_    0.076700 0.849368 0.354411 0.261396
H11   H     H_    0.978946 0.940480 0.230082 0.267973
H12   H     H_    0.918729 0.480440 0.625870 0.150370
H13   H     H_    0.142193 0.975446 0.285513 0.258224
H14   H     H_    0.972401 0.135313 0.369351 0.217621
H15   H     H_    0.060435 0.042070 0.492687 0.191768
H16   H     H_    0.669211 0.707785 0.914989 0.241165
H17   H     H_    0.650915 0.641544 0.063470 0.275710
H18   H     H_    0.814318 0.654292 0.019043 0.251584
H19   H     H_    0.768940 0.429619 0.990470 0.228671
H20   H     H_    0.795837 0.499728 0.850744 0.203980
H21   H     H_    0.962690 0.845874 0.554051 0.158884
H22   H     H_    0.762190 0.771656 0.607155 0.159983
H23   H     H_    0.289049 0.919069 0.507011 0.171509
H24   H     H_    0.398802 0.426854 0.885483 0.166087
H25   H     H_    0.602373 0.407393 0.109101 0.208269
H26   H     H_    0.140158 0.601623 0.215041 0.280550
H27   H     H_    0.243339 0.724704 0.201475 0.259571
N1    N     N_2   0.157290 0.551390 0.551110 -0.070805
N2    N     N_2   0.842740 0.448550 0.448960 -0.141272
N3    N     N_1   0.173453 0.323322 0.320793 -0.229730
N4    N     N_1   0.873069 0.469391 0.219295 -0.268839
N5    N     N_1   0.710504 0.212243 0.215909 -0.235434
O1    O     O_R   0.568950 0.489660 0.307530 -0.631094
O2    O     O_R   0.348880 0.522640 0.340350 -0.597592
O3    O     O_R   0.610060 0.300270 0.483590 -0.614052
O4    O     O_R   0.389990 0.333260 0.516410 -0.618105
O5    O     O_R   0.651120 0.477360 0.659650 -0.624460
O6    O     O_R   0.431050 0.510340 0.692470 -0.624434
O7    O     O_R   0.610010 0.666740 0.483590 -0.614440
O8    O     O_R   0.389940 0.699730 0.516410 -0.616776
Zn1   Zn    Zn3+2 0.646940 0.477980 0.478090 0.947852
Zn2   Zn    Zn3+2 0.353060 0.522020 0.521910 0.939781

loop_
_geom_bond_atom_site_label_1
_geom_bond_atom_site_label_2
_ccdc_geom_bond_type
C14   H3    S    
C4    O4    A    
C1    O2    A    
C18   H8    S    
C13   C28   A    
C26   H1    S    
C29   C30   D    
O4    Zn2   S    
C19   H7    S    
C17   N4    T    
C6    O6    A    
C11   C13   A    
C9    C10   A    
C25   H16   S    
C24   C25   S    
C11   H22   S    
C8    C12   A    
C2    C30   S    
C10   H21   S    
C20   N5    T    
C6    O5    A    
C6    C31   S    
C5    H12   S    
C24   C31   S    
C22   H11   S    
C21   C22   S    
C7    O8    A    
O6    Zn2   S    
C15   H26   S    
C25   H17   S    
C9    C21   S    
C26   C27   A    
C8    C20   S    
C7    O7    A    
C3    C16   S    
C1    C29   S    
C2    C31   D    
C21   H15   S    
C21   H14   S    
C2    H24   S    
O1    Zn1   S    
C24   H19   S    
C15   H27   S    
C25   H18   S    
C19   H6    S    
C27   H23   S    
C24   H20   S    
O7    Zn1   S    
C10   C11   A    
N2    Zn1   S    
C17   N2    S    
C22   H10   S    
C1    O1    A    
C18   N1    S    
C27   C28   A    
O2    Zn2   S    
C12   C13   A    
C4    O3    A    
C18   C19   S    
C16   N3    T    
C23   C26   A    
C14   H4    S    
O8    Zn2   S    
C4    C23   S    
N1    Zn2   S    
C14   C15   S    
C8    C9    A    
C12   C23   A    
C14   C29   S    
C5    N2    D    
C18   H9    S    
C19   H5    S    
C30   H25   S    
C15   H2    S    
C22   H13   S    
C7    C28   S    
O3    Zn1   S    
O5    Zn1   S    
C3    C5    S    
C3    N1    D    
