data_mof_unit_4345.cif
_audit_creation_date              2012-12-10T18:34:33-0500
_audit_creation_method            fapswitch 2.2
_symmetry_space_group_name_H-M    P1
_symmetry_Int_Tables_number       1
_space_group_crystal_system       triclinic
_cell_length_a                    15.013707
_cell_length_b                    15.290547
_cell_length_c                    15.737158
_cell_angle_alpha                 89.808217
_cell_angle_beta                  104.739412
_cell_angle_gamma                 82.524408
_cell_volume                      3461.65982624

loop_
_atom_site_label
_atom_site_type_symbol
_atom_type_description
_atom_site_fract_x
_atom_site_fract_y
_atom_site_fract_z
_atom_type_partial_charge
C1    C     C_R   0.441954 0.662534 0.484044 0.893646
C2    C     C_R   0.545187 0.104923 0.440187 0.008752
C3    C     C_R   0.343849 0.931719 0.404380 0.064880
C4    C     C_R   0.639101 0.074406 0.442522 0.070706
C5    C     C_R   0.504666 0.957017 0.414554 0.111650
C6    C     C_R   0.476283 0.048375 0.415954 0.102524
C7    C     C_R   0.380196 0.079918 0.395664 -0.270151
C8    C     C_R   0.597781 0.927559 0.413743 -0.275466
C9    C     C_R   0.314858 0.022061 0.387740 -0.200374
C10   C     C_R   0.663190 0.986114 0.424793 -0.188650
C11   C     C_R   0.843320 0.638838 0.629515 -0.412371
C12   C     C_R   0.557705 0.337382 0.508836 0.888369
C13   C     C_R   0.158160 0.357204 0.374681 -0.428378
C14   C     C_R   0.752842 0.617047 0.607415 0.656894
C15   C     C_R   0.247061 0.382192 0.393317 0.622988
C16   C     C_R   0.501146 0.500338 0.661941 0.892154
C17   C     C_R   0.498755 0.500453 0.338135 0.882653
C18   C     C_R   0.793817 0.509734 0.509646 -0.186449
C19   C     C_R   0.205391 0.491874 0.488465 -0.183026
C20   C     C_R   0.885447 0.530534 0.527772 0.008689
C21   C     C_R   0.113991 0.470266 0.471080 -0.006223
C22   C     C_R   0.908995 0.596847 0.588974 0.108900
C23   C     C_R   0.279378 0.874173 0.410470 0.466643
C24   C     C_R   0.091367 0.401732 0.412313 0.131649
C25   C     C_R   0.954073 0.487661 0.488363 0.106390
C26   C     C_R   0.045319 0.513071 0.510449 0.095196
C27   C     C_R   0.065169 0.579598 0.571859 -0.235594
C28   C     C_R   0.934798 0.419756 0.428408 -0.252850
C29   C     C_R   0.998209 0.620319 0.610313 -0.172135
C30   C     C_R   0.002525 0.377365 0.391855 -0.188723
C31   C     C_3   0.428142 0.552882 0.010622 0.408076
C32   C     C_3   0.582911 0.456549 0.992617 0.298627
C33   C     C_3   0.499899 0.586950 0.968699 0.296680
C34   C     C_R   0.707035 0.132337 0.463657 0.482259
C35   C     C_3   0.509339 0.422349 0.033401 0.265091
C36   C     C_1   0.503316 0.501521 0.751122 -0.174221
C37   C     C_1   0.497174 0.502412 0.249286 -0.211750
C38   C     C_3   0.430245 0.468453 0.958367 0.355644
C39   C     C_3   0.580246 0.541780 0.045075 0.247252
C40   C     C_3   0.502570 0.502451 0.916838 -0.224667
C41   C     C_3   0.506789 0.507381 0.086231 -0.269021
C42   C     C_1   0.503566 0.502168 0.826318 0.118041
C43   C     C_1   0.500417 0.505078 0.175142 0.076550
C44   C     C_R   0.406514 0.754739 0.457207 -0.116435
C45   C     C_R   0.311581 0.786287 0.439065 -0.305094
C46   C     C_R   0.589861 0.245753 0.493266 -0.118140
C47   C     C_3   0.552567 0.721972 0.958175 0.138338
C48   C     C_3   0.527395 0.812511 0.910564 -0.360036
C49   C     C_3   0.603203 0.870985 0.943198 -0.982003
C50   C     C_3   0.539073 0.268675 0.029282 0.120591
C51   C     C_3   0.481662 0.194308 0.034817 -0.341559
C52   C     C_3   0.509856 0.114339 0.984999 -0.984697
C53   C     C_3   0.295047 0.345265 0.269312 0.070367
C54   C     C_3   0.376273 0.299778 0.237270 -0.752130
C55   C     C_3   0.676073 0.745143 0.650371 0.089370
C56   C     C_R   0.681631 0.217879 0.490479 -0.330520
C57   C     C_3   0.703195 0.775460 0.744465 -0.853909
C58   C     C_3   0.362217 0.678334 0.067485 0.145859
C59   C     C_3   0.307722 0.685746 0.137679 -0.348288
C60   C     C_3   0.331616 0.762343 0.197449 -0.988469
C61   C     C_3   0.728349 0.374824 0.052723 0.134118
C62   C     C_3   0.818956 0.412932 0.058603 -0.294269
C63   C     C_3   0.890793 0.384346 0.145061 -1.023423
C64   C     C_3   0.693972 0.571514 0.171717 0.097139
C65   C     C_3   0.660277 0.654181 0.215546 -0.373024
C66   C     C_3   0.708567 0.651800 0.313459 -0.923630
C67   C     C_R   0.468882 0.810036 0.443758 -0.292824
C68   C     C_3   0.356391 0.373993 0.854221 0.100078
C69   C     C_3   0.289863 0.404977 0.765327 -0.326064
C70   C     C_3   0.298175 0.338400 0.694765 -0.923455
C71   C     C_3   0.137680 0.878721 0.314131 0.079754
C72   C     C_3   0.037213 0.922180 0.293356 -0.824198
C73   C     C_3   0.834836 0.161972 0.417245 0.086818
C74   C     C_3   0.913918 0.112630 0.385059 -0.816073
C75   C     C_R   0.523361 0.188871 0.469288 -0.236582
C76   C     C_R   0.439528 0.898697 0.417945 0.036041
H1    H     H_    0.229493 0.542863 0.531785 0.158868
H2    H     H_    0.541528 0.783870 0.458343 0.161163
H3    H     H_    0.733035 0.262530 0.508969 0.160643
H4    H     H_    0.262375 0.743278 0.447693 0.172438
H5    H     H_    0.353992 0.149336 0.384892 0.187694
H6    H     H_    0.621214 0.859758 0.402821 0.142666
H7    H     H_    0.016588 0.670816 0.657376 0.152606
H8    H     H_    0.985001 0.324995 0.346843 0.144683
H9    H     H_    0.618630 0.689511 0.945656 0.192787
H10   H     H_    0.560996 0.731757 0.029708 0.150056
H11   H     H_    0.517432 0.804252 0.838739 0.236019
H12   H     H_    0.768988 0.460305 0.464597 0.147707
H13   H     H_    0.461048 0.845452 0.921750 0.227887
H14   H     H_    0.612181 0.882428 0.014380 0.267162
H15   H     H_    0.583312 0.935695 0.906529 0.277366
H16   H     H_    0.670208 0.839589 0.932351 0.271534
H17   H     H_    0.612827 0.244311 0.061666 0.138656
H18   H     H_    0.533386 0.284979 0.959031 0.132564
H19   H     H_    0.491809 0.174049 0.104931 0.230064
H20   H     H_    0.406732 0.218307 0.006845 0.223119
H21   H     H_    0.497964 0.132577 0.914217 0.264769
H22   H     H_    0.467475 0.061388 0.990960 0.273332
H23   H     H_    0.862686 0.687251 0.678478 0.161839
H24   H     H_    0.584386 0.088503 0.012771 0.268960
H25   H     H_    0.283021 0.416326 0.247912 0.158977
H26   H     H_    0.232689 0.313885 0.237661 0.124506
H27   H     H_    0.386035 0.227698 0.252660 0.230953
H28   H     H_    0.362285 0.310803 0.165017 0.236378
H29   H     H_    0.441248 0.326472 0.269810 0.264805
H30   H     H_    0.601321 0.769737 0.622534 0.177652
H31   H     H_    0.714449 0.776881 0.609306 0.111176
H32   H     H_    0.778052 0.753915 0.774993 0.247011
H33   H     H_    0.689521 0.848578 0.744847 0.221823
H34   H     H_    0.141776 0.302524 0.332500 0.151166
H35   H     H_    0.661684 0.746946 0.784057 0.268389
H36   H     H_    0.338172 0.736631 0.021139 0.165897
H37   H     H_    0.437004 0.680430 0.100196 0.105530
H38   H     H_    0.231988 0.695557 0.105288 0.226127
H39   H     H_    0.324118 0.623525 0.178594 0.233560
H40   H     H_    0.406580 0.752304 0.232725 0.271073
H41   H     H_    0.290319 0.765835 0.246899 0.260580
H42   H     H_    0.315006 0.825730 0.158447 0.264316
H43   H     H_    0.743425 0.302089 0.049338 0.127525
H44   H     H_    0.704899 0.387545 0.113851 0.126292
H45   H     H_    0.132261 0.601676 0.592646 0.143752
H46   H     H_    0.847714 0.389817 0.002871 0.224407
H47   H     H_    0.805382 0.486063 0.053318 0.257702
H48   H     H_    0.864148 0.408218 0.201718 0.260679
H49   H     H_    0.955742 0.412720 0.147319 0.275917
H50   H     H_    0.907127 0.311259 0.150809 0.264499
H51   H     H_    0.771041 0.564467 0.187432 0.170923
H52   H     H_    0.677446 0.510517 0.199373 0.131197
H53   H     H_    0.675171 0.713801 0.183912 0.224936
H54   H     H_    0.584118 0.659554 0.206919 0.210128
H55   H     H_    0.698484 0.590719 0.345666 0.285418
H56   H     H_    0.868084 0.396765 0.408521 0.125131
H57   H     H_    0.678772 0.709603 0.344569 0.252939
H58   H     H_    0.784239 0.653782 0.323557 0.260245
H59   H     H_    0.337466 0.311164 0.875419 0.154603
H60   H     H_    0.428104 0.359242 0.845995 0.110672
H61   H     H_    0.217217 0.414044 0.771743 0.235347
H62   H     H_    0.305596 0.469558 0.744603 0.232613
H63   H     H_    0.369220 0.331255 0.684431 0.270156
H64   H     H_    0.247328 0.361559 0.631861 0.274046
H65   H     H_    0.283231 0.273087 0.714318 0.258182
H66   H     H_    0.138266 0.805817 0.314801 0.145175
H67   H     H_    0.242025 0.049021 0.373878 0.190461
H68   H     H_    0.168400 0.899052 0.260852 0.137937
H69   H     H_    0.034512 0.995055 0.289685 0.252023
H70   H     H_    0.997948 0.900166 0.229132 0.206692
H71   H     H_    0.004225 0.903751 0.345305 0.265926
H72   H     H_    0.863236 0.213570 0.461854 0.153729
H73   H     H_    0.781806 0.193966 0.358605 0.126692
H74   H     H_    0.887391 0.061067 0.339562 0.250676
H75   H     H_    0.943992 0.159275 0.349594 0.196461
H76   H     H_    0.969249 0.080904 0.441619 0.276936
H77   H     H_    0.733735 0.960797 0.423818 0.193279
H78   H     H_    0.454364 0.210067 0.476479 0.199096
N1    N     N_R   0.731710 0.552730 0.549140 -0.135238
N2    N     N_R   0.268290 0.447270 0.450860 -0.129756
O1    O     O_R   0.383110 0.605620 0.475230 -0.625268
O2    O     O_3   0.509511 0.340667 0.075822 -0.630104
O3    O     O_3   0.316640 0.335529 0.361916 -0.606803
O4    O     O_3   0.686917 0.651675 0.650429 -0.579987
O5    O     O_3   0.344536 0.601305 0.019849 -0.591059
O6    O     O_3   0.661698 0.406842 0.974379 -0.629155
O7    O     O_3   0.660994 0.582110 0.079533 -0.663810
O8    O     O_3   0.345579 0.437413 0.917269 -0.590255
O9    O     O_3   0.186078 0.905832 0.396780 -0.613890
O10   O     O_3   0.798341 0.101789 0.463377 -0.619070
O11   O     O_R   0.616890 0.394380 0.524770 -0.622844
O12   O     O_R   0.531900 0.639510 0.506760 -0.598885
O13   O     O_R   0.468100 0.360490 0.493240 -0.570174
O14   O     O_R   0.425620 0.483070 0.607460 -0.626572
O15   O     O_R   0.574380 0.516930 0.392540 -0.633265
O16   O     O_R   0.574400 0.516960 0.638990 -0.548420
O17   O     O_R   0.425600 0.483040 0.361010 -0.591362
O18   O     O_3   0.480507 0.671202 0.925514 -0.634358
Zn1   Zn    Zn3+2 0.400660 0.477370 0.478940 0.966320
Zn2   Zn    Zn3+2 0.599340 0.522630 0.521060 0.972561

loop_
_geom_bond_atom_site_label_1
_geom_bond_atom_site_label_2
_ccdc_geom_bond_type
N1    Zn2   S    
C21   C26   A    
C31   O5    S    
N2    Zn1   S    
C34   C56   A    
C23   C45   A    
C22   C29   A    
C14   N1    A    
C61   H43   S    
C73   C74   S    
C36   C42   T    
C49   H14   S    
C12   O11   A    
C65   H54   S    
C27   H45   S    
C39   C41   S    
C53   C54   S    
C50   O2    S    
C25   C28   A    
C70   H64   S    
C26   C27   A    
C33   C39   S    
C56   H3    S    
C8    H6    S    
C47   H9    S    
C54   H28   S    
C19   C21   A    
C29   H7    S    
C5    C6    A    
C11   C14   A    
O11   Zn2   S    
C27   C29   A    
C20   C25   A    
C72   H69   S    
C52   H21   S    
C11   H23   S    
C32   C39   S    
C52   H22   S    
C19   H1    S    
C62   H47   S    
C66   H58   S    
C3    C23   A    
C57   H33   S    
C53   H25   S    
C68   C69   S    
C64   H52   S    
C32   O6    S    
C58   H37   S    
C31   C33   S    
C60   H42   S    
C61   C62   S    
C51   H20   S    
C68   O8    S    
C70   H63   S    
C23   O9    S    
C61   H44   S    
C19   N2    A    
C41   C43   S    
C74   H76   S    
C2    C6    A    
C67   H2    S    
C49   H15   S    
C64   O7    S    
C10   H77   S    
C46   C75   A    
C17   O17   A    
C63   H48   S    
O14   Zn1   S    
O17   Zn1   S    
C69   H61   S    
C4    C34   A    
C53   O3    S    
C33   C40   S    
C73   H72   S    
C51   C52   S    
C47   O18   S    
C32   C35   S    
C54   H27   S    
C68   H60   S    
C35   C38   S    
C12   C46   S    
C9    H67   S    
C50   H18   S    
C55   H30   S    
C1    O12   A    
C25   C26   A    
C52   H24   S    
C18   H12   S    
C61   O6    S    
C13   C24   A    
C14   O4    S    
C28   H56   S    
C37   C43   T    
C2    C4    A    
C47   H10   S    
C15   O3    S    
C62   C63   S    
C3    C9    A    
C16   O14   A    
C66   H57   S    
C16   O16   A    
C1    C44   S    
C47   C48   S    
C53   H26   S    
C64   H51   S    
C50   C51   S    
O13   Zn1   S    
C48   H11   S    
C60   H41   S    
C55   C57   S    
C17   C37   S    
C33   O18   S    
C13   H34   S    
C15   N2    A    
C63   H49   S    
O1    Zn1   S    
C71   H66   S    
C59   H39   S    
C48   C49   S    
C7    H5    S    
C20   C22   A    
C48   H13   S    
C13   C15   A    
C58   H36   S    
C74   H75   S    
C60   H40   S    
C49   H16   S    
C39   O7    S    
C62   H46   S    
C44   C45   A    
C66   H55   S    
C12   O13   A    
C69   H62   S    
O12   Zn2   S    
C55   O4    S    
C70   H65   S    
C31   C41   S    
C54   H29   S    
C73   H73   S    
C68   H59   S    
C73   O10   S    
C5    C8    A    
C65   H53   S    
C17   O15   A    
C50   H17   S    
C6    C7    A    
C72   H71   S    
O15   Zn2   S    
C11   C22   A    
C31   C38   S    
C64   C65   S    
C5    C76   A    
C1    O1    A    
C58   C59   S    
C35   O2    S    
C71   C72   S    
C16   C36   S    
C38   C40   S    
C75   H78   S    
C57   H35   S    
C59   H38   S    
C72   H70   S    
C40   C42   S    
C28   C30   A    
C45   H4    S    
C18   C20   A    
C32   C40   S    
C30   H8    S    
C69   C70   S    
C35   C41   S    
C24   C30   A    
C63   H50   S    
C2    C75   A    
C7    C9    A    
C59   C60   S    
C57   H32   S    
C38   O8    S    
C8    C10   A    
C65   C66   S    
C71   O9    S    
C21   C24   A    
C46   C56   A    
C3    C76   A    
C74   H74   S    
C44   C67   A    
C67   C76   A    
C55   H31   S    
C34   O10   S    
C58   O5    S    
C4    C10   A    
C18   N1    A    
O16   Zn2   S    
C51   H19   S    
C71   H68   S    
