data_mof_unit_2678.cif
_audit_creation_date              2012-12-10T17:16:45-0500
_audit_creation_method            fapswitch 2.2
_symmetry_space_group_name_H-M    P1
_symmetry_Int_Tables_number       1
_space_group_crystal_system       triclinic
_cell_length_a                    23.474104
_cell_length_b                    12.940986
_cell_length_c                    11.822529
_cell_angle_alpha                 98.873352
_cell_angle_beta                  91.057799
_cell_angle_gamma                 93.794061
_cell_volume                      3539.16734115

loop_
_atom_site_label
_atom_site_type_symbol
_atom_type_description
_atom_site_fract_x
_atom_site_fract_y
_atom_site_fract_z
_atom_type_partial_charge
C1    C     C_R   0.498442 0.299627 0.479766 0.838213
C2    C     C_R   0.498910 0.700538 0.520822 0.821718
C3    C     C_R   0.243555 0.575307 0.584471 -0.189214
C4    C     C_R   0.758207 0.441041 0.406776 -0.185574
C5    C     C_R   0.303147 0.575815 0.584661 0.105233
C6    C     C_R   0.698528 0.438197 0.405833 0.117260
C7    C     C_R   0.329291 0.500859 0.507449 -0.050354
C8    C     C_R   0.671130 0.501443 0.493108 -0.061073
C9    C     C_R   0.295770 0.427184 0.430514 -0.298727
C10   C     C_R   0.703815 0.566380 0.579893 -0.289977
C11   C     C_R   0.236114 0.426094 0.430186 0.203587
C12   C     C_R   0.763525 0.569490 0.581207 0.201745
C13   C     C_R   0.210045 0.501338 0.507998 0.314411
C14   C     C_R   0.790698 0.505757 0.493605 0.303866
C15   C     C_R   0.493433 0.814107 0.534560 -0.088849
C16   C     C_R   0.489353 0.186497 0.472753 -0.075822
C17   C     C_R   0.434223 0.026316 0.391047 0.153264
C18   C     C_R   0.508016 0.982122 0.658459 0.146583
C19   C     C_R   0.450132 0.132204 0.391279 -0.258568
C20   C     C_R   0.510525 0.873945 0.639900 -0.240778
C21   C     C_R   0.512168 0.137136 0.559068 0.081430
C22   C     C_R   0.467866 0.861775 0.448521 0.085536
C23   C     C_R   0.391442 0.500496 0.502462 0.822914
C24   C     C_R   0.608677 0.499602 0.497558 0.833385
C25   C     C_R   0.493960 0.031823 0.564128 0.020300
C26   C     C_R   0.463639 0.972052 0.467635 0.029711
C27   C     C_R   0.450711 0.385982 0.033028 0.048107
C28   C     C_R   0.540320 0.620382 0.969988 0.043258
C29   C     C_R   0.452761 0.405431 0.152693 -0.006608
C30   C     C_R   0.540773 0.602588 0.850763 0.060799
C31   C     C_R   0.525030 0.542338 0.149944 0.300434
C32   C     C_R   0.475568 0.452518 0.846211 0.287133
C33   C     C_R   0.514465 0.542558 0.030609 -0.097630
C34   C     C_R   0.479774 0.458612 0.968718 0.005359
C35   C     C_R   0.882448 0.567592 0.432620 0.551062
C36   C     C_R   0.118628 0.442488 0.573122 0.543444
C37   C     C_R   0.877072 0.438459 0.556321 0.566610
C38   C     C_R   0.123602 0.567767 0.444752 0.550817
C39   C     C_R   0.937166 0.437589 0.562499 -0.056571
C40   C     C_R   0.063567 0.570130 0.440586 -0.028260
C41   C     C_R   0.970230 0.503874 0.500127 -0.116508
C42   C     C_R   0.030670 0.504457 0.504112 -0.095709
C43   C     C_R   0.942729 0.569434 0.433612 -0.027577
C44   C     C_R   0.058233 0.439434 0.571563 -0.065543
C45   C     C_R   0.964749 0.372911 0.629264 0.179001
C46   C     C_R   0.035900 0.635411 0.374331 0.112281
C47   C     C_R   0.024519 0.373668 0.634123 0.098499
C48   C     C_R   0.975850 0.635052 0.370875 0.113963
Cu1   Cu    Cu3+1 0.504210 0.507730 0.615930 0.931973
Cu2   Cu    Cu3+1 0.495790 0.492270 0.384070 0.946200
H1    H     H_    0.562082 0.660179 0.805788 0.141215
H2    H     H_    0.428474 0.353603 0.200477 0.131074
H3    H     H_    0.223112 0.633391 0.643005 0.144882
H4    H     H_    0.779525 0.391570 0.340655 0.144903
H5    H     H_    0.316226 0.370160 0.370495 0.148314
H6    H     H_    0.682688 0.615750 0.646532 0.156916
H7    H     H_    0.526543 0.836288 0.708543 0.174015
H8    H     H_    0.430035 0.174076 0.330523 0.157326
N1    N     N_R   0.851683 0.503608 0.493780 -0.480620
N2    N     N_R   0.149109 0.504334 0.509171 -0.469219
N3    N     N_R   0.510550 0.519360 0.790130 -0.225216
N4    N     N_R   0.489450 0.480640 0.209870 -0.193211
O1    O     O_R   0.502990 0.354470 0.582000 -0.602592
O2    O     O_R   0.497010 0.645530 0.418000 -0.542623
O3    O     O_R   0.495870 0.341410 0.386200 -0.590754
O4    O     O_R   0.504130 0.658590 0.613800 -0.597352
O5    O     O_R   0.421440 0.506500 0.597920 -0.573272
O6    O     O_R   0.578560 0.493500 0.402080 -0.565633
O7    O     O_R   0.414320 0.493440 0.402120 -0.590342
O8    O     O_R   0.585680 0.506560 0.597880 -0.582303
O9    O     O_2   0.854242 0.629344 0.371979 -0.504818
O10   O     O_2   0.147408 0.384593 0.637255 -0.570035
O11   O     O_2   0.843724 0.375109 0.612079 -0.508193
O12   O     O_2   0.156812 0.627437 0.384565 -0.506532
N5    N     N_3   0.932104 0.305678 0.693797 -0.506215
H9    H     H_    0.941644 0.228169 0.666341 0.236917
H10   H     H_    0.944102 0.326080 0.780407 0.233204
N6    N     N_3   0.068806 0.702717 0.310244 -0.516415
H11   H     H_    0.060390 0.780602 0.338602 0.214309
H12   H     H_    0.057404 0.682964 0.223361 0.215276
C49   C     C_3   0.427886 0.380012 0.781166 -0.312982
C50   C     C_3   0.368566 0.417218 0.811346 -0.802482
H13   H     H_    0.364574 0.495956 0.787482 0.264966
H14   H     H_    0.335203 0.362027 0.762997 0.241739
H15   H     H_    0.360246 0.422918 0.903825 0.255381
H16   H     H_    0.428982 0.372842 0.689741 0.241050
H17   H     H_    0.432099 0.297277 0.790506 0.196454
C51   C     C_3   0.585829 0.578066 0.194049 -0.332640
C52   C     C_3   0.592875 0.682891 0.275408 -0.743524
H18   H     H_    0.555569 0.729973 0.270080 0.261184
H19   H     H_    0.599877 0.671325 0.365182 0.246725
H20   H     H_    0.631311 0.729536 0.253143 0.210397
H21   H     H_    0.605890 0.514536 0.227905 0.224602
H22   H     H_    0.614384 0.583638 0.121228 0.153457
N7    N     N_3   0.421747 0.288981 0.980996 -0.617503
H23   H     H_    0.380034 0.285421 0.010507 0.218836
H24   H     H_    0.442546 0.227635 0.007927 0.216371
N8    N     N_3   0.558349 0.724451 0.024555 -0.618520
H25   H     H_    0.530687 0.749232 0.089844 0.238865
H26   H     H_    0.600618 0.728394 0.054337 0.232381
N9    N     N_3   0.049078 0.305365 0.703611 -0.601651
H27   H     H_    0.074546 0.349766 0.769410 0.267045
H28   H     H_    0.072524 0.251153 0.652533 0.262391
N10   N     N_3   0.948532 0.701635 0.302986 -0.515817
H29   H     H_    0.962374 0.779741 0.332345 0.215465
H30   H     H_    0.959374 0.681778 0.217430 0.214681
N11   N     N_3   0.336988 0.655404 0.659133 -0.580348
H31   H     H_    0.327555 0.728194 0.638405 0.220623
H32   H     H_    0.324394 0.653177 0.743122 0.216920
N12   N     N_3   0.666002 0.367830 0.319242 -0.582128
H33   H     H_    0.676644 0.291572 0.324903 0.226947
H34   H     H_    0.678605 0.384761 0.239351 0.210139
C53   C     C_3   0.201660 0.345454 0.345175 -0.392557
C54   C     C_3   0.202467 0.236482 0.379195 -0.816022
H35   H     H_    0.246864 0.212251 0.382521 0.246908
H36   H     H_    0.183369 0.235904 0.464337 0.282843
H37   H     H_    0.177206 0.178837 0.315107 0.240794
H38   H     H_    0.156546 0.364982 0.337996 0.207231
H39   H     H_    0.219686 0.344118 0.258715 0.200662
C55   C     C_3   0.796920 0.641956 0.675705 -0.400958
C56   C     C_3   0.791265 0.602177 0.790289 -0.790204
H40   H     H_    0.745992 0.598817 0.815978 0.244673
H41   H     H_    0.807422 0.522867 0.784483 0.285789
H42   H     H_    0.816792 0.656166 0.857405 0.239539
H43   H     H_    0.842959 0.650529 0.656726 0.207600
H44   H     H_    0.780841 0.721537 0.683193 0.201004
N13   N     N_3   0.455331 0.799895 0.337908 -0.592730
H45   H     H_    0.461380 0.843751 0.271432 0.211429
H46   H     H_    0.414280 0.763049 0.335664 0.227307
N14   N     N_3   0.561783 0.187949 0.623409 -0.581912
H47   H     H_    0.590201 0.133206 0.640904 0.223309
H48   H     H_    0.549703 0.232550 0.699253 0.227552
C57   C     C_3   0.382007 0.978687 0.318408 -0.408209
C58   C     C_3   0.330115 0.044171 0.339696 -0.837124
H49   H     H_    0.322497 0.062161 0.432915 0.259805
H50   H     H_    0.336056 0.118365 0.303876 0.234145
H51   H     H_    0.291575 0.999473 0.296806 0.250866
H52   H     H_    0.392296 0.970117 0.226210 0.199804
H53   H     H_    0.367832 0.901153 0.339624 0.214592
C59   C     C_3   0.516206 0.040347 0.780338 -0.418047
C60   C     C_3   0.478187 0.991854 0.865069 -0.811941
H54   H     H_    0.432918 0.983528 0.833917 0.257744
H55   H     H_    0.492018 0.914090 0.878118 0.254856
H56   H     H_    0.481189 0.043551 0.949466 0.232814
H57   H     H_    0.561674 0.041375 0.808542 0.203166
H58   H     H_    0.503753 0.121811 0.785919 0.208486

loop_
_geom_bond_atom_site_label_1
_geom_bond_atom_site_label_2
_ccdc_geom_bond_type
C30   H1    S    
C16   C21   A    
Cu1   O1    S    
C27   C29   A    
Cu2   O2    S    
C41   C42   A    
C23   O7    A    
C27   N7    S    
N7    H23   S    
C58   H51   S    
N10   H30   S    
C54   H35   S    
C24   O8    A    
C39   C41   A    
C13   N2    S    
C40   C46   A    
C32   C49   S    
N9    H27   S    
C47   N9    S    
C17   C26   A    
Cu2   O7    S    
C32   N3    A    
C60   H55   S    
C38   O12   S    
N6    H12   S    
C48   N10   S    
C11   C13   A    
C35   N1    A    
C23   O5    A    
Cu1   Cu2   S    
N12   H33   S    
C56   H42   S    
C21   C25   A    
C17   C19   A    
C12   C55   S    
C15   C22   A    
C1    O3    A    
N11   H31   S    
C31   C33   A    
C9    H5    S    
C52   H19   S    
C10   H6    S    
C43   C48   A    
C41   C43   A    
C18   C20   A    
C49   H16   S    
C3    C13   A    
C44   C47   A    
C39   C45   A    
C40   C42   A    
C35   O9    S    
C57   H52   S    
C27   C34   A    
C53   H39   S    
C6    N12   S    
C31   N4    A    
C18   C25   A    
C42   C44   A    
C1    O1    A    
N10   H29   S    
C2    O2    A    
C49   C50   S    
C46   C48   A    
C45   C47   A    
C19   H8    S    
C15   C20   A    
C51   H22   S    
Cu1   N3    S    
Cu1   O4    S    
C59   C60   S    
C29   N4    A    
C4    C6    A    
C60   H56   S    
C59   H58   S    
C5    C7    A    
C55   H43   S    
C6    C8    A    
C3    C5    A    
C25   C26   A    
C50   H13   S    
C32   C34   A    
N14   H48   S    
N5    H9    S    
N13   H46   S    
C14   N1    S    
C9    C11   A    
C54   H36   S    
C33   C34   A    
C1    C16   S    
C49   H17   S    
C52   H20   S    
C18   C59   S    
C2    C15   S    
N5    H10   S    
C56   H40   S    
C37   N1    A    
C10   C12   A    
C38   N2    A    
C8    C10   A    
C12   C14   A    
C28   C33   A    
C57   H53   S    
C50   H14   S    
Cu1   O8    S    
C17   C57   S    
C57   C58   S    
Cu2   N4    S    
C36   C44   A    
N13   H45   S    
C35   C43   A    
C55   C56   S    
C46   N6    S    
C53   C54   S    
C5    N11   S    
C28   N8    S    
C7    C9    A    
C37   O11   S    
C51   H21   S    
C31   C51   S    
Cu1   O5    S    
C4    H4    S    
N6    H11   S    
C36   N2    A    
C59   H57   S    
C58   H50   S    
N7    H24   S    
C2    O4    A    
C58   H49   S    
C50   H15   S    
N8    H26   S    
C45   N5    S    
C28   C30   A    
N14   H47   S    
C52   H18   S    
C37   C39   A    
C60   H54   S    
C38   C40   A    
C3    H3    S    
C22   N13   S    
N11   H32   S    
C16   C19   A    
C7    C23   S    
C8    C24   S    
C55   H44   S    
C4    C14   A    
C11   C53   S    
Cu2   O3    S    
N12   H34   S    
C21   N14   S    
C56   H41   S    
C54   H37   S    
C24   O6    A    
C53   H38   S    
C51   C52   S    
N9    H28   S    
N8    H25   S    
C22   C26   A    
C30   N3    A    
C20   H7    S    
Cu2   O6    S    
C36   O10   S    
C29   H2    S    
