data_mof_unit_1405.cif
_audit_creation_date              2013-03-05T15:43:52-0500
_audit_creation_method            fapswitch 2.2
_symmetry_space_group_name_H-M    P1
_symmetry_Int_Tables_number       1
_space_group_crystal_system       triclinic
_cell_length_a                    13.544209
_cell_length_b                    13.527417
_cell_length_c                    27.526593
_cell_angle_alpha                 90.583212
_cell_angle_beta                  90.508974
_cell_angle_gamma                 60.12901
_cell_volume                      4373.08612104

loop_
_atom_site_label
_atom_site_type_symbol
_atom_site_description
_atom_site_fract_x
_atom_site_fract_y
_atom_site_fract_z
_atom_type_partial_charge
O1    O     O_R   0.301710 0.195650 0.554160 -0.490979
O2    O     O_R   0.522390 0.158990 0.550460 -0.488565
C1    C     C_R   0.619321 0.099712 0.571215 0.557158
O3    O     O_R   0.694390 0.003530 0.554040 -0.491497
O4    O     O_R   0.657700 0.819660 0.549320 -0.483500
C2    C     C_R   0.599986 0.779242 0.568549 0.554441
O5    O     O_R   0.501930 0.803280 0.552920 -0.503126
O6    O     O_R   0.318170 0.023580 0.549580 -0.497526
C3    C     C_R   0.280227 0.120886 0.570032 0.555562
O7    O     O_R   0.303010 0.193990 0.446760 -0.480045
O8    O     O_R   0.523600 0.157450 0.450900 -0.476883
C4    C     C_R   0.621005 0.098757 0.430665 0.591895
O9    O     O_R   0.695690 0.001860 0.446640 -0.507173
O10   O     O_R   0.658900 0.818120 0.449760 -0.479376
C5    C     C_R   0.600959 0.776858 0.430447 0.573471
O11   O     O_R   0.503220 0.801620 0.445520 -0.519363
O12   O     O_R   0.319370 0.022040 0.450020 -0.515999
C6    C     C_R   0.275482 0.123755 0.431431 0.563447
Cr1   Cr    Cr6+3 0.417550 0.169090 0.500530 1.103347
Cr2   Cr    Cr6+3 0.669180 0.913420 0.499920 1.094996
Cr3   Cr    Cr6+3 0.413260 0.917540 0.499520 1.057011
O13   O     O_3   0.499990 0.000010 0.499990 -0.285484
C7    C     C_3   0.781137 0.615400 0.738231 0.023654
C8    C     C_3   0.734906 0.711598 0.776540 0.004956
H1    H     H_    0.576829 0.869848 0.739442 0.095160
C9    C     C_1   0.698280 0.605596 0.899883 0.060420
C10   C     C_1   0.633129 0.730243 0.615786 0.027110
C11   C     C_3   0.732106 0.552240 0.767161 -0.145587
C12   C     C_3   0.684983 0.649912 0.805203 0.063370
C13   C     C_3   0.618837 0.616688 0.737962 -0.131341
C14   C     C_3   0.669055 0.679108 0.709694 0.039461
C15   C     C_3   0.573410 0.713414 0.776241 0.021223
C16   C     C_3   0.622009 0.777211 0.747526 -0.161706
C17   C     C_1   0.691679 0.629821 0.857596 0.070192
C18   C     C_1   0.653266 0.701650 0.657573 0.015038
H2    H     H_    0.570782 0.577544 0.721904 0.120174
H3    H     H_    0.778288 0.459947 0.775073 0.151700
C19   C     C_3   0.090579 0.159230 0.735247 0.122615
C20   C     C_3   0.164903 0.070931 0.773832 0.052845
H4    H     H_    0.354171 0.982466 0.743042 0.096141
C21   C     C_1   0.096312 0.202126 0.901728 0.048759
C22   C     C_1   0.241348 0.134273 0.618966 0.029562
C23   C     C_3   0.078173 0.257016 0.769176 -0.085015
C24   C     C_3   0.153279 0.167504 0.807544 0.058814
C25   C     C_3   0.186658 0.248660 0.746868 -0.128405
C26   C     C_3   0.198148 0.151316 0.713788 0.030182
C27   C     C_3   0.261324 0.159407 0.785608 -0.131892
C28   C     C_3   0.273467 0.061590 0.751526 -0.148933
C29   C     C_1   0.125988 0.182523 0.859759 0.040846
C30   C     C_1   0.219976 0.142760 0.661597 -0.007136
H5    H     H_    0.331605 0.159382 0.806686 0.128101
H6    H     H_    0.196088 0.321712 0.735017 0.131599
H7    H     H_    0.997887 0.337220 0.776985 0.126599
C31   C     C_3   0.620588 0.268253 0.745098 -0.076190
C32   C     C_3   0.536711 0.258033 0.779944 -0.125234
H8    H     H_    0.453284 0.328924 0.792245 0.126603
H9    H     H_    0.608401 0.347765 0.728202 0.130993
H10   H     H_    0.485454 0.133608 0.739631 0.115094
C33   C     C_1   0.678384 0.203539 0.906665 0.044277
C34   C     C_1   0.632308 0.128498 0.620915 0.012084
C35   C     C_3   0.720187 0.190631 0.779157 0.141023
C36   C     C_3   0.636797 0.180134 0.813290 0.049748
C37   C     C_3   0.738843 0.083194 0.751114 -0.067930
C38   C     C_3   0.638458 0.160761 0.717501 0.032166
C39   C     C_3   0.654715 0.073204 0.785770 -0.125515
C40   C     C_3   0.554197 0.150531 0.751589 -0.133517
C41   C     C_1   0.651904 0.191058 0.865894 0.007250
C42   C     C_1   0.637150 0.145864 0.664056 -0.023465
H11   H     H_    0.665309 0.995218 0.803351 0.147147
H12   H     H_    0.822566 0.012282 0.739093 0.147483
C43   C     C_R   0.735513 0.650110 0.365676 0.028166
C44   C     C_R   0.756158 0.631592 0.314911 -0.014835
C45   C     C_R   0.782239 0.599036 0.213528 -0.026034
C46   C     C_R   0.877982 0.556949 0.243696 -0.113801
C47   C     C_R   0.866766 0.577457 0.294001 0.008512
C48   C     C_R   0.794784 0.583145 0.163655 -0.124837
H13   H     H_    0.879518 0.532169 0.148667 0.152326
H14   H     H_    0.961832 0.515365 0.227303 0.171632
C49   C     C_R   0.698261 0.623438 0.133711 -0.001140
C50   C     C_R   0.535814 0.781336 0.347481 0.006469
C51   C     C_R   0.548979 0.734569 0.301702 0.000848
C52   C     C_R   0.659648 0.672733 0.283329 -0.004303
C53   C     C_R   0.453609 0.759379 0.272488 0.113298
C54   C     C_R   0.465002 0.751765 0.222153 0.118930
C55   C     C_R   0.574822 0.702252 0.202374 -0.012587
C56   C     C_R   0.672367 0.657320 0.233160 0.023529
C57   C     C_R   0.589983 0.688094 0.152525 -0.110109
C58   C     C_R   0.626194 0.732993 0.380916 0.012046
H15   H     H_    0.518594 0.717350 0.127850 0.180452
C59   C     C_R   0.168141 0.096637 0.362664 -0.137677
C60   C     C_R   0.143259 0.107773 0.312856 0.002660
C61   C     C_R   0.105811 0.120265 0.212031 0.014588
C62   C     C_R   0.070602 0.058711 0.241482 0.116176
C63   C     C_R   0.088808 0.053657 0.291531 -0.072362
C64   C     C_R   0.079056 0.136360 0.162823 -0.122246
H16   H     H_    0.026454 0.104772 0.147293 0.182759
H17   H     H_    0.153644 0.038778 0.384449 0.129447
H18   H     H_    0.061590 0.005953 0.313726 0.173184
C65   C     C_R   0.109388 0.202575 0.134235 -0.001869
C66   C     C_R   0.226916 0.239417 0.355475 0.039173
C67   C     C_R   0.226066 0.231126 0.304871 0.036647
C68   C     C_R   0.178989 0.169214 0.283490 0.063244
C69   C     C_R   0.269526 0.284314 0.275172 -0.072127
C70   C     C_R   0.260984 0.281629 0.225158 -0.081425
C71   C     C_R   0.203830 0.230571 0.203316 0.015877
C72   C     C_R   0.163490 0.172705 0.232862 0.024350
C73   C     C_R   0.181128 0.240853 0.153156 0.071605
C74   C     C_R   0.216221 0.157151 0.383876 0.036167
H19   H     H_    0.295100 0.324737 0.204338 0.177846
H20   H     H_    0.311014 0.328264 0.289995 0.123666
C75   C     C_R   0.575258 0.240389 0.363189 -0.014251
C76   C     C_R   0.566545 0.257350 0.312204 -0.039830
C77   C     C_R   0.564143 0.292442 0.210893 -0.015881
C78   C     C_R   0.486951 0.380932 0.242094 0.067464
C79   C     C_R   0.494265 0.364717 0.292017 -0.132148
C80   C     C_R   0.587635 0.311923 0.163109 -0.017855
H21   H     H_    0.437018 0.436379 0.314209 0.138619
C81   C     C_R   0.663856 0.217435 0.133256 0.000636
C82   C     C_R   0.693108 0.036094 0.348661 -0.090283
C83   C     C_R   0.693213 0.051974 0.298737 0.038652
C84   C     C_R   0.627644 0.163291 0.280213 0.036524
C85   C     C_R   0.751818 0.958542 0.266491 0.023377
C86   C     C_R   0.739569 0.976805 0.216519 -0.104821
C87   C     C_R   0.684941 0.087300 0.197671 0.021260
C88   C     C_R   0.625675 0.181026 0.229581 0.009516
C89   C     C_R   0.696912 0.106099 0.148390 0.084162
C90   C     C_R   0.635579 0.127869 0.380891 0.015020
H22   H     H_    0.785567 0.903765 0.192916 0.155279
H23   H     H_    0.730553 0.950574 0.362690 0.191013
O14   O     O_R   0.818720 0.150820 0.967160 -0.469443
O15   O     O_R   0.006410 0.181720 0.970200 -0.471927
C91   C     C_R   0.048132 0.236917 0.949535 0.555961
O16   O     O_R   0.027890 0.334070 0.964920 -0.498149
O17   O     O_R   0.809600 0.521790 0.967960 -0.490489
C92   C     C_R   0.711689 0.562365 0.948135 0.551045
O18   O     O_R   0.635520 0.542770 0.964420 -0.484266
O19   O     O_R   0.665950 0.325030 0.970100 -0.492735
C93   C     C_R   0.719934 0.224707 0.951808 0.561962
O20   O     O_R   0.816620 0.158530 0.074540 -0.481337
O21   O     O_R   0.004460 0.188870 0.069750 -0.506353
C94   C     C_R   0.049644 0.243682 0.087902 0.554224
O22   O     O_R   0.025800 0.341780 0.072300 -0.482780
O23   O     O_R   0.807650 0.528950 0.067500 -0.501735
C95   C     C_R   0.709966 0.572874 0.086366 0.539129
O24   O     O_R   0.633420 0.550490 0.071810 -0.485631
O25   O     O_R   0.664000 0.332180 0.069640 -0.467167
C96   C     C_R   0.716907 0.234873 0.089349 0.550378
Cr4   Cr    Cr6+3 0.909170 0.177380 0.020380 1.107864
Cr5   Cr    Cr6+3 0.912710 0.429210 0.018220 1.087551
Cr6   Cr    Cr6+3 0.657170 0.432570 0.019030 1.118607
O26   O     O_3   0.826350 0.346390 0.019210 -0.290473
C97   C     C_2   0.801746 0.763727 0.796563 0.204850
H24   H     H_    0.834139 0.803165 0.772097 0.107619
O27   O     O_2   0.820308 0.762025 0.840081 -0.477226
I1    I     I_    0.844333 0.226885 0.810004 -0.405357
C98   C     C_2   0.899212 0.558565 0.717923 0.233300
H25   H     H_    0.971833 0.519748 0.742327 0.095172
O28   O     O_2   0.914405 0.555929 0.674206 -0.467541
I2    I     I_    0.851187 0.541011 0.420338 -0.240957
C99   C     C_2   0.968537 0.563263 0.320763 0.303980
H26   H     H_    0.959684 0.609758 0.354137 0.190121
O29   O     O_2   0.063846 0.505326 0.304065 -0.503058
I3    I     I_    0.316170 0.818042 0.177059 -0.225416
I4    I     I_    0.303323 0.777050 0.305690 -0.301884
C100  C     C_2   0.438937 0.896820 0.355441 0.255027
H27   H     H_    0.366614 0.907534 0.375813 0.154314
O30   O     O_2   0.440302 0.979017 0.338325 -0.537195
I5    I     I_    0.997007 0.963859 0.213360 -0.278362
I6    I     I_    0.256337 0.310298 0.105718 -0.250576
C101  C     C_2   0.230567 0.338586 0.377765 0.325193
H28   H     H_    0.294083 0.360467 0.367248 0.075439
O31   O     O_2   0.160366 0.397720 0.408257 -0.441689
C102  C     C_2   0.547285 0.431034 0.148371 0.302669
H29   H     H_    0.573943 0.482614 0.168931 0.103187
O32   O     O_2   0.478809 0.473890 0.115152 -0.409656
C103  C     C_2   0.524412 0.338224 0.398040 0.249711
H30   H     H_    0.443085 0.413485 0.390998 0.106633
O33   O     O_2   0.574540 0.335563 0.435535 -0.462992
I7    I     I_    0.336611 0.530627 0.218962 -0.213867
I8    I     I_    0.763487 0.968276 0.096399 -0.267699
C104  C     C_2   0.454842 0.768090 0.795716 0.237885
H31   H     H_    0.383751 0.798556 0.770622 0.083943
O34   O     O_2   0.437539 0.777665 0.839382 -0.455930
C105  C     C_2   0.836411 0.841745 0.282119 0.236412
H32   H     H_    0.854440 0.770531 0.258377 0.122008
O35   O     O_2   0.893942 0.824592 0.318771 -0.493974
C106  C     C_2   0.152409 0.971013 0.787665 0.279187
H33   H     H_    0.160287 0.909744 0.760069 0.103573
O36   O     O_2   0.133317 0.957962 0.829642 -0.433583
I9    I     I_    0.966249 0.155583 0.687267 -0.354532

loop_
_geom_bond_atom_site_label_1
_geom_bond_atom_site_label_2
_geom_bond_distance
_ccdc_geom_bond_type
C24   C29   1.473922 S    
C47   C99   1.483483 S    
C13   C15   1.543504 S    
C32   H8    1.109912 S    
C37   C39   1.549826 S    
C62   C63   1.393746 A    
C45   C46   1.396558 A    
C64   H16   1.080287 S    
Cr4   O26   1.983086 S    
C53   I4    2.139998 S    
C76   C84   1.421454 A    
O21   Cr4   1.923821 S    
C49   C57   1.382222 A    
C78   C79   1.388672 A    
C86   H22   1.080481 S    
C92   O18   1.272213 A    
C4    C90   1.471203 S    
C104  H31   1.082965 S    
C4    O9    1.271934 A    
C71   C73   1.405016 A    
H10   C40   1.110405 S    
C3    C22   1.427291 S    
C100  H27   1.077810 S    
C31   C38   1.542811 S    
C36   C41   1.476818 S    
C69   H20   1.076787 S    
C38   C42   1.484008 S    
O22   Cr5   2.037599 S    
C98   H25   1.084153 S    
C75   C76   1.418757 A    
C77   C78   1.418467 A    
C12   C15   1.535132 S    
Cr5   O26   1.982565 S    
C55   C56   1.422585 A    
O4    C2    1.276363 A    
C106  O36   1.219900 D    
C64   C65   1.406058 A    
C77   C88   1.409878 A    
C101  H28   1.082260 S    
C63   H18   1.083779 S    
O23   C95   1.263361 A    
C32   C36   1.537933 S    
C105  H32   1.081890 S    
C25   C27   1.551906 S    
C35   C37   1.544919 S    
C8    C12   1.536527 S    
C66   C67   1.396748 A    
C9    C92   1.429993 S    
C8    C97   1.496568 S    
C33   C41   1.210756 T    
O25   Cr6   1.924743 S    
C54   C55   1.404298 A    
C23   H7    1.109056 S    
C2    C10   1.429114 S    
C62   I5    2.116429 S    
C80   C81   1.433207 A    
C91   O16   1.270245 A    
C19   I9    2.150443 S    
C7    C8    1.539372 S    
C14   C16   1.546945 S    
C89   I8    2.152028 S    
C5    C58   1.455212 S    
C59   H17   1.084188 S    
O24   Cr6   2.051528 S    
O9    Cr2   2.045519 S    
C24   C27   1.540379 S    
C77   C80   1.413775 A    
C20   C106  1.496647 S    
C1    C34   1.451635 S    
C103  O33   1.221262 D    
C67   C69   1.405301 A    
Cr3   O13   1.982283 S    
C70   H19   1.077928 S    
C44   C47   1.423316 A    
C35   I1    2.139255 S    
C21   C29   1.209271 T    
C70   C71   1.397718 A    
C51   C53   1.408217 A    
C83   C85   1.416242 A    
C51   C52   1.399353 A    
C102  O32   1.221696 D    
C26   C28   1.538331 S    
O20   Cr4   2.053842 S    
O1    Cr1   2.058855 S    
C66   C74   1.432088 A    
C46   C47   1.404103 A    
C55   C57   1.386436 A    
C66   C101  1.492407 S    
C75   C103  1.491344 S    
C67   C68   1.403416 A    
O10   Cr2   1.930517 S    
C15   C104  1.495822 S    
C86   C87   1.399332 A    
Cr1   O13   1.983442 S    
O1    C3    1.266003 A    
C48   H13   1.084967 S    
C104  O34   1.219836 D    
O4    Cr2   1.928014 S    
O6    C3    1.276687 A    
C27   H5    1.110229 S    
C33   C93   1.443493 S    
C79   H21   1.077852 S    
C102  H29   1.084801 S    
O17   Cr5   1.921348 S    
O14   Cr4   2.042509 S    
C12   C17   1.463936 S    
C61   C64   1.390043 A    
O12   Cr3   1.920893 S    
C43   C58   1.404710 A    
C7    C14   1.534179 S    
C23   C24   1.548037 S    
C84   C88   1.414385 A    
C85   C105  1.481889 S    
C27   C28   1.555260 S    
C37   H12   1.110052 S    
O7    Cr1   2.039537 S    
O20   C96   1.291727 A    
O8    Cr1   1.938938 S    
O12   C6    1.304846 A    
O16   Cr5   2.060324 S    
O15   Cr4   1.938291 S    
C7    C11   1.547123 S    
O21   C94   1.270026 A    
C23   C25   1.548554 S    
C2    O5    1.271678 A    
C54   I3    2.141511 S    
C22   C30   1.201740 T    
C80   C102  1.480420 S    
C61   C72   1.406443 A    
C103  H30   1.081928 S    
C97   O27   1.219893 D    
C78   I7    2.132655 S    
C57   H15   1.079575 S    
C75   C90   1.411042 A    
C45   C48   1.386187 A    
C14   C18   1.461375 S    
O19   Cr6   1.932648 S    
C53   C54   1.392556 A    
C60   C68   1.414096 A    
C1    O3    1.276106 A    
O14   C93   1.278371 A    
C50   C100  1.471895 S    
C32   C40   1.554724 S    
C65   C73   1.403638 A    
C83   C84   1.411293 A    
C11   C12   1.547038 S    
C87   C89   1.408240 A    
O25   C96   1.268295 A    
O19   C93   1.278326 A    
H4    C28   1.108622 S    
C31   C32   1.551869 S    
C81   C96   1.490882 S    
C36   C39   1.535040 S    
C9    C17   1.202936 T    
O2    Cr1   1.923507 S    
Cr6   O26   1.987130 S    
C65   C94   1.462363 S    
C99   O29   1.219575 D    
Cr2   O13   1.987347 S    
C50   C51   1.376712 A    
O15   C91   1.278695 A    
O6    Cr3   1.940685 S    
C21   C91   1.440789 S    
O18   Cr6   2.042131 S    
C82   C83   1.393192 A    
O11   Cr3   2.057808 S    
C20   C24   1.538054 S    
C31   C35   1.545284 S    
C43   I2    2.144026 S    
C71   C72   1.421118 A    
C26   C30   1.461104 S    
O17   C92   1.275099 A    
C8    C16   1.550683 S    
C25   H6    1.110089 S    
C49   C95   1.438390 S    
C13   H2    1.110315 S    
C95   O24   1.276688 A    
C10   C18   1.202275 T    
C99   H26   1.081191 S    
C98   O28   1.219840 D    
O2    C1    1.280767 A    
C59   C74   1.396290 A    
C19   C23   1.551277 S    
C50   C58   1.402864 A    
C52   C56   1.393876 A    
C94   O22   1.277479 A    
C15   C16   1.546539 S    
C60   C63   1.394887 A    
O5    Cr3   2.039083 S    
C13   C14   1.541410 S    
C73   I6    2.151063 S    
C59   C60   1.400519 A    
C19   C20   1.541851 S    
C101  O31   1.221200 D    
C11   H3    1.105728 S    
O7    C6    1.249656 A    
C39   H11   1.107295 S    
C11   C13   1.555556 S    
C61   C62   1.412115 A    
C82   H23   1.079752 S    
C105  O35   1.220485 D    
C68   C72   1.405260 A    
C35   C36   1.536199 S    
C6    C74   1.481232 S    
C45   C56   1.401815 A    
C19   C26   1.530256 S    
C37   C38   1.543392 S    
O3    Cr2   2.047032 S    
C25   C26   1.536686 S    
O23   Cr5   1.941639 S    
C48   C49   1.402069 A    
C43   C44   1.422551 A    
C97   H24   1.084603 S    
C34   C42   1.215732 T    
C100  O30   1.220636 D    
C39   C40   1.552959 S    
C46   H14   1.085091 S    
H1    C16   1.110743 S    
C69   C70   1.382159 A    
O10   C5    1.277844 A    
C87   C88   1.414026 A    
C106  H33   1.084376 S    
C81   C89   1.407155 A    
C85   C86   1.393842 A    
C7    C98   1.497843 S    
C76   C79   1.402533 A    
C44   C52   1.427998 A    
C5    O11   1.265708 A    
O8    C4    1.281326 A    
C38   C40   1.543061 S    
C20   C28   1.544170 S    
C31   H9    1.110152 S    
C82   C90   1.400645 A    
