data_mof_unit_1094.cif
_audit_creation_date              2012-10-26T17:12:33-0400
_audit_creation_method            fapswitch 2.2
_symmetry_space_group_name_H-M    P1
_symmetry_Int_Tables_number       1
_space_group_crystal_system       triclinic
_cell_length_a                    16.707692
_cell_length_b                    16.923216
_cell_length_c                    16.761735
_cell_angle_alpha                 67.414967
_cell_angle_beta                  68.474974
_cell_angle_gamma                 68.013584
_cell_volume                      3917.42705059

loop_
_atom_site_label
_atom_site_type_symbol
_atom_type_description
_atom_site_fract_x
_atom_site_fract_y
_atom_site_fract_z
_atom_type_partial_charge
C1    C     C_R   0.020080 0.829486 0.567087 0.885726
C2    C     C_R   0.987450 0.167678 0.429688 0.893879
C3    C     C_R   0.830471 0.569067 0.016728 0.880842
C4    C     C_R   0.168294 0.430663 0.986591 0.885227
C5    C     C_R   0.568732 0.014216 0.831615 0.871038
C6    C     C_R   0.435593 0.971697 0.172013 0.900920
C7    C     C_R   0.430980 0.168532 0.984763 0.871863
C8    C     C_R   0.564124 0.828097 0.029887 0.893311
C9    C     C_R   0.972217 0.434914 0.171401 0.895699
C10   C     C_R   0.028427 0.564369 0.827966 0.885398
C11   C     C_R   0.171985 0.971555 0.435576 0.891480
C12   C     C_R   0.831280 0.012747 0.569686 0.876081
C13   C     C_R   0.488701 0.941290 0.748606 0.469048
C14   C     C_R   0.553691 0.909215 0.299146 0.552258
C15   C     C_R   0.019755 0.717056 0.458293 0.533954
C16   C     C_R   0.081441 0.256414 0.481780 0.521992
C17   C     C_R   0.724633 0.499453 0.964217 0.535719
C18   C     C_R   0.256571 0.488692 0.077870 0.484122
C19   C     C_R   0.302032 0.891345 0.552322 0.557082
C20   C     C_R   0.749294 0.914036 0.514957 0.516915
C21   C     C_R   0.509496 0.254462 0.052714 0.517613
C22   C     C_R   0.452592 0.698803 0.079386 0.544702
C23   C     C_R   0.930993 0.536013 0.303963 0.484922
C24   C     C_R   0.081548 0.450345 0.700442 0.547922
C25   C     C_R   0.565335 0.936544 0.573814 -0.092749
C26   C     C_R   0.472327 0.918748 0.474347 -0.092689
C27   C     C_R   0.046213 0.535350 0.532806 -0.110126
C28   C     C_R   0.023475 0.442206 0.437635 -0.100314
C29   C     C_R   0.542210 0.535499 0.038359 -0.090564
C30   C     C_R   0.444120 0.431500 0.038748 -0.099648
C31   C     C_R   0.612643 0.915112 0.492783 -0.083792
C32   C     C_R   0.432780 0.911965 0.566253 -0.100184
C33   C     C_R   0.061698 0.442003 0.566305 -0.085981
C34   C     C_R   0.003807 0.535749 0.406974 -0.023326
C35   C     C_R   0.447600 0.565686 0.058595 -0.073608
C36   C     C_R   0.538022 0.393365 0.030951 -0.032445
C37   C     C_R   0.564284 0.915372 0.437939 -0.064683
C38   C     C_R   0.476237 0.929854 0.614278 -0.037811
C39   C     C_R   0.398392 0.511151 0.062662 -0.068250
C40   C     C_R   0.589341 0.449924 0.022265 -0.046422
C41   C     C_R   0.062273 0.394321 0.511066 -0.097799
C42   C     C_R   0.031214 0.578229 0.446784 -0.052840
C43   C     C_R   0.435313 0.941328 0.700782 0.348650
C44   C     C_R   0.603428 0.913511 0.347823 0.370574
C45   C     C_R   0.042733 0.663089 0.404729 0.380922
C46   C     C_R   0.102344 0.301612 0.522991 0.372003
C47   C     C_R   0.684637 0.431909 0.989608 0.356168
C48   C     C_R   0.304467 0.526793 0.099550 0.433979
C49   C     C_R   0.354984 0.880647 0.605780 0.440108
C50   C     C_R   0.706809 0.886819 0.475731 0.406928
C51   C     C_R   0.570571 0.299941 0.037408 0.348904
C52   C     C_R   0.405718 0.652987 0.067627 0.391519
C53   C     C_R   0.950213 0.584312 0.344424 0.395136
C54   C     C_R   0.073320 0.401254 0.654192 0.380064
C55   C     C_R   0.568190 0.968645 0.703454 -0.123388
C56   C     C_R   0.459222 0.929588 0.328489 -0.150893
C57   C     C_R   0.028179 0.681223 0.548328 -0.156522
C58   C     C_R   0.025746 0.302769 0.422749 -0.156248
C59   C     C_R   0.684289 0.567449 0.004683 -0.161614
C60   C     C_R   0.302435 0.424776 0.030178 -0.146544
C61   C     C_R   0.328973 0.925757 0.458455 -0.153086
C62   C     C_R   0.699690 0.962408 0.577538 -0.165658
C63   C     C_R   0.432222 0.299224 0.022894 -0.151566
C64   C     C_R   0.546642 0.674378 0.054036 -0.147152
C65   C     C_R   0.967983 0.443906 0.320607 -0.089155
C66   C     C_R   0.057186 0.544704 0.672245 -0.143758
C67   C     C_R   0.609445 0.001097 0.741588 -0.187842
C68   C     C_R   0.402604 0.952497 0.271570 -0.175792
C69   C     C_R   0.026264 0.732453 0.601442 -0.173861
C70   C     C_R   0.993308 0.260061 0.386970 -0.178214
C71   C     C_R   0.734357 0.610271 0.018290 -0.186767
C72   C     C_R   0.260226 0.388082 0.997582 -0.183009
C73   C     C_R   0.271745 0.951952 0.401917 -0.167528
C74   C     C_R   0.739295 0.999643 0.612575 -0.171490
C75   C     C_R   0.389473 0.259052 0.995547 -0.190969
C76   C     C_R   0.599036 0.729776 0.044451 -0.171452
C77   C     C_R   0.963554 0.396829 0.269047 -0.140671
C78   C     C_R   0.043027 0.598388 0.728043 -0.176998
C79   C     C_R   0.690952 0.021840 0.692556 0.517393
C80   C     C_R   0.309749 0.966374 0.309278 0.523005
C81   C     C_R   0.032078 0.690017 0.689818 0.521554
C82   C     C_R   0.965871 0.307343 0.308014 0.506226
C83   C     C_R   0.690792 0.692108 0.037221 0.551097
C84   C     C_R   0.306918 0.307354 0.976539 0.536803
C85   C     C_R   0.609622 0.959694 0.616742 -0.091362
C86   C     C_R   0.419904 0.926050 0.419862 -0.088617
C87   C     C_R   0.044975 0.587007 0.584476 -0.097117
C88   C     C_R   0.005671 0.396338 0.393828 -0.103333
C89   C     C_R   0.590799 0.592056 0.033537 -0.096184
C90   C     C_R   0.393988 0.386760 0.026695 -0.093359
Cu1   Cu    Cu3+1 0.995180 0.995180 0.424630 1.133336
Cu2   Cu    Cu3+1 0.004820 0.004820 0.575370 1.144366
Cu3   Cu    Cu3+1 0.995180 0.424630 0.995180 1.089859
Cu4   Cu    Cu3+1 0.004820 0.575370 0.004820 1.108785
Cu5   Cu    Cu3+1 0.424630 0.995180 0.995180 1.122832
Cu6   Cu    Cu3+1 0.575370 0.004820 0.004820 1.117214
O1    O     O_R   0.124540 0.978640 0.385460 -0.545379
O2    O     O_R   0.875460 0.021360 0.614540 -0.535263
O3    O     O_R   0.978640 0.385460 0.124540 -0.554063
O4    O     O_R   0.021360 0.614540 0.875460 -0.526048
O5    O     O_R   0.385460 0.124540 0.978640 -0.528724
O6    O     O_R   0.614540 0.875460 0.021360 -0.512139
O7    O     O_R   0.614540 0.021360 0.875460 -0.537268
O8    O     O_R   0.385460 0.978640 0.124540 -0.515447
O9    O     O_R   0.875460 0.614540 0.021360 -0.506173
O10   O     O_R   0.124540 0.385460 0.978640 -0.498704
O11   O     O_R   0.021360 0.875460 0.614540 -0.500345
O12   O     O_R   0.978640 0.124540 0.385460 -0.527525
O13   O     O_R   0.013780 0.867370 0.487190 -0.517894
O14   O     O_R   0.986220 0.132630 0.512810 -0.565612
O15   O     O_R   0.867370 0.487190 0.013780 -0.584152
O16   O     O_R   0.132630 0.512810 0.986220 -0.563676
O17   O     O_R   0.487190 0.013780 0.867370 -0.565191
O18   O     O_R   0.512810 0.986220 0.132630 -0.512297
O19   O     O_R   0.512810 0.132630 0.986220 -0.578880
O20   O     O_R   0.487190 0.867370 0.013780 -0.511910
O21   O     O_R   0.986220 0.512810 0.132630 -0.525736
O22   O     O_R   0.013780 0.487190 0.867370 -0.523219
O23   O     O_R   0.132630 0.986220 0.512810 -0.507822
O24   O     O_R   0.867370 0.013780 0.487190 -0.551500
F1    F     F_    0.469409 0.898371 0.837401 -0.679541
F2    F     F_    0.601001 0.876532 0.228034 -0.623253
F3    F     F_    0.974710 0.800165 0.420850 -0.568032
F4    F     F_    0.125774 0.169143 0.491158 -0.653140
F5    F     F_    0.804209 0.496017 0.901009 -0.663628
F6    F     F_    0.167936 0.501883 0.119210 -0.668913
F7    F     F_    0.232211 0.854674 0.592038 -0.633417
F8    F     F_    0.837116 0.875341 0.507670 -0.609326
F9    F     F_    0.523488 0.168574 0.104780 -0.653935
F10   F     F_    0.403599 0.764887 0.118694 -0.645682
F11   F     F_    0.868571 0.574545 0.256742 -0.682847
F12   F     F_    0.120179 0.402805 0.769264 -0.611781
O25   O     O_3   0.344935 0.947575 0.739943 -0.546361
C91   C     C_3   0.302647 0.017468 0.780588 0.103573
H1    H     H_    0.330916 0.075707 0.743017 0.125747
H2    H     H_    0.308945 0.992931 0.850355 0.195235
C92   C     C_3   0.203918 0.049356 0.783615 -0.717802
H3    H     H_    0.170348 0.103699 0.816111 0.225453
H4    H     H_    0.195493 0.074880 0.714616 0.285881
H5    H     H_    0.172349 0.993877 0.822544 0.239545
O26   O     O_3   0.690905 0.915777 0.304754 -0.536035
C93   C     C_3   0.693995 0.005240 0.271499 0.081064
H6    H     H_    0.662735 0.039440 0.325060 0.124845
H7    H     H_    0.658875 0.042358 0.217419 0.193293
C94   C     C_3   0.791173 0.007630 0.233963 -0.746358
H8    H     H_    0.824743 0.974867 0.179573 0.239927
H9    H     H_    0.794647 0.077661 0.206856 0.201446
H10   H     H_    0.826709 0.972284 0.287696 0.281298
O27   O     O_3   0.060219 0.698223 0.312285 -0.537374
C95   C     C_3   0.133868 0.734743 0.279592 0.089987
H11   H     H_    0.196357 0.680824 0.287270 0.154913
H12   H     H_    0.125779 0.782861 0.314111 0.166315
C96   C     C_3   0.143783 0.785162 0.181205 -0.636011
H13   H     H_    0.204421 0.809475 0.154034 0.261132
H14   H     H_    0.149710 0.740783 0.143732 0.286811
H15   H     H_    0.084674 0.843378 0.172732 0.210468
O28   O     O_3   0.167606 0.254347 0.568921 -0.506733
C97   C     C_3   0.249438 0.272388 0.512991 0.118304
H16   H     H_    0.246626 0.342642 0.501221 0.125836
H17   H     H_    0.266429 0.259546 0.447410 0.142298
C98   C     C_3   0.323718 0.211847 0.558443 -0.743821
H18   H     H_    0.328659 0.141091 0.570376 0.252858
H19   H     H_    0.388544 0.225343 0.515155 0.193463
H20   H     H_    0.309648 0.224112 0.623409 0.260568
O29   O     O_3   0.741561 0.352344 0.975784 -0.560021
C99   C     C_3   0.797808 0.312333 0.035681 0.149285
H21   H     H_    0.777316 0.253909 0.087812 0.178291
H22   H     H_    0.795341 0.355625 0.073163 0.129646
C100  C     C_3   0.894342 0.280568 0.984895 -0.717233
H23   H     H_    0.936903 0.243966 0.032505 0.202571
H24   H     H_    0.899253 0.235465 0.948778 0.218897
H25   H     H_    0.919145 0.338181 0.936387 0.283680
O30   O     O_3   0.260366 0.570106 0.165358 -0.525387
C101  C     C_3   0.254375 0.506891 0.251053 0.113674
H26   H     H_    0.250761 0.441525 0.253201 0.137142
H27   H     H_    0.191291 0.533706 0.297215 0.183516
C102  C     C_3   0.331983 0.492468 0.286942 -0.874512
H28   H     H_    0.320466 0.451513 0.357960 0.205516
H29   H     H_    0.395543 0.457075 0.247781 0.251556
H30   H     H_    0.337759 0.557305 0.282700 0.266495
O31   O     O_3   0.333805 0.830274 0.694224 -0.504015
C103  C     C_3   0.401249 0.749012 0.710085 0.080872
H31   H     H_    0.432933 0.748689 0.758061 0.161195
H32   H     H_    0.455547 0.736728 0.649234 0.109357
C104  C     C_3   0.358707 0.672107 0.751570 -0.749587
H33   H     H_    0.409695 0.608582 0.770588 0.191289
H34   H     H_    0.303781 0.681613 0.812210 0.254723
H35   H     H_    0.330997 0.668377 0.702576 0.270282
O32   O     O_3   0.756266 0.818864 0.436311 -0.502784
C105  C     C_3   0.757659 0.735557 0.502747 0.184728
H36   H     H_    0.735145 0.738870 0.573260 0.101349
H37   H     H_    0.827670 0.693250 0.493549 0.205934
C106  C     C_3   0.700852 0.689590 0.492145 -0.813559
H38   H     H_    0.721509 0.685923 0.422472 0.277755
H39   H     H_    0.709352 0.621058 0.538369 0.207246
H40   H     H_    0.629189 0.726698 0.508506 0.230816
O33   O     O_3   0.654513 0.247217 0.046998 -0.552001
C107  C     C_3   0.698516 0.202841 0.978630 0.159512
H41   H     H_    0.735005 0.245274 0.918036 0.173265
H42   H     H_    0.653316 0.186340 0.956154 0.146018
C108  C     C_3   0.765368 0.115798 0.011106 -0.778041
H43   H     H_    0.806109 0.086811 0.954650 0.205526
H44   H     H_    0.810771 0.126658 0.037853 0.233992
H45   H     H_    0.729279 0.067865 0.063914 0.260709
O34   O     O_3   0.320655 0.698815 0.056932 -0.540632
C109  C     C_3   0.327224 0.737992 0.964358 0.065762
H46   H     H_    0.357509 0.686323 0.928154 0.126180
H47   H     H_    0.368188 0.786256 0.935078 0.211334
C110  C     C_3   0.234464 0.787962 0.949964 -0.751729
H48   H     H_    0.203555 0.842478 0.982253 0.236697
H49   H     H_    0.239335 0.817356 0.877234 0.266375
H50   H     H_    0.191569 0.741761 0.978732 0.247140
O35   O     O_3   0.909840 0.675127 0.336774 -0.574914
C111  C     C_3   0.875326 0.728741 0.261504 0.253684
H51   H     H_    0.849301 0.797747 0.266635 0.221661
H52   H     H_    0.815223 0.713674 0.264197 0.211490
C112  C     C_3   0.945820 0.732036 0.171477 -0.708623
H53   H     H_    0.912160 0.768298 0.116400 0.219168
H54   H     H_    0.991787 0.768656 0.164362 0.231703
H55   H     H_    0.985495 0.665058 0.163968 0.273881
O36   O     O_3   0.072683 0.313739 0.699288 -0.502220
C113  C     C_3   0.983169 0.308915 0.731291 0.099276
H56   H     H_    0.948334 0.338967 0.676869 0.127169
H57   H     H_    0.945300 0.343729 0.783926 0.167288
C114  C     C_3   0.982032 0.211938 0.771039 -0.752775
H58   H     H_    0.013910 0.179767 0.827419 0.240873
H59   H     H_    0.911939 0.207526 0.796328 0.196607
H60   H     H_    0.018872 0.176206 0.719132 0.269209
F13   F     F_    0.724637 0.062083 0.724353 -0.646972
F14   F     F_    0.254925 0.997439 0.254353 -0.628745
F15   F     F_    0.024741 0.739816 0.740646 -0.616796
F16   F     F_    0.942340 0.266230 0.267862 -0.640185
F17   F     F_    0.738434 0.737155 0.045423 -0.607849
F18   F     F_    0.270845 0.274135 0.939803 -0.614808

loop_
_geom_bond_atom_site_label_1
_geom_bond_atom_site_label_2
_ccdc_geom_bond_type
C25   C31   A    
C40   C47   A    
C14   C56   A    
C5    O7    A    
Cu4   O9    S    
C68   C80   A    
O28   C97   S    
C14   F2    S    
Cu6   O6    S    
C9    O21   A    
C108  H43   S    
C84   F18   S    
Cu5   Cu6   S    
C27   C42   A    
C13   C43   A    
C30   C90   A    
C11   O23   A    
C110  H50   S    
C91   C92   S    
C29   C89   A    
C94   H8    S    
C10   C78   S    
Cu2   O2    S    
C99   H22   S    
O29   C99   S    
O34   C109  S    
C27   C33   A    
C112  H55   S    
C26   C32   A    
C92   H4    S    
Cu3   Cu4   S    
C15   F3    S    
C14   C44   A    
Cu2   O23   S    
C114  H58   S    
C20   F8    S    
C12   C74   S    
C99   C100  S    
Cu3   O10   S    
Cu4   O21   S    
C109  H47   S    
C75   C84   A    
C104  H34   S    
C60   C72   A    
C24   C54   A    
O31   C103  S    
C28   C41   A    
C8    C76   S    
C114  H60   S    
C55   C67   A    
C63   C90   A    
C59   C89   A    
C7    O19   A    
C43   O25   S    
C50   O32   S    
C19   C49   A    
C103  H31   S    
C6    O18   A    
C15   C57   A    
C20   C50   A    
C51   O33   S    
C105  C106  S    
C1    O13   A    
C12   O24   A    
C79   F13   S    
C83   F17   S    
C3    O15   A    
C44   O26   S    
C102  H29   S    
C95   C96   S    
C34   C42   A    
C28   C88   A    
C53   O35   S    
C41   C46   A    
Cu6   O19   S    
C107  H41   S    
C32   C38   A    
C96   H14   S    
Cu3   O3    S    
C12   O2    A    
C97   C98   S    
C5    C67   S    
C102  H30   S    
C6    C68   S    
C4    O16   A    
C28   C34   A    
C93   H7    S    
C9    O3    A    
O30   C101  S    
C22   F10   S    
C97   H17   S    
C108  H44   S    
C93   C94   S    
Cu6   O18   S    
O33   C107  S    
C64   C89   A    
Cu1   O24   S    
C2    C70   S    
C76   C83   A    
C25   C85   A    
C98   H19   S    
C23   C53   A    
C71   C83   A    
C23   C65   A    
C66   C78   A    
C62   C85   A    
C65   C77   A    
C94   H9    S    
C52   O34   S    
C100  H23   S    
C36   C40   A    
C67   C79   A    
C45   O27   S    
C11   C73   S    
C16   C46   A    
C66   C87   A    
C109  H46   S    
C58   C70   A    
C54   O36   S    
C7    C75   S    
C113  C114  S    
C61   C73   A    
C112  H53   S    
C56   C68   A    
C46   O28   S    
C4    O10   A    
C1    C69   S    
C31   C37   A    
C18   C48   A    
C103  C104  S    
C55   C85   A    
C35   C39   A    
C105  H36   S    
O36   C113  S    
C10   O22   A    
C25   C38   A    
O25   C91   S    
C13   F1    S    
C24   F12   S    
Cu2   O11   S    
C56   C86   A    
C3    O9    A    
C109  C110  S    
Cu4   O4    S    
Cu5   O20   S    
C26   C86   A    
C106  H40   S    
C107  C108  S    
C106  H39   S    
C110  H48   S    
C64   C76   A    
C23   F11   S    
C101  H27   S    
C9    C77   S    
Cu1   O1    S    
C96   H15   S    
C10   O4    A    
C101  C102  S    
C21   F9    S    
C72   C84   A    
C36   C51   A    
C17   C59   A    
C49   O31   S    
C18   C60   A    
Cu3   O15   S    
C102  H28   S    
C16   C58   A    
C6    O8    A    
C74   C79   A    
C7    O5    A    
C99   H21   S    
C108  H45   S    
C95   H12   S    
Cu3   O22   S    
C15   C45   A    
C31   C50   A    
C19   C61   A    
C21   C51   A    
C98   H20   S    
C94   H10   S    
C65   C88   A    
C22   C52   A    
C48   O30   S    
C100  H24   S    
C33   C54   A    
C82   F16   S    
C2    O14   A    
C105  H37   S    
C5    O17   A    
C113  H57   S    
C111  H51   S    
Cu1   O12   S    
C17   C47   A    
C80   F14   S    
C104  H35   S    
C111  C112  S    
C58   C88   A    
C91   H2    S    
C26   C37   A    
C3    C71   S    
C60   C90   A    
C4    C72   S    
C112  H54   S    
C92   H3    S    
C29   C35   A    
C91   H1    S    
C47   O29   S    
C30   C36   A    
C11   O1    A    
C33   C41   A    
Cu1   O13   S    
C37   C44   A    
C16   F4    S    
C38   C43   A    
Cu2   O14   S    
C98   H18   S    
O27   C95   S    
C27   C87   A    
Cu5   O8    S    
C78   C81   A    
C17   F5    S    
C104  H33   S    
C97   H16   S    
C63   C75   A    
C77   C82   A    
Cu5   O17   S    
O35   C111  S    
C92   H5    S    
C29   C40   A    
C2    O12   A    
C114  H59   S    
C73   C80   A    
C30   C39   A    
C111  H52   S    
C20   C62   A    
O32   C105  S    
C70   C82   A    
C103  H32   S    
C32   C49   A    
C21   C63   A    
C69   C81   A    
C61   C86   A    
C8    O20   A    
C22   C64   A    
C1    O11   A    
C57   C87   A    
C24   C66   A    
C34   C53   A    
C106  H38   S    
C81   F15   S    
Cu6   O7    S    
C35   C52   A    
C93   H6    S    
C110  H49   S    
C95   H11   S    
C62   C74   A    
C107  H42   S    
C100  H25   S    
C19   F7    S    
C57   C69   A    
C96   H13   S    
O26   C93   S    
C8    O6    A    
C113  H56   S    
C42   C45   A    
Cu4   O16   S    
C18   F6    S    
Cu1   Cu2   S    
Cu5   O5    S    
C59   C71   A    
C39   C48   A    
C13   C55   A    
C101  H26   S    
