data_mof_unit_3329.cif
_audit_creation_date              2013-03-05T15:45:30-0500
_audit_creation_method            fapswitch 2.2
_symmetry_space_group_name_H-M    P1
_symmetry_Int_Tables_number       1
_space_group_crystal_system       triclinic
_cell_length_a                    27.653314
_cell_length_b                    10.766643
_cell_length_c                    10.032501
_cell_angle_alpha                 90.46214
_cell_angle_beta                  90.557893
_cell_angle_gamma                 90.552295
_cell_volume                      2986.63041616

loop_
_atom_site_label
_atom_site_type_symbol
_atom_site_description
_atom_site_fract_x
_atom_site_fract_y
_atom_site_fract_z
_atom_type_partial_charge
O1    O     O_R   0.499990 0.319060 0.613040 -0.630302
O2    O     O_R   0.500010 0.319100 0.386900 -0.614331
C1    C     C_R   0.497398 0.262972 0.499024 0.946108
O3    O     O_R   0.428750 0.500000 0.613050 -0.608581
O4    O     O_R   0.428760 0.500040 0.386920 -0.520581
C2    C     C_R   0.405890 0.498680 0.499755 0.970468
Zn1   Zn    Zn3+2 0.499990 0.499970 0.650990 0.982702
Zn2   Zn    Zn3+2 0.500010 0.500030 0.349010 1.090071
O5    O     O_R   0.499990 0.680900 0.613100 -0.604989
O6    O     O_R   0.500010 0.680940 0.386960 -0.554407
O7    O     O_R   0.571240 0.499960 0.613080 -0.640154
O8    O     O_R   0.571250 0.500000 0.386950 -0.576153
C3    C     C_R   0.499277 0.736891 0.500005 1.049798
C4    C     C_R   0.593941 0.502131 0.500879 0.951890
C5    C     C_R   0.178546 0.367942 0.548492 0.571318
O9    O     O_2   0.206628 0.266860 0.557521 -0.453606
N1    N     N_R   0.200244 0.482750 0.544362 -0.349229
C6    C     C_R   0.174034 0.589050 0.554910 0.541747
C7    C     C_R   0.279790 0.559002 0.620364 -0.092686
C8    C     C_R   0.329879 0.567028 0.606492 0.060983
C9    C     C_R   0.323955 0.428144 0.411721 0.323308
C10   C     C_R   0.273773 0.429582 0.423084 -0.170080
C11   C     C_R   0.251697 0.491345 0.528730 0.189546
C12   C     C_R   0.100561 0.465937 0.568861 -0.094725
C13   C     C_R   0.127582 0.356289 0.548253 -0.157306
C14   C     C_R   0.102453 0.241300 0.529568 0.436857
C15   C     C_R   0.124280 0.582399 0.574709 -0.006837
C16   C     C_R   0.352695 0.499312 0.502953 -0.163670
H1    H     H_    0.251371 0.378615 0.351943 0.210376
C17   C     C_R   0.646632 0.494841 0.506161 -0.188656
C18   C     C_R   0.973795 0.346923 0.546106 0.082652
C19   C     C_R   0.973183 0.560559 0.636440 0.039134
C20   C     C_R   0.948151 0.453067 0.589387 0.040836
C21   C     C_R   0.947426 0.245855 0.489824 -0.205609
C22   C     C_R   0.897396 0.248961 0.478081 -0.133665
C23   C     C_R   0.871890 0.351886 0.523836 -0.027901
C24   C     C_R   0.897099 0.452781 0.582891 -0.056781
C25   C     C_R   0.871239 0.554415 0.633161 -0.049801
C26   C     C_R   0.820896 0.555387 0.619229 0.551503
N2    N     N_R   0.797477 0.459648 0.554849 -0.325973
C27   C     C_R   0.821601 0.358049 0.509048 0.556714
C28   C     C_R   0.715441 0.398799 0.614325 0.130125
C29   C     C_R   0.665878 0.411491 0.598824 -0.326708
C30   C     C_R   0.677719 0.568260 0.426291 0.339019
C31   C     C_R   0.728201 0.549555 0.437812 -0.014108
C32   C     C_R   0.746446 0.467471 0.533814 0.290070
O10   O     O_2   0.797001 0.264374 0.448161 -0.548327
C33   C     C_R   0.024931 0.347247 0.555857 -0.011906
C34   C     C_R   0.049645 0.460367 0.580919 0.071490
C35   C     C_R   0.023625 0.569118 0.614319 0.072368
C36   C     C_R   0.052044 0.238988 0.535961 -0.288218
H2    H     H_    0.642182 0.355982 0.660570 0.180615
H3    H     H_    0.878821 0.170579 0.431617 0.193671
H4    H     H_    0.964627 0.165414 0.447496 0.156264
H5    H     H_    0.034234 0.150106 0.526981 0.164182
O11   O     O_2   0.196119 0.701032 0.545612 -0.500007
C37   C     C_R   0.097794 0.690496 0.595325 -0.107790
H6    H     H_    0.262402 0.605929 0.702633 0.173088
H7    H     H_    0.115305 0.780854 0.596887 0.220236
C38   C     C_R   0.946443 0.654738 0.702318 0.068868
C39   C     C_R   0.895980 0.651772 0.697442 -0.180977
O12   O     O_2   0.795451 0.651679 0.668094 -0.555852
C40   C     C_R   0.048329 0.684152 0.614495 -0.178389
H8    H     H_    0.876315 0.726320 0.744996 0.194505
H9    H     H_    0.029705 0.771465 0.620994 0.163342
C41   C     C_2   0.476215 0.932078 0.408652 0.417839
C42   C     C_2   0.503573 0.867786 0.496793 -0.235213
C43   C     C_2   0.486395 0.061414 0.389562 0.103765
C44   C     C_2   0.484411 0.134594 0.497822 -0.393148
H10   H     H_    0.471441 0.097198 0.591513 0.150430
C45   C     C_2   0.521248 0.586303 0.925509 0.117849
N3    N     N_2   0.500520 0.501330 0.852150 -0.199073
H11   H     H_    0.495314 0.415825 0.894401 0.151899
C46   C     C_2   0.527290 0.571984 0.074051 -0.052745
N4    N     N_2   0.500540 0.501360 0.147810 -0.090338
H12   H     H_    0.555967 0.624946 0.122782 0.210789
S1    S     S_3+6 0.347761 0.329598 0.286816 0.069384
O13   O     O_2   0.357805 0.405800 0.165414 -0.244014
O14   O     O_2   0.393556 0.268985 0.333180 -0.299071
O15   O     O_3   0.307277 0.217967 0.245012 -0.482040
H13   H     H_    0.304045 0.166667 0.326051 0.385909
N5    N     N_3   0.969748 0.747183 0.784836 -0.456582
H14   H     H_    0.957571 0.736178 0.882428 0.210848
H15   H     H_    0.958809 0.834661 0.752213 0.184849
S2    S     S_3+6 0.654586 0.682556 0.315033 0.008010
O16   O     O_2   0.647811 0.623159 0.180085 -0.290207
O17   O     O_2   0.606895 0.731872 0.361196 -0.326444
O18   O     O_3   0.692659 0.804172 0.300048 -0.533513
H16   H     H_    0.691890 0.847102 0.387728 0.361051
N6    N     N_3   0.762166 0.611680 0.353560 -0.427095
H17   H     H_    0.750770 0.603510 0.254215 0.257492
H18   H     H_    0.764624 0.704998 0.381886 0.248523
S3    S     S_3+6 0.427095 0.868644 0.313636 0.056435
O19   O     O_2   0.446255 0.803542 0.192303 -0.277217
O20   O     O_2   0.398653 0.778172 0.395717 -0.353376
O21   O     O_3   0.390601 0.984066 0.264637 -0.483131
H19   H     H_    0.364463 0.942561 0.212227 0.401078
N7    N     N_3   0.543860 0.920747 0.570583 -0.451547
H20   H     H_    0.531490 0.973519 0.650756 0.199485
H21   H     H_    0.565385 0.974988 0.508193 0.215036
N8    N     N_3   0.500857 0.101019 0.259207 -0.388324
H22   H     H_    0.475813 0.164361 0.222044 0.268288
H23   H     H_    0.535332 0.141534 0.265057 0.189374
N9    N     N_3   0.540857 0.694795 0.863094 -0.363942
H24   H     H_    0.551966 0.759300 0.935860 0.192846
H25   H     H_    0.571957 0.667798 0.812585 0.220345
N10   N     N_3   0.453919 0.470733 0.102907 -0.266799
H26   H     H_    0.453173 0.378740 0.069019 0.192872
H27   H     H_    0.439895 0.534307 0.034616 0.222909
S4    S     S_3+6 0.130492 0.099387 0.482712 0.093053
O22   O     O_2   0.165014 0.121987 0.370449 -0.187804
O23   O     O_2   0.157846 0.047770 0.599749 -0.229967
O24   O     O_3   0.089194 0.993501 0.430306 -0.540681
H28   H     H_    0.074718 0.960097 0.512627 0.327748
N11   N     N_3   0.734652 0.316931 0.712948 -0.425602
H29   H     H_    0.721660 0.344861 0.805907 0.204735
H30   H     H_    0.721214 0.227539 0.692918 0.212096
N12   N     N_3   0.357754 0.643110 0.698183 -0.391399
H31   H     H_    0.335819 0.679879 0.772796 0.208471
H32   H     H_    0.371321 0.718670 0.645028 0.230309

loop_
_geom_bond_atom_site_label_1
_geom_bond_atom_site_label_2
_geom_bond_distance
_ccdc_geom_bond_type
C41   C43   1.432773 S    
C45   N9    1.434143 S    
C40   H9    1.078054 S    
N4    N10   1.397102 S    
S3    O19   1.503252 D    
C10   H1    1.082956 S    
C22   H3    1.083498 S    
C7    C8    1.395368 A    
C12   C15   1.410017 A    
N9    H25   1.044913 S    
S1    O13   1.500676 D    
N2    C32   1.428228 S    
N1    C11   1.435154 S    
C46   H12   1.082711 S    
C23   C24   1.408557 A    
C1    C44   1.424661 S    
S2    O16   1.501936 D    
O4    C2    1.302182 A    
O7    C4    1.294471 A    
C29   H2    1.084713 S    
C37   H7    1.082449 S    
N11   H29   1.045629 S    
N7    H20   1.043327 S    
C5    N1    1.369924 A    
C21   C22   1.388109 A    
C28   C32   1.394675 A    
O5    C3    1.289187 A    
N12   H31   1.045790 S    
Zn1   O7    2.010305 S    
C42   N7    1.441969 S    
S4    O22   1.503318 D    
C38   N5    1.433634 S    
C33   C36   1.405920 A    
C2    C16   1.471772 S    
C22   C23   1.396214 A    
C43   C44   1.338525 D    
N11   H30   1.045616 S    
N10   H26   1.044540 S    
C18   C20   1.418132 A    
C14   S4    1.781870 S    
C6    O11   1.350572 S    
C25   C39   1.396213 A    
S2    O17   1.502364 D    
C41   C42   1.356608 D    
N8    H23   1.045514 S    
C9    C10   1.393712 A    
C35   C40   1.408656 A    
N10   H27   1.046813 S    
C17   C30   1.420029 A    
C23   C27   1.399360 A    
C4    C17   1.460396 S    
O3    Zn1   2.002818 S    
C8    N12   1.439880 S    
N9    H24   1.045457 S    
C37   C40   1.384293 A    
S4    O23   1.503690 D    
S1    O14   1.501776 D    
C7    H6    1.083227 S    
S3    O20   1.502101 D    
C46   N4    1.296873 D    
N8    H22   1.044933 S    
C12   C13   1.418058 A    
O3    C2    1.295119 A    
C15   C37   1.396162 A    
C26   N2    1.366509 A    
N3    H11   1.026076 S    
C8    C16   1.420586 A    
C13   C14   1.424049 A    
C31   C32   1.405741 A    
Zn2   N4    2.018901 S    
C20   C24   1.412571 A    
C38   C39   1.395907 A    
O1    C1    1.290221 A    
C39   H8    1.083900 S    
C7    C11   1.394147 A    
C24   C25   1.405835 A    
O4    Zn2   2.010302 S    
N6    H18   1.043328 S    
Zn2   O8    2.002821 S    
O21   H19   0.990539 S    
N1    C6    1.364522 A    
C27   O10   1.349770 S    
C18   C21   1.414703 A    
C43   N8    1.438036 S    
C31   N6    1.434053 S    
S4    O24   1.683396 S    
C19   C35   1.416807 A    
C41   S3    1.779494 S    
N2    C27   1.365540 A    
C9    C16   1.421010 A    
O8    C4    1.298474 A    
C34   C35   1.419716 A    
S3    O21   1.681897 S    
N5    H15   1.046053 S    
C18   C33   1.416478 A    
C17   C29   1.402091 A    
C28   C29   1.386057 A    
C19   C38   1.423003 A    
C30   S2    1.786859 S    
Zn1   N3    2.017982 S    
C30   C31   1.416113 A    
O24   H28   0.990023 S    
C3    C42   1.413809 S    
S2    O18   1.680863 S    
C12   C34   1.415071 A    
Zn1   O5    1.987758 S    
C26   O12   1.350143 S    
C33   C34   1.410432 A    
O1    Zn1   1.981640 S    
O2    Zn2   1.987759 S    
C6    C15   1.393274 A    
O15   H13   0.990838 S    
O6    C3    1.280310 A    
C45   C46   1.507276 S    
C21   H4    1.078238 S    
N7    H21   1.045738 S    
C19   C20   1.418028 A    
O2    C1    1.283542 A    
C45   N3    1.295386 D    
C14   C36   1.396066 A    
S1    O15   1.682425 S    
N6    H17   1.045159 S    
C25   C26   1.397929 A    
C36   H5    1.074770 S    
C44   H10   1.088188 S    
N12   H32   1.044981 S    
C5    C13   1.413661 A    
C28   N11   1.432131 S    
O18   H16   0.990892 S    
Zn2   O6    1.981639 S    
N5    H14   1.045730 S    
C9    S1    1.771292 S    
C10   C11   1.395462 A    
C5    O9    1.346181 S    
