data_mof_unit_821.cif
_audit_creation_date              2013-03-05T16:48:14-0500
_audit_creation_method            fapswitch 2.2
_symmetry_space_group_name_H-M    P1
_symmetry_Int_Tables_number       1
_space_group_crystal_system       triclinic
_cell_length_a                    23.386698
_cell_length_b                    8.928894
_cell_length_c                    8.093317
_cell_angle_alpha                 89.616037
_cell_angle_beta                  90.194691
_cell_angle_gamma                 90.101761
_cell_volume                      1689.9746852

loop_
_atom_site_label
_atom_site_type_symbol
_atom_site_description
_atom_site_fract_x
_atom_site_fract_y
_atom_site_fract_z
_atom_type_partial_charge
O1    O     O_R   0.500000 0.285350 0.636850 -0.622075
O2    O     O_R   0.500000 0.714650 0.363150 -0.613136
O3    O     O_R   0.500000 0.714650 0.636850 -0.620769
O4    O     O_R   0.500000 0.285350 0.363150 -0.610941
C1    C     C_R   0.499974 0.217945 0.500356 0.923566
C2    C     C_R   0.499998 0.782052 0.499653 0.913330
O5    O     O_R   0.416160 0.500000 0.636910 -0.611184
O6    O     O_R   0.583840 0.500000 0.363090 -0.552164
O7    O     O_R   0.583840 0.500000 0.636910 -0.609663
O8    O     O_R   0.416160 0.500000 0.363090 -0.563338
C3    C     C_R   0.208516 0.543673 0.532647 0.083357
C4    C     C_R   0.792756 0.503003 0.545803 0.070682
C5    C     C_R   0.389032 0.505337 0.499911 0.935688
C6    C     C_R   0.611179 0.494769 0.500713 0.926042
Zn1   Zn    Zn3+2 0.500000 0.500000 0.682780 1.040378
Zn2   Zn    Zn3+2 0.500000 0.500000 0.317220 1.072271
C7    C     C_R   0.302546 0.617522 0.626611 0.323714
C8    C     C_R   0.700436 0.424366 0.650160 0.321639
C9    C     C_R   0.292282 0.453446 0.385544 0.365800
C10   C     C_R   0.707287 0.541819 0.375896 0.367579
C11   C     C_R   0.327084 0.527247 0.502070 -0.228140
C12   C     C_R   0.673872 0.483668 0.506317 -0.238972
C13   C     C_R   0.878561 0.654641 0.561292 0.605347
C14   C     C_R   0.122721 0.421898 0.625571 0.600670
C15   C     C_R   0.885068 0.390167 0.597721 0.542930
C16   C     C_R   0.117791 0.669023 0.511617 0.558407
N1    N     N_R   0.853528 0.516321 0.568987 -0.352963
N2    N     N_R   0.147971 0.544642 0.556178 -0.355369
C17   C     C_R   0.943353 0.401879 0.635770 -0.149912
C18   C     C_R   0.058770 0.676490 0.542759 -0.143703
C19   C     C_R   0.938524 0.667602 0.560870 -0.121894
C20   C     C_R   0.063075 0.416440 0.643631 -0.113506
C21   C     C_R   0.971001 0.538765 0.600255 -0.134641
C22   C     C_R   0.030977 0.544523 0.597452 -0.139543
C23   C     C_R   0.974901 0.280082 0.701837 0.340307
C24   C     C_R   0.026523 0.808824 0.514141 0.333101
C25   C     C_R   0.966276 0.803736 0.520413 0.477273
C26   C     C_R   0.035061 0.287417 0.705942 0.478046
C27   C     C_1   0.499965 0.065181 0.500522 -0.154885
C28   C     C_1   0.499969 0.934812 0.499517 -0.156283
C29   C     C_R   0.243475 0.619538 0.645364 -0.026463
C30   C     C_R   0.758896 0.443331 0.673544 -0.020246
C31   C     C_R   0.232248 0.464549 0.399750 -0.081156
C32   C     C_R   0.767411 0.546891 0.394418 -0.078942
N3    N     N_1   0.500000 0.500000 0.073640 0.002933
N4    N     N_1   0.500000 0.500000 0.926360 0.002654
O9    O     O_2   0.845276 0.777668 0.550820 -0.446779
O10   O     O_2   0.155598 0.304902 0.672433 -0.462817
O11   O     O_2   0.860230 0.254148 0.584375 -0.478534
O12   O     O_2   0.144976 0.781968 0.432694 -0.501415
O13   O     O_3   0.948264 0.155705 0.768808 -0.713185
H1    H     H_    0.913391 0.189615 0.826767 0.377765
O14   O     O_3   0.052498 0.944736 0.482421 -0.716297
H2    H     H_    0.084927 0.954813 0.560612 0.398220
O15   O     O_3   0.933617 0.929074 0.484061 -0.629953
H3    H     H_    0.958201 0.013699 0.449029 0.394224
O16   O     O_3   0.067300 0.171700 0.772467 -0.689638
H4    H     H_    0.042342 0.089757 0.812682 0.380371
C33   C     C_1   0.218478 0.701321 0.780896 0.334247
N5    N     N_1   0.198424 0.766592 0.889262 -0.134621
C34   C     C_1   0.784097 0.396469 0.829095 0.350407
N6    N     N_1   0.804180 0.357718 0.953006 -0.177860
C35   C     C_1   0.194333 0.394418 0.281345 0.240396
N7    N     N_1   0.163938 0.338565 0.186802 -0.118396
C36   C     C_1   0.803583 0.598168 0.260427 0.254611
N8    N     N_1   0.832621 0.639876 0.154051 -0.162482
O17   O     O_3   0.335067 0.704815 0.731720 -0.718486
H5    H     H_    0.369300 0.740325 0.671180 0.337502
O18   O     O_3   0.670296 0.347494 0.770517 -0.711229
H6    H     H_    0.640402 0.286964 0.714981 0.341928
O19   O     O_3   0.318528 0.369183 0.264331 -0.722933
H7    H     H_    0.289744 0.320319 0.192990 0.353043
O20   O     O_3   0.679659 0.594753 0.235492 -0.712785
H8    H     H_    0.707160 0.640833 0.157789 0.348868

loop_
_geom_bond_atom_site_label_1
_geom_bond_atom_site_label_2
_geom_bond_distance
_ccdc_geom_bond_type
Zn2   N3    1.971370 S    
O4    Zn2   1.949856 S    
O5    C5    1.276239 A    
C4    C30   1.405867 A    
O7    C6    1.277344 A    
C19   C21   1.413651 A    
C3    C31   1.407010 A    
O1    Zn1   1.954747 S    
C13   N1    1.366966 A    
C15   N1    1.365747 A    
C26   O16   1.385077 S    
O2    Zn2   1.954746 S    
O20   H8    0.988317 S    
C17   C23   1.416100 A    
C14   O10   1.349768 S    
C9    O19   1.385948 S    
Zn1   N4    1.971370 S    
C18   C24   1.420160 A    
O15   H3    0.989231 S    
O3    C2    1.259432 A    
C6    C12   1.470225 S    
C8    O18   1.382315 S    
C14   C20   1.403790 A    
C21   C22   1.403760 A    
O7    Zn1   1.996815 S    
C5    C11   1.462426 S    
O19   H7    0.988230 S    
C4    C32   1.412620 A    
O8    Zn2   1.996818 S    
N3    N4    1.191983 T    
C23   O13   1.380920 S    
C30   C34   1.447785 S    
C32   C36   1.448942 S    
O2    C2    1.261592 A    
C3    N2    1.429386 S    
C20   C22   1.416498 A    
O17   H5    0.990590 S    
O1    C1    1.261534 A    
O5    Zn1   1.994339 S    
C24   C25   1.410716 A    
C10   C32   1.414231 A    
C10   C12   1.411117 A    
C10   O20   1.386011 S    
C16   C18   1.405741 A    
C20   C26   1.415088 A    
O18   H6    0.991294 S    
C16   O12   1.349473 S    
C15   C17   1.400303 A    
C34   N6    1.157043 T    
O13   H1    0.991081 S    
C7    C29   1.390483 A    
C7    O17   1.382743 S    
C13   O9    1.349504 S    
C18   C22   1.413893 A    
C4    N1    1.437771 S    
C31   C35   1.448100 S    
C35   N7    1.157416 T    
C25   O15   1.385445 S    
C17   C21   1.410077 A    
C33   N5    1.157332 T    
C2    C28   1.363968 S    
O3    Zn1   1.949855 S    
C29   C33   1.447343 S    
C14   N2    1.362713 A    
O6    Zn2   1.994336 S    
C36   N8    1.157523 T    
C3    C29   1.400259 A    
C27   C28   1.164139 T    
C1    C27   1.364008 S    
C23   C26   1.408647 A    
O6    C6    1.283028 A    
C24   O14   1.379090 S    
C8    C30   1.389816 A    
C9    C11   1.409710 A    
O16   H4    0.989198 S    
C8    C12   1.417598 A    
C16   N2    1.362841 A    
O8    C5    1.279278 A    
C7    C11   1.418257 A    
C19   C25   1.413956 A    
O14   H2    0.990459 S    
C9    C31   1.412789 A    
O4    C1    1.259510 A    
C15   O11   1.350148 S    
C13   C19   1.406901 A    
