data_mof_unit_4475.cif
_audit_creation_date              2012-12-10T17:03:44-0500
_audit_creation_method            fapswitch 2.2
_symmetry_space_group_name_H-M    P1
_symmetry_Int_Tables_number       1
_space_group_crystal_system       triclinic
_cell_length_a                    10.026396
_cell_length_b                    10.751441
_cell_length_c                    12.9812
_cell_angle_alpha                 89.937154
_cell_angle_beta                  72.074036
_cell_angle_gamma                 90.044001
_cell_volume                      1331.41694622

loop_
_atom_site_label
_atom_site_type_symbol
_atom_type_description
_atom_site_fract_x
_atom_site_fract_y
_atom_site_fract_z
_atom_type_partial_charge
C1    C     C_R   0.501019 0.737330 0.497951 0.946555
C2    C     C_R   0.392929 0.409970 0.806845 -0.228634
C3    C     C_2   0.612809 0.067016 0.499536 -0.137895
C4    C     C_R   0.426974 0.471785 0.699254 0.945167
C5    C     C_2   0.494732 0.131233 0.513286 -0.307221
C6    C     C_2   0.609987 0.933140 0.505979 -0.138672
C7    C     C_2   0.505044 0.868908 0.488499 -0.318491
C8    C     C_2   0.101005 0.432575 0.434512 -0.111167
C9    C     C_2   0.949077 0.426821 0.439349 -0.140272
C10   C     C_R   0.499106 0.262648 0.502324 0.921849
C11   C     C_R   0.576181 0.499304 0.295845 0.880523
C12   C     C_R   0.461831 0.382184 0.968765 0.039282
C13   C     C_R   0.799717 0.485728 0.005637 -0.109837
C14   C     C_R   0.620559 0.483941 0.179141 -0.068291
C15   C     C_R   0.255778 0.368314 0.862384 0.336892
C16   C     C_R   0.227450 0.320530 0.969108 0.335655
C17   C     C_R   0.325862 0.339353 0.024105 -0.341854
C18   C     C_R   0.500360 0.391645 0.855831 0.008701
C19   C     C_R   0.562114 0.415547 0.020445 0.130178
C20   C     C_R   0.703406 0.437540 0.957564 0.159569
C21   C     C_R   0.745451 0.411705 0.847329 -0.225966
C22   C     C_R   0.644975 0.384883 0.797341 -0.127163
C23   C     C_R   0.523337 0.438388 0.131307 -0.248195
C24   C     C_R   0.758096 0.509664 0.116112 -0.103271
H1    H     H_    0.833384 0.547331 0.152341 0.162323
H2    H     H_    0.905958 0.507755 0.957786 0.134359
H3    H     H_    0.416335 0.424797 0.181245 0.155632
H4    H     H_    0.298164 0.310661 0.107842 0.177748
H5    H     H_    0.682338 0.359544 0.712764 0.185152
H6    H     H_    0.713822 0.112720 0.484039 0.181727
H7    H     H_    0.062439 0.367932 0.862907 0.357787
H8    H     H_    0.012480 0.348990 0.175405 0.330721
H9    H     H_    0.391778 0.088566 0.535604 0.162307
H10   H     H_    0.696938 0.887361 0.523856 0.177907
H11   H     H_    0.421514 0.911651 0.464220 0.156085
H12   H     H_    0.174528 0.375764 0.374129 0.157008
H13   H     H_    0.078180 0.546788 0.560200 0.170144
H14   H     H_    0.919902 0.359452 0.387942 0.174315
H15   H     H_    0.880699 0.567040 0.543205 0.168554
H16   H     H_    0.854778 0.416809 0.799059 0.162074
N1    N     N_2   0.148270 0.498670 0.498870 -0.180110
N2    N     N_2   0.852610 0.498640 0.498840 -0.199682
O1    O     O_R   0.386950 0.680940 0.500020 -0.610027
O2    O     O_2   0.010476 0.175336 0.957025 -0.246434
O3    O     O_2   0.121879 0.123977 0.094211 -0.279215
O4    O     O_3   0.961174 0.316765 0.126883 -0.556425
O5    O     O_R   0.613110 0.680900 0.499980 -0.609376
O6    O     O_R   0.330780 0.500000 0.653640 -0.546503
O7    O     O_R   0.556930 0.499960 0.653610 -0.639424
O8    O     O_R   0.386890 0.319100 0.500020 -0.604144
O9    O     O_R   0.613050 0.319060 0.499980 -0.628752
O10   O     O_R   0.443070 0.500040 0.346390 -0.621216
O11   O     O_R   0.669220 0.500000 0.346360 -0.601254
O12   O     O_3   0.156296 0.370334 0.808979 -0.738366
S1    S     S_3+6 0.078097 0.229267 0.035481 0.022951
Zn1   Zn    Zn3+2 0.349000 0.500030 0.500020 0.984437
Zn2   Zn    Zn3+2 0.651000 0.499970 0.499980 0.942257

loop_
_geom_bond_atom_site_label_1
_geom_bond_atom_site_label_2
_ccdc_geom_bond_type
O4    S1    S    
C12   C17   A    
C3    H6    S    
C2    C4    S    
N1    Zn1   S    
C6    C7    D    
O9    Zn2   S    
C22   H5    S    
C23   H3    S    
C2    C18   A    
C19   C23   A    
C19   C20   A    
C11   O11   A    
C4    O7    A    
C3    C6    S    
C20   C21   A    
C16   S1    S    
C5    C10   S    
C1    C7    S    
C21   C22   A    
C24   H1    S    
C2    C15   A    
O2    S1    D    
O3    S1    D    
C9    N2    D    
C16   C17   A    
C21   H16   S    
H8    O4    S    
C10   O9    A    
N2    Zn2   S    
C9    H14   S    
C14   C23   A    
H15   N2    S    
H7    O12   S    
H13   N1    S    
C11   C14   S    
C13   H2    S    
O5    Zn2   S    
C14   C24   A    
C15   C16   A    
C10   O8    A    
C15   O12   S    
O10   Zn1   S    
O1    Zn1   S    
O7    Zn2   S    
C8    N1    D    
C12   C19   A    
C4    O6    A    
C8    H12   S    
C12   C18   A    
O6    Zn1   S    
O11   Zn2   S    
C1    O5    A    
C11   O10   A    
C13   C20   A    
C18   C22   A    
C17   H4    S    
C7    H11   S    
C1    O1    A    
O8    Zn1   S    
C6    H10   S    
C13   C24   A    
C8    C9    S    
C3    C5    D    
C5    H9    S    
