data_mof_unit_4703.cif
_audit_creation_date              2012-12-10T20:02:19-0500
_audit_creation_method            fapswitch 2.2
_symmetry_space_group_name_H-M    P1
_symmetry_Int_Tables_number       1
_space_group_crystal_system       triclinic
_cell_length_a                    10.739285
_cell_length_b                    14.810532
_cell_length_c                    14.206042
_cell_angle_alpha                 88.303427
_cell_angle_beta                  89.080653
_cell_angle_gamma                 91.011928
_cell_volume                      2257.88218362

loop_
_atom_site_label
_atom_site_type_symbol
_atom_type_description
_atom_site_fract_x
_atom_site_fract_y
_atom_site_fract_z
_atom_type_partial_charge
C1    C     C_R   0.505438 0.327417 0.500934 0.923002
C2    C     C_R   0.502947 0.672698 0.499024 0.922507
C3    C     C_R   0.872256 0.502291 0.499776 -0.311075
C4    C     C_R   0.127511 0.513803 0.503363 -0.316049
C5    C     C_R   0.935261 0.460760 0.574911 -0.139052
C6    C     C_R   0.064862 0.552753 0.426133 -0.162429
C7    C     C_R   0.524876 0.086450 0.580818 0.462371
C8    C     C_R   0.502084 0.914941 0.423711 0.477841
C9    C     C_R   0.503785 0.178395 0.581364 -0.338363
C10   C     C_R   0.479720 0.822657 0.425400 -0.322783
C11   C     C_R   0.532200 0.232296 0.501824 -0.163509
C12   C     C_R   0.526849 0.768595 0.497393 -0.173809
C13   C     C_R   0.592068 0.196099 0.423620 -0.215865
C14   C     C_R   0.604065 0.805178 0.565428 -0.320978
C15   C     C_R   0.620543 0.105333 0.423435 0.491862
C16   C     C_R   0.634280 0.896516 0.562015 0.500179
C17   C     C_R   0.582216 0.049553 0.501037 -0.113472
C18   C     C_R   0.579388 0.952266 0.492506 -0.105156
C19   C     C_R   0.415013 0.447423 0.107627 -0.280622
C20   C     C_R   0.518209 0.577598 0.893805 -0.347738
C21   C     C_R   0.416114 0.447797 0.206704 -0.115083
C22   C     C_R   0.519105 0.577850 0.794642 -0.141122
C23   C     C_R   0.260131 0.505101 0.500769 0.935885
C24   C     C_R   0.739830 0.499079 0.499564 0.935376
C25   C     C_R   0.583985 0.553219 0.201377 0.616414
C26   C     C_R   0.477490 0.420490 0.798047 0.581124
C27   C     C_R   0.597520 0.544981 0.102996 0.308733
C28   C     C_R   0.488634 0.415736 0.896920 0.351137
C29   C     C_R   0.506762 0.495709 0.053547 -0.061395
C30   C     C_R   0.504981 0.496000 0.947070 -0.033690
C31   C     C_R   0.232371 0.723400 0.260236 -0.237538
C32   C     C_R   0.786461 0.242548 0.676348 -0.233869
C33   C     C_R   0.186396 0.683072 0.344559 0.468919
C34   C     C_R   0.842885 0.304131 0.611590 0.439731
C35   C     C_R   0.128620 0.596185 0.342425 0.050037
C36   C     C_R   0.874614 0.392583 0.640889 0.067542
C37   C     C_R   0.120310 0.552223 0.256344 -0.125513
C38   C     C_R   0.848598 0.415920 0.734279 -0.250552
C39   C     C_R   0.168310 0.592504 0.172951 0.514557
C40   C     C_R   0.794440 0.352538 0.799043 0.475468
C41   C     C_R   0.224930 0.678561 0.175463 -0.349313
C42   C     C_R   0.762673 0.266352 0.769081 -0.140005
C43   C     C_R   0.936321 0.555414 0.430666 0.451524
C44   C     C_R   0.060492 0.480790 0.583719 0.424134
H1    H     H_    0.261927 0.711489 0.111667 0.155940
H2    H     H_    0.719921 0.217273 0.818119 0.198647
H3    H     H_    0.343244 0.408719 0.073374 0.219798
H4    H     H_    0.529695 0.641081 0.928836 0.198076
H5    H     H_    0.347579 0.407891 0.247017 0.173777
H6    H     H_    0.533670 0.641038 0.755728 0.180910
H7    H     H_    0.272769 0.790848 0.259817 0.172930
H8    H     H_    0.762281 0.175044 0.654808 0.190034
H9    H     H_    0.074789 0.486450 0.253932 0.162610
H10   H     H_    0.869554 0.483524 0.756660 0.145380
H11   H     H_    0.461202 0.206673 0.642606 0.221247
H12   H     H_    0.423158 0.793657 0.371754 0.190921
H13   H     H_    0.616696 0.238085 0.362121 0.188690
H14   H     H_    0.642761 0.762584 0.620582 0.175732
N1    N     N_R   0.500000 0.499980 0.252470 -0.179336
N2    N     N_R   0.500000 0.500020 0.747530 -0.163027
O1    O     O_R   0.500010 0.369070 0.579480 -0.573476
O2    O     O_R   0.499990 0.630930 0.420520 -0.625166
O3    O     O_R   0.500010 0.369060 0.420520 -0.634063
O4    O     O_R   0.499990 0.630940 0.579480 -0.640745
O5    O     O_R   0.316760 0.500010 0.579480 -0.590638
O6    O     O_R   0.683240 0.499990 0.420520 -0.552628
O7    O     O_R   0.316760 0.500000 0.420520 -0.631498
O8    O     O_R   0.683240 0.500000 0.579480 -0.630893
Zn1   Zn    Zn3+2 0.500000 0.500010 0.606140 0.967195
Zn2   Zn    Zn3+2 0.500000 0.499990 0.393860 0.978674
O9    O     O_3   0.667666 0.070186 0.341291 -0.560421
C45   C     C_3   0.795663 0.053869 0.351832 0.082059
H15   H     H_    0.809743 0.997662 0.403605 0.107796
H16   H     H_    0.846928 0.115571 0.374172 0.162056
C46   C     C_3   0.850153 0.025627 0.257962 -0.782074
H17   H     H_    0.840487 0.080934 0.204209 0.264202
H18   H     H_    0.950389 0.010442 0.265751 0.199461
H19   H     H_    0.800664 0.964130 0.234025 0.261653
O10   O     O_3   0.703676 0.931107 0.634438 -0.557468
C47   C     C_3   0.823541 0.957013 0.600199 0.073505
H20   H     H_    0.819975 0.023628 0.562479 0.140102
H21   H     H_    0.863867 0.905836 0.552866 0.116537
C48   C     C_3   0.910211 0.967227 0.682969 -0.795187
H22   H     H_    0.917152 0.901735 0.722510 0.250938
H23   H     H_    0.004513 0.988784 0.656943 0.195663
H24   H     H_    0.874193 0.018961 0.730947 0.262943
O11   O     O_3   0.657266 0.615667 0.246006 -0.537373
C49   C     C_3   0.598591 0.700818 0.240757 0.128214
H25   H     H_    0.629296 0.739585 0.301701 0.181452
H26   H     H_    0.495011 0.695679 0.246316 0.117406
C50   C     C_3   0.636680 0.756364 0.152286 -0.833766
H27   H     H_    0.583479 0.733357 0.090857 0.250292
H28   H     H_    0.614987 0.828505 0.162527 0.224035
H29   H     H_    0.738017 0.750833 0.137584 0.294993
O12   O     O_3   0.451455 0.341735 0.752303 -0.592105
C51   C     C_3   0.321083 0.324016 0.753582 0.152483
H30   H     H_    0.290455 0.318257 0.679665 0.177014
H31   H     H_    0.263679 0.377247 0.785494 0.155918
C52   C     C_3   0.290748 0.234807 0.806092 -0.827459
H32   H     H_    0.298219 0.243029 0.883128 0.289400
H33   H     H_    0.193793 0.213047 0.790980 0.207667
H34   H     H_    0.355099 0.181323 0.784170 0.270207
O13   O     O_3   0.700913 0.585247 0.059207 -0.742176
H35   H     H_    0.716509 0.556410 0.998348 0.345548
O14   O     O_3   0.487310 0.331103 0.940426 -0.744703
H36   H     H_    0.532869 0.334031 0.000281 0.363483
O15   O     O_3   0.195818 0.732251 0.425372 -0.830633
H37   H     H_    0.158311 0.697681 0.479554 0.319906
O16   O     O_3   0.865844 0.274330 0.521796 -0.808944
H38   H     H_    0.913923 0.320677 0.484465 0.332287
O17   O     O_3   0.156545 0.546886 0.090238 -0.768254
H39   H     H_    0.196528 0.583671 0.038277 0.330704
O18   O     O_3   0.772271 0.372637 0.891877 -0.760364
H40   H     H_    0.801042 0.435515 0.902021 0.323309
O19   O     O_3   0.875021 0.613692 0.370000 -0.547038
C53   C     C_3   0.848585 0.694285 0.417501 0.156583
H41   H     H_    0.899626 0.703099 0.484759 0.087184
H42   H     H_    0.748052 0.693806 0.435235 0.146896
C54   C     C_3   0.879178 0.776357 0.353604 -0.833426
H43   H     H_    0.851575 0.764012 0.280284 0.285359
H44   H     H_    0.828886 0.835810 0.379415 0.191968
H45   H     H_    0.980400 0.791939 0.353721 0.263391
O20   O     O_3   0.115225 0.469317 0.670797 -0.611506
C55   C     C_3   0.114958 0.554194 0.714856 0.109272
H46   H     H_    0.185747 0.601118 0.681343 0.161610
H47   H     H_    0.022585 0.587215 0.710352 0.116029
C56   C     C_3   0.145037 0.542238 0.818766 -0.830775
H48   H     H_    0.244258 0.524893 0.827209 0.233968
H49   H     H_    0.128633 0.606422 0.855097 0.215190
H50   H     H_    0.084795 0.488237 0.852234 0.271207
O21   O     O_3   0.491129 0.033153 0.659091 -0.555590
C57   C     C_3   0.363320 0.009966 0.654503 0.079540
H51   H     H_    0.345874 0.965608 0.594129 0.129398
H52   H     H_    0.304660 0.071106 0.648003 0.122922
C58   C     C_3   0.324010 0.957794 0.744175 -0.777636
H53   H     H_    0.339204 0.000195 0.806291 0.257641
H54   H     H_    0.223694 0.938750 0.741238 0.196515
H55   H     H_    0.379312 0.895383 0.751758 0.263292
O22   O     O_3   0.450495 0.968159 0.353286 -0.563471
C59   C     C_3   0.326371 0.987371 0.378767 0.074337
H56   H     H_    0.324043 0.030736 0.441328 0.118689
H57   H     H_    0.270217 0.924446 0.393866 0.168000
C60   C     C_3   0.266356 0.038941 0.297828 -0.785474
H58   H     H_    0.264300 0.996811 0.234454 0.253461
H59   H     H_    0.169503 0.056233 0.317868 0.195040
H60   H     H_    0.320025 0.102361 0.281097 0.268661

loop_
_geom_bond_atom_site_label_1
_geom_bond_atom_site_label_2
_ccdc_geom_bond_type
C58   H55   S    
O11   C49   S    
C51   C52   S    
C27   C29   A    
O12   C51   S    
O17   H39   S    
C1    C11   S    
C59   C60   S    
C2    C12   S    
C21   H5    S    
O20   C55   S    
C39   C41   A    
C20   C30   A    
C53   H41   S    
C3    C43   A    
C8    O22   S    
C35   C37   A    
C59   H57   S    
C21   N1    A    
C47   C48   S    
C22   N2    A    
C19   H3    S    
C13   H13   S    
C60   H58   S    
C5    C36   S    
C25   O11   S    
C6    C35   S    
O2    Zn2   S    
C60   H59   S    
C42   H2    S    
C23   O7    A    
C32   H8    S    
C43   O19   S    
C52   H32   S    
C57   H51   S    
C7    C17   A    
C33   O15   S    
O15   H37   S    
C31   C33   A    
C9    H11   S    
C10   H12   S    
C7    O21   S    
C24   O6    A    
C22   H6    S    
C37   H9    S    
C39   O17   S    
C58   H54   S    
C3    C24   S    
C57   H52   S    
C45   C46   S    
C1    O3    A    
C2    O4    A    
C54   H44   S    
C14   H14   S    
O3    Zn2   S    
C58   H53   S    
C59   H56   S    
C45   H15   S    
C4    C6    A    
C60   H60   S    
C50   H27   S    
C4    C23   S    
O8    Zn1   S    
C4    C44   A    
C40   O18   S    
C8    C18   A    
C51   H31   S    
C32   C34   A    
C46   H17   S    
C56   H49   S    
C29   C30   S    
C50   H28   S    
C46   H18   S    
C40   C42   A    
C48   H22   S    
C38   H10   S    
C49   C50   S    
C28   O14   S    
O22   C59   S    
C51   H30   S    
C52   H34   S    
C17   C18   S    
C16   C18   A    
O4    Zn1   S    
C9    C11   A    
C20   H4    S    
C10   C12   A    
C55   C56   S    
C45   H16   S    
C52   H33   S    
C5    C44   A    
C49   H26   S    
C6    C43   A    
C13   C15   A    
C14   C16   A    
C20   C22   A    
C56   H48   S    
C19   C29   A    
C55   H47   S    
O18   H40   S    
C54   H45   S    
O1    Zn1   S    
C26   O12   S    
C7    C9    A    
C32   C42   A    
C31   C41   A    
C48   H23   S    
C31   H7    S    
C47   H20   S    
C3    C5    A    
C1    O1    A    
C54   H43   S    
C15   C17   A    
C25   C27   A    
C15   O9    S    
O14   H36   S    
C44   O20   S    
C26   C28   A    
C53   C54   S    
C16   O10   S    
O7    Zn2   S    
C36   C38   A    
C12   C14   A    
C56   H50   S    
C28   C30   A    
C37   C39   A    
O16   H38   S    
C50   H29   S    
C38   C40   A    
C11   C13   A    
C23   O5    A    
O6    Zn2   S    
N2    Zn1   S    
C57   C58   S    
O5    Zn1   S    
C27   O13   S    
C33   C35   A    
C47   H21   S    
C53   H42   S    
C34   C36   A    
O21   C57   S    
C46   H19   S    
C24   O8    A    
N1    Zn2   S    
O10   C47   S    
C2    O2    A    
O9    C45   S    
C48   H24   S    
C49   H25   S    
C8    C10   A    
O13   H35   S    
C34   O16   S    
C41   H1    S    
C25   N1    A    
C26   N2    A    
O19   C53   S    
C55   H46   S    
C19   C21   A    
