data_mof_unit_4626.cif
_audit_creation_date              2012-12-10T19:05:43-0500
_audit_creation_method            fapswitch 2.2
_symmetry_space_group_name_H-M    P1
_symmetry_Int_Tables_number       1
_space_group_crystal_system       triclinic
_cell_length_a                    10.560835
_cell_length_b                    13.060021
_cell_length_c                    13.587633
_cell_angle_alpha                 84.661925
_cell_angle_beta                  91.149991
_cell_angle_gamma                 92.500996
_cell_volume                      1863.92404744

loop_
_atom_site_label
_atom_site_type_symbol
_atom_type_description
_atom_site_fract_x
_atom_site_fract_y
_atom_site_fract_z
_atom_type_partial_charge
Br1   Br    Br    0.897567 0.258812 0.505295 -0.506576
Br2   Br    Br    0.102427 0.741194 0.494668 -0.506615
C1    C     C_R   0.496960 0.480268 0.685183 0.873749
C2    C     C_3   0.044136 0.597669 0.500814 0.316225
C3    C     C_3   0.049495 0.442365 0.577021 -0.285523
C4    C     C_3   0.950503 0.557637 0.422955 -0.285519
C5    C     C_3   0.122853 0.503287 0.492632 -0.136934
C6    C     C_3   0.877147 0.496715 0.507346 -0.136950
C7    C     C_3   0.030618 0.462834 0.415280 -0.047784
C8    C     C_3   0.969382 0.537169 0.584697 -0.047782
C9    C     C_1   0.503370 0.537245 0.211442 -0.187111
C10   C     C_1   0.496612 0.462753 0.788557 -0.187086
C11   C     C_2   0.500976 0.546002 0.019368 -0.039228
C12   C     C_R   0.503033 0.519732 0.314817 0.873692
C13   C     C_2   0.499020 0.453984 0.980631 -0.039212
C14   C     C_1   0.497211 0.453258 0.876300 -0.050299
C15   C     C_1   0.502771 0.546733 0.123699 -0.050237
C16   C     C_R   0.051875 0.424527 0.315872 0.146858
C17   C     C_R   0.949934 0.378500 0.265561 -0.126221
C18   C     C_R   0.967426 0.343604 0.172751 -0.142595
C19   C     C_R   0.086017 0.356046 0.128609 -0.108776
C20   C     C_R   0.186867 0.403998 0.176982 -0.133150
C21   C     C_R   0.169863 0.438530 0.269945 -0.106504
C22   C     C_R   0.948117 0.575440 0.684119 0.146842
C23   C     C_2   0.468108 0.034230 0.469606 -0.230509
C24   C     C_R   0.050025 0.621527 0.734410 -0.126265
C25   C     C_R   0.032529 0.656317 0.827271 -0.142578
C26   C     C_R   0.913973 0.643703 0.871489 -0.108805
C27   C     C_R   0.813161 0.595703 0.823126 -0.133136
C28   C     C_R   0.830166 0.561281 0.730109 -0.106443
C29   C     C_R   0.501671 0.352982 0.041263 0.148750
C30   C     C_R   0.406579 0.276612 0.028008 -0.168785
C31   C     C_R   0.406484 0.182618 0.086447 -0.128248
C32   C     C_R   0.501970 0.163644 0.157697 -0.096686
C33   C     C_R   0.598406 0.238264 0.170010 -0.126503
C34   C     C_2   0.531892 0.965770 0.530394 -0.230526
C35   C     C_R   0.598980 0.332247 0.111613 -0.147850
C36   C     C_R   0.498354 0.647001 0.958732 0.148783
C37   C     C_R   0.593523 0.723328 0.971932 -0.168704
C38   C     C_R   0.593661 0.817309 0.913473 -0.128174
C39   C     C_R   0.498142 0.836313 0.842258 -0.096686
C40   C     C_R   0.401634 0.761735 0.829998 -0.126491
C41   C     C_R   0.401019 0.667765 0.888415 -0.147820
C42   C     C_1   0.524551 0.854348 0.520880 0.182775
C43   C     C_1   0.475448 0.145652 0.479120 0.182780
C44   C     C_R   0.742728 0.498482 0.504479 0.883142
C45   C     C_R   0.257272 0.501519 0.495514 0.883115
C46   C     C_3   0.955864 0.402334 0.499162 0.316241
H1    H     H_    0.092682 0.394886 0.639961 0.174687
H2    H     H_    0.143063 0.630490 0.701811 0.150777
H3    H     H_    0.110863 0.692774 0.865147 0.133396
H4    H     H_    0.900496 0.670250 0.943530 0.128377
H5    H     H_    0.722092 0.584424 0.858074 0.151976
H6    H     H_    0.752158 0.521825 0.695525 0.117892
H7    H     H_    0.331240 0.290671 0.973804 0.129644
H8    H     H_    0.332050 0.124632 0.076751 0.139907
H9    H     H_    0.501464 0.091013 0.203138 0.132084
H10   H     H_    0.672721 0.223319 0.224835 0.145436
H11   H     H_    0.674791 0.389064 0.121563 0.124053
H12   H     H_    0.907314 0.605115 0.360015 0.174677
H13   H     H_    0.668890 0.709242 0.026106 0.129589
H14   H     H_    0.668155 0.875261 0.923123 0.139899
H15   H     H_    0.498681 0.908933 0.796800 0.132067
H16   H     H_    0.327299 0.776704 0.775198 0.145406
H17   H     H_    0.325165 0.610974 0.878500 0.124066
H18   H     H_    0.591417 0.993219 0.589359 0.173223
H19   H     H_    0.408583 0.006781 0.410641 0.173233
H20   H     H_    0.856876 0.369649 0.298115 0.150700
H21   H     H_    0.889064 0.307181 0.134867 0.133401
H22   H     H_    0.099493 0.329399 0.056619 0.128412
H23   H     H_    0.277969 0.415143 0.142096 0.152038
H24   H     H_    0.247908 0.477933 0.304541 0.117970
N1    N     N_1   0.479750 0.234530 0.484780 -0.077447
N2    N     N_1   0.520250 0.765470 0.515220 -0.077445
O1    O     O_R   0.492590 0.402510 0.634760 -0.603854
O2    O     O_R   0.507410 0.597490 0.365240 -0.603835
O3    O     O_R   0.505590 0.572960 0.644530 -0.607391
O4    O     O_R   0.494410 0.427040 0.355470 -0.607442
O5    O     O_R   0.679550 0.414790 0.495140 -0.587087
O6    O     O_R   0.320450 0.585210 0.504860 -0.587084
O7    O     O_R   0.692550 0.585240 0.504910 -0.609050
O8    O     O_R   0.307450 0.414760 0.495090 -0.609080
Zn1   Zn    Zn3+2 0.491320 0.386190 0.493470 1.001063
Zn2   Zn    Zn3+2 0.508680 0.613810 0.506530 1.001096

loop_
_geom_bond_atom_site_label_1
_geom_bond_atom_site_label_2
_ccdc_geom_bond_type
C40   H16   S    
C39   C40   A    
C17   C18   A    
C23   H19   S    
O6    Zn2   S    
O2    Zn2   S    
C4    C7    S    
C28   H6    S    
C24   C25   A    
C33   H10   S    
C26   C27   A    
C33   C35   A    
C22   C24   A    
C32   C33   A    
C24   H2    S    
C36   C37   A    
C9    C12   S    
C34   H18   S    
C13   C14   S    
C38   H14   S    
C43   N1    T    
C16   C17   A    
C45   O8    A    
C1    C10   S    
O4    Zn1   S    
C10   C14   T    
C32   H9    S    
C1    O1    A    
C30   H7    S    
C31   H8    S    
C19   C20   A    
C3    H1    S    
C45   O6    A    
C2    C5    S    
C25   H3    S    
C22   C28   A    
C37   H13   S    
C3    C46   S    
C16   C21   A    
C4    H12   S    
C2    C4    S    
C37   C38   A    
C3    C5    S    
C4    C6    S    
O3    Zn2   S    
C8    C22   S    
C29   C35   A    
C12   O2    A    
Br2   C2    S    
C6    C46   S    
C27   C28   A    
C44   O7    A    
C29   C30   A    
C41   H17   S    
C31   C32   A    
C17   H20   S    
C42   N2    T    
C11   C36   S    
C35   H11   S    
C38   C39   A    
C11   C13   D    
C18   H21   S    
C34   C42   S    
C40   C41   A    
C39   H15   S    
C2    C8    S    
C1    O3    A    
C23   C43   S    
C20   H23   S    
O7    Zn2   S    
C5    C7    S    
C9    C15   T    
C21   H24   S    
N2    Zn2   S    
Br1   C46   S    
C13   C29   S    
C11   C15   S    
C19   H22   S    
C30   C31   A    
C3    C8    S    
O5    Zn1   S    
C26   H4    S    
O1    Zn1   S    
C44   O5    A    
C27   H5    S    
C12   O4    A    
C6    C44   S    
C23   C34   D    
C7    C16   S    
C36   C41   A    
C18   C19   A    
C7    C46   S    
C6    C8    S    
O8    Zn1   S    
C25   C26   A    
C20   C21   A    
N1    Zn1   S    
C5    C45   S    
