data_mof_unit_941.cif
_audit_creation_date              2012-12-10T18:04:36-0500
_audit_creation_method            fapswitch 2.2
_symmetry_space_group_name_H-M    P1
_symmetry_Int_Tables_number       1
_space_group_crystal_system       triclinic
_cell_length_a                    10.94224
_cell_length_b                    9.58076
_cell_length_c                    15.970903
_cell_angle_alpha                 90.056582
_cell_angle_beta                  92.083526
_cell_angle_gamma                 88.868707
_cell_volume                      1672.87611155

loop_
_atom_site_label
_atom_site_type_symbol
_atom_type_description
_atom_site_fract_x
_atom_site_fract_y
_atom_site_fract_z
_atom_type_partial_charge
C1    C     C_R   0.871915 0.496372 0.491554 -0.146730
C2    C     C_R   0.128366 0.503720 0.509923 -0.146497
C3    C     C_R   0.262681 0.501437 0.505037 0.800859
C4    C     C_R   0.737440 0.498572 0.495433 0.798861
C5    C     C_R   0.499906 0.499941 0.341360 0.823397
C6    C     C_R   0.500815 0.500117 0.658558 0.824603
C7    C     C_R   0.508498 0.628458 0.956618 0.324371
C8    C     C_R   0.532476 0.373679 0.043847 0.338542
C9    C     C_R   0.502127 0.626945 0.044235 0.301790
C10   C     C_R   0.522173 0.373331 0.956071 0.332110
C11   C     C_R   0.512476 0.501121 0.912568 -0.219439
C12   C     C_R   0.514815 0.499815 0.087737 -0.210854
C13   C     C_1   0.507923 0.501269 0.822715 0.067568
C14   C     C_1   0.508089 0.499578 0.177327 0.085906
C15   C     C_1   0.503443 0.499732 0.252285 -0.161626
C16   C     C_1   0.504212 0.500634 0.747626 -0.164646
C17   C     C_R   0.426802 0.075891 0.444081 0.035622
C18   C     C_R   0.572947 0.924010 0.556060 0.040775
C19   C     C_R   0.571643 0.072786 0.556850 0.038900
C20   C     C_R   0.427524 0.927060 0.443684 0.041632
C21   C     C_R   0.066854 0.377606 0.522713 -0.070141
C22   C     C_R   0.933534 0.622637 0.479183 -0.071416
C23   C     C_R   0.940706 0.371886 0.507617 -0.073966
C24   C     C_R   0.059557 0.628320 0.494673 -0.073717
Cu1   Cu    Cu3+1 0.500000 0.640660 0.500000 0.991577
Cu2   Cu    Cu3+1 0.500000 0.359340 0.500000 0.987247
N1    N     N_R   0.500000 0.852070 0.500000 -0.206228
N2    N     N_R   0.500000 0.147930 0.500000 -0.206528
O1    O     O_R   0.319640 0.618740 0.499990 -0.577558
O2    O     O_R   0.680360 0.381260 0.500010 -0.578947
O3    O     O_R   0.680360 0.618740 0.500010 -0.572488
O4    O     O_R   0.319640 0.381260 0.499990 -0.573890
O5    O     O_R   0.499970 0.618750 0.380310 -0.571601
O6    O     O_R   0.500030 0.381250 0.619690 -0.578122
O7    O     O_R   0.500030 0.618750 0.619690 -0.576750
O8    O     O_R   0.499970 0.381250 0.380310 -0.578229
C25   C     C_1   0.345547 0.151468 0.386211 0.321015
N3    N     N_1   0.279819 0.211182 0.339794 -0.302754
C26   C     C_1   0.653553 0.848466 0.614447 0.311959
N4    N     N_1   0.718707 0.789126 0.661426 -0.311620
C27   C     C_1   0.645883 0.144660 0.619206 0.313039
N5    N     N_1   0.705831 0.200775 0.669557 -0.289144
C28   C     C_1   0.350257 0.854374 0.383541 0.316985
N6    N     N_1   0.287671 0.796768 0.335413 -0.312056
O9    O     O_3   0.496632 0.751509 0.087952 -0.585736
C29   C     C_3   0.372922 0.793102 0.094400 0.077067
H1    H     H_    0.322241 0.714030 0.129872 0.146650
H2    H     H_    0.328218 0.807271 0.031117 0.164817
C30   C     C_3   0.367163 0.931964 0.141393 -0.310816
H3    H     H_    0.409266 0.918490 0.205273 0.231907
H4    H     H_    0.420750 0.010591 0.108313 0.250370
C31   C     C_3   0.235601 0.985738 0.148025 -0.901050
H5    H     H_    0.192402 0.002098 0.084757 0.247826
H6    H     H_    0.234969 0.087013 0.181782 0.279915
H7    H     H_    0.181043 0.910241 0.182961 0.272404
O10   O     O_3   0.537418 0.248214 0.913632 -0.586632
C32   C     C_3   0.424865 0.205336 0.876270 0.086945
H8    H     H_    0.445736 0.152027 0.816471 0.171897
H9    H     H_    0.359636 0.292933 0.859947 0.123020
C33   C     C_3   0.362910 0.102237 0.933233 -0.343596
H10   H     H_    0.429148 0.017903 0.952206 0.269490
H11   H     H_    0.333197 0.157561 0.990409 0.225199
C34   C     C_3   0.251721 0.037808 0.888819 -0.886445
H12   H     H_    0.183840 0.120521 0.869668 0.254578
H13   H     H_    0.207694 0.964575 0.931656 0.248885
H14   H     H_    0.279906 0.978885 0.832536 0.274931
O11   O     O_3   0.500250 0.755236 0.914839 -0.600314
C35   C     C_3   0.615995 0.791253 0.885181 0.085995
H15   H     H_    0.600016 0.873287 0.836645 0.178005
H16   H     H_    0.663483 0.702712 0.853934 0.146100
C36   C     C_3   0.699146 0.850134 0.955477 -0.338088
H17   H     H_    0.650281 0.936445 0.987503 0.253859
H18   H     H_    0.722448 0.767197 0.002263 0.222669
C37   C     C_3   0.817779 0.903601 0.920939 -0.916134
H19   H     H_    0.866579 0.818628 0.887593 0.263381
H20   H     H_    0.878340 0.940571 0.973280 0.261003
H21   H     H_    0.798088 0.991737 0.877020 0.275500
O12   O     O_3   0.551513 0.247525 0.085195 -0.600717
C38   C     C_3   0.672205 0.237950 0.120682 0.074937
H22   H     H_    0.678428 0.140218 0.158120 0.176994
H23   H     H_    0.692153 0.324424 0.165205 0.135304
C39   C     C_3   0.770091 0.231073 0.053952 -0.352226
H24   H     H_    0.743395 0.154719 0.004871 0.263260
H25   H     H_    0.777425 0.334902 0.023775 0.207290
C40   C     C_3   0.895192 0.188952 0.092349 -0.918805
H26   H     H_    0.924047 0.265141 0.141310 0.264631
H27   H     H_    0.963940 0.186936 0.042866 0.259261
H28   H     H_    0.892046 0.083231 0.120604 0.263224
C41   C     C_1   0.130363 0.255327 0.558277 0.292714
N7    N     N_1   0.180891 0.158684 0.587259 -0.261074
C42   C     C_1   0.870417 0.745400 0.443930 0.295539
N8    N     N_1   0.820263 0.842507 0.415227 -0.256469
C43   C     C_1   0.886932 0.234921 0.501539 0.308424
N9    N     N_1   0.846378 0.124660 0.495603 -0.265384
C44   C     C_1   0.113142 0.765189 0.502539 0.311609
N10   N     N_1   0.153625 0.875280 0.509955 -0.263921

loop_
_geom_bond_atom_site_label_1
_geom_bond_atom_site_label_2
_ccdc_geom_bond_type
Cu1   O3    S    
C34   H13   S    
C9    O9    S    
C43   N9    T    
C27   N5    T    
C44   N10   T    
C28   N6    T    
C21   C41   S    
O9    C29   S    
O10   C32   S    
C7    C11   A    
C29   C30   S    
C37   H20   S    
C33   C34   S    
C32   H9    S    
C5    O8    A    
C17   C20   A    
C6    O7    A    
C33   H11   S    
C18   C19   A    
C3    O1    A    
Cu2   O6    S    
C35   H15   S    
C30   H4    S    
C37   H21   S    
C5    O5    A    
C22   C42   S    
C10   O10   S    
C31   H7    S    
C34   H14   S    
C1    C22   A    
C8    O12   S    
C31   H6    S    
C40   H27   S    
Cu1   O1    S    
C29   H2    S    
C37   H19   S    
O11   C35   S    
C38   H22   S    
C24   C44   S    
C42   N8    T    
C38   H23   S    
Cu2   O4    S    
C32   C33   S    
Cu1   Cu2   S    
C40   H26   S    
C7    O11   S    
C6    O6    A    
C33   H10   S    
C18   C26   S    
C25   N3    T    
C36   C37   S    
C8    C12   A    
C30   C31   S    
C2    C21   A    
C17   C25   S    
C19   N2    A    
Cu1   O7    S    
Cu2   O8    S    
C12   C14   S    
Cu2   O2    S    
C39   H25   S    
C21   C23   A    
C2    C24   A    
C30   H3    S    
C22   C24   A    
C26   N4    T    
C20   C28   S    
C31   H5    S    
C36   H18   S    
C40   H28   S    
C7    C9    A    
C29   H1    S    
O12   C38   S    
C17   N2    A    
C18   N1    A    
C38   C39   S    
C1    C23   A    
C20   N1    A    
Cu1   N1    S    
C39   C40   S    
Cu2   N2    S    
C1    C4    S    
C2    C3    S    
C36   H17   S    
C11   C13   S    
C32   H8    S    
C35   C36   S    
C3    O4    A    
C9    C12   A    
C5    C15   S    
C4    O3    A    
C10   C11   A    
C6    C16   S    
C34   H12   S    
C23   C43   S    
C8    C10   A    
C39   H24   S    
C13   C16   T    
C35   H16   S    
C14   C15   T    
C41   N7    T    
C4    O2    A    
C19   C27   S    
Cu1   O5    S    
