data_mof_unit_2506.cif
_audit_creation_date              2012-12-10T18:31:57-0500
_audit_creation_method            fapswitch 2.2
_symmetry_space_group_name_H-M    P1
_symmetry_Int_Tables_number       1
_space_group_crystal_system       triclinic
_cell_length_a                    10.646768
_cell_length_b                    14.924449
_cell_length_c                    15.50764
_cell_angle_alpha                 81.994163
_cell_angle_beta                  89.650493
_cell_angle_gamma                 104.213395
_cell_volume                      2363.3225741

loop_
_atom_site_label
_atom_site_type_symbol
_atom_type_description
_atom_site_fract_x
_atom_site_fract_y
_atom_site_fract_z
_atom_type_partial_charge
C1    C     C_R   0.475829 0.441126 0.662242 0.862019
C2    C     C_3   0.121128 0.499749 0.500505 0.061418
C3    C     C_3   0.064222 0.478285 0.410459 -0.209125
C4    C     C_3   0.103773 0.596546 0.518703 -0.356731
C5    C     C_R   0.438553 0.405215 0.754487 -0.161514
C6    C     C_R   0.512757 0.593693 0.245411 -0.050452
C7    C     C_R   0.333948 0.287411 0.874711 -0.246259
C8    C     C_R   0.370053 0.311864 0.785996 -0.016197
C9    C     C_R   0.464232 0.471052 0.811935 -0.266272
C10   C     C_R   0.416505 0.449458 0.898039 0.097643
C11   C     C_R   0.356185 0.355263 0.930568 0.152985
C12   C     C_R   0.742089 0.500678 0.499933 0.844020
C13   C     C_R   0.433452 0.518829 0.953532 0.069757
C14   C     C_R   0.411469 0.490194 0.044147 0.069126
C15   C     C_R   0.347427 0.396036 0.074965 -0.212595
C16   C     C_R   0.318484 0.330042 0.018493 -0.225829
C17   C     C_R   0.470668 0.615665 0.921542 -0.230473
C18   C     C_R   0.499281 0.681737 0.978151 -0.229461
C19   C     C_R   0.497247 0.653028 0.067632 0.168517
C20   C     C_R   0.455461 0.556720 0.100873 0.093263
C21   C     C_R   0.539732 0.718881 0.124344 -0.201277
C22   C     C_R   0.546821 0.689265 0.213160 -0.209432
C23   C     C_R   0.516740 0.558469 0.337828 0.885345
C24   C     C_R   0.468130 0.528755 0.189173 -0.180176
C25   C     C_R   0.705260 0.844249 0.629900 -0.315609
C26   C     C_R   0.665863 0.753393 0.611673 0.012465
C27   C     C_R   0.519164 0.796152 0.508812 -0.072200
C28   C     C_R   0.564133 0.891124 0.517844 0.004121
C29   C     C_R   0.653157 0.913265 0.583950 0.175532
C30   C     C_R   0.517926 0.963252 0.467881 0.052600
C31   C     C_R   0.540208 0.051732 0.498251 0.034472
C32   C     C_R   0.628377 0.070610 0.565234 -0.209750
C33   C     C_R   0.686928 0.003320 0.605047 -0.198536
C34   C     C_R   0.257997 0.499673 0.500037 0.851277
C35   C     C_R   0.452241 0.951856 0.388543 0.174009
C36   C     C_R   0.383651 0.016331 0.354691 -0.211464
C37   C     C_R   0.392566 0.098228 0.390009 0.127529
C38   C     C_R   0.475104 0.118859 0.459722 -0.014454
C39   C     C_R   0.325818 0.162762 0.352214 -0.303274
C40   C     C_R   0.344499 0.248307 0.381944 0.027797
C41   C     C_R   0.488703 0.206728 0.487415 -0.021301
C42   C     C_3   0.898451 0.421351 0.570175 -0.409623
C43   C     C_3   0.043565 0.421409 0.572919 0.004223
C44   C     C_3   0.922742 0.486476 0.408807 -0.459061
C45   C     C_3   0.961069 0.595947 0.521424 -0.388214
C46   C     C_3   0.878640 0.501205 0.500135 0.124685
H1    H     H_    0.842019 0.352557 0.554665 0.161326
H2    H     H_    0.156538 0.653844 0.468209 0.220116
H3    H     H_    0.911371 0.545581 0.359601 0.192489
H4    H     H_    0.269429 0.258558 0.044200 0.147109
H5    H     H_    0.447945 0.455559 0.214797 0.156916
H6    H     H_    0.581215 0.740571 0.256009 0.165162
H7    H     H_    0.528284 0.755248 0.951573 0.149970
H8    H     H_    0.284412 0.215745 0.899743 0.155292
H9    H     H_    0.524298 0.539791 0.788766 0.164769
H10   H     H_    0.859766 0.429630 0.634730 0.172311
H11   H     H_    0.314980 0.372133 0.142209 0.159191
H12   H     H_    0.474997 0.642253 0.852892 0.152139
H13   H     H_    0.569902 0.792855 0.099773 0.141648
H14   H     H_    0.755013 0.020904 0.655449 0.149608
H15   H     H_    0.549824 0.229629 0.539078 0.125278
H16   H     H_    0.297279 0.300239 0.351301 0.142754
H17   H     H_    0.329116 0.005192 0.296548 0.155312
H18   H     H_    0.775651 0.860429 0.679224 0.146570
H19   H     H_    0.707867 0.699665 0.644754 0.129721
H20   H     H_    0.440039 0.771457 0.468346 0.157693
H21   H     H_    0.656361 0.137400 0.587827 0.141332
H22   H     H_    0.262922 0.148309 0.298496 0.143521
H23   H     H_    0.053149 0.352498 0.557712 0.183897
H24   H     H_    0.860181 0.421582 0.389310 0.177106
H25   H     H_    0.061894 0.403954 0.405801 0.133599
H26   H     H_    0.945562 0.654714 0.473428 0.196678
H27   H     H_    0.932391 0.607545 0.587398 0.172213
H28   H     H_    0.145600 0.613989 0.581599 0.181491
N1    N     N_R   0.573860 0.731700 0.552730 -0.101936
N2    N     N_R   0.426060 0.268290 0.447230 -0.094512
O1    O     O_R   0.462770 0.383110 0.605620 -0.584838
O2    O     O_R   0.510160 0.531900 0.639510 -0.621837
O3    O     O_R   0.661510 0.425600 0.483070 -0.631526
O4    O     O_R   0.708900 0.574390 0.516960 -0.629383
O5    O     O_R   0.489840 0.468100 0.360490 -0.619780
O6    O     O_R   0.537230 0.616890 0.394380 -0.617544
O7    O     O_R   0.291100 0.425610 0.483040 -0.607631
O8    O     O_R   0.338490 0.574400 0.516930 -0.626673
Zn1   Zn    Zn3+2 0.468350 0.400660 0.477370 0.973667
Zn2   Zn    Zn3+2 0.531650 0.599340 0.522630 0.934864
C47   C     C_2   0.143758 0.536693 0.331471 0.905566
O9    O     O_2   0.193871 0.498340 0.280994 -0.653788
O10   O     O_R   0.158157 0.633254 0.315101 -0.829442
H29   H     H_    0.214295 0.663623 0.260721 0.344894
C48   C     C_2   0.330603 0.238362 0.729753 0.914394
O11   O     O_2   0.259787 0.248681 0.669326 -0.625595
O12   O     O_R   0.369280 0.155056 0.748831 -0.814810
H30   H     H_    0.335890 0.109801 0.706229 0.339814
C49   C     C_3   0.093260 0.428787 0.665605 -0.854428
H31   H     H_    0.041038 0.366240 0.711036 0.249691
H32   H     H_    0.198071 0.431252 0.667272 0.247230
H33   H     H_    0.076588 0.491470 0.690099 0.238450
C50   C     C_3   0.470306 0.883437 0.329130 -0.945078
H34   H     H_    0.558512 0.858156 0.343785 0.241683
H35   H     H_    0.382700 0.824287 0.332998 0.254587
H36   H     H_    0.485436 0.918333 0.260393 0.245226

loop_
_geom_bond_atom_site_label_1
_geom_bond_atom_site_label_2
_ccdc_geom_bond_type
C44   H3    S    
C47   O9    D    
O12   H30   S    
C23   O6    A    
C1    O1    A    
C39   H22   S    
C2    C4    S    
C49   H31   S    
C41   H15   S    
C49   H33   S    
C7    C8    A    
C45   C46   S    
C7    C11   A    
C30   C35   A    
C1    C5    S    
C36   C37   A    
C19   C21   A    
C16   H4    S    
C21   H13   S    
C30   C31   A    
C35   C50   S    
C15   C16   A    
C6    C22   A    
C12   O3    A    
C29   C33   A    
C40   H16   S    
C45   H27   S    
C18   C19   A    
C42   C46   S    
O4    Zn2   S    
C18   H7    S    
C42   H10   S    
C20   C24   A    
C43   C49   S    
C44   H24   S    
C9    H9    S    
C36   H17   S    
C9    C10   A    
C4    H28   S    
C48   O11   D    
C17   H12   S    
O2    Zn2   S    
C24   H5    S    
O1    Zn1   S    
C43   H23   S    
C21   C22   A    
C45   H26   S    
C1    O2    A    
C15   H11   S    
C34   O8    A    
C27   N1    A    
C44   C46   S    
C17   C18   A    
C4    C45   S    
C25   C29   A    
C3    C44   S    
C3    C47   S    
C14   C20   A    
C38   C41   A    
C12   C46   S    
C39   C40   A    
C25   C26   A    
O6    Zn2   S    
C40   N2    A    
C35   C36   A    
C3    H25   S    
C5    C9    A    
C37   C38   A    
C48   O12   S    
C11   C16   A    
N1    Zn2   S    
C50   H34   S    
C2    C43   S    
C6    C24   A    
C26   N1    A    
C8    C48   S    
C32   H21   S    
C50   H35   S    
C33   H14   S    
C47   O10   S    
C42   C43   S    
O3    Zn1   S    
C22   H6    S    
C4    H2    S    
C28   C29   A    
C23   O5    A    
O7    Zn1   S    
C26   H19   S    
C31   C32   A    
O8    Zn2   S    
C10   C13   A    
C5    C8    A    
C49   H32   S    
C31   C38   A    
C13   C17   A    
C32   C33   A    
C19   C20   A    
C28   C30   A    
C2    C3    S    
C37   C39   A    
C27   H20   S    
C41   N2    A    
C2    C34   S    
C6    C23   S    
C12   O4    A    
C42   H1    S    
C10   C11   A    
C50   H36   S    
C34   O7    A    
C27   C28   A    
C14   C15   A    
C7    H8    S    
O10   H29   S    
C13   C14   A    
N2    Zn1   S    
C25   H18   S    
O5    Zn1   S    
