data_mof_unit_1417.cif
_audit_creation_date              2012-12-10T17:24:51-0500
_audit_creation_method            fapswitch 2.2
_symmetry_space_group_name_H-M    P1
_symmetry_Int_Tables_number       1
_space_group_crystal_system       triclinic
_cell_length_a                    10.284366
_cell_length_b                    10.581122
_cell_length_c                    19.114705
_cell_angle_alpha                 91.366307
_cell_angle_beta                  81.551488
_cell_angle_gamma                 96.435968
_cell_volume                      2044.46805353

loop_
_atom_site_label
_atom_site_type_symbol
_atom_type_description
_atom_site_fract_x
_atom_site_fract_y
_atom_site_fract_z
_atom_type_partial_charge
C1    C     C_R   0.557857 0.734950 0.494908 0.850384
C2    C     C_R   0.501599 0.509134 0.365508 0.941404
C3    C     C_R   0.415238 0.549987 0.759872 0.249328
C4    C     C_R   0.625301 0.538219 0.243313 0.329553
C5    C     C_R   0.392264 0.514810 0.831523 0.294017
C6    C     C_R   0.626984 0.501757 0.172228 0.279630
C7    C     C_R   0.475769 0.434010 0.856049 -0.248471
C8    C     C_R   0.507045 0.490226 0.143793 -0.237982
C9    C     C_R   0.564773 0.369789 0.808702 0.387927
C10   C     C_R   0.387643 0.517159 0.185500 0.298144
C11   C     C_R   0.567416 0.386341 0.735863 -0.171979
C12   C     C_R   0.441937 0.266003 0.509080 0.791309
C13   C     C_R   0.385387 0.531236 0.258995 -0.208976
C14   C     C_R   0.495731 0.478906 0.711122 -0.310020
C15   C     C_R   0.503560 0.526428 0.288593 -0.298491
C16   C     C_R   0.509292 0.467264 0.068537 0.477075
C17   C     C_R   0.489626 0.441604 0.930282 0.464999
C18   C     C_1   0.649211 0.311374 0.686916 0.341929
C19   C     C_1   0.266015 0.562773 0.302757 0.402894
C20   C     C_1   0.504460 0.038450 0.617837 0.415995
C21   C     C_1   0.441131 0.939386 0.432910 0.274908
C22   C     C_1   0.128727 0.366419 0.459955 0.423570
C23   C     C_2   0.599060 0.872367 0.501642 0.212706
C24   C     C_1   0.875438 0.512217 0.587997 0.346665
C25   C     C_2   0.397962 0.135991 0.534962 0.155628
C26   C     C_2   0.517199 0.958445 0.491463 -0.129982
C27   C     C_2   0.489202 0.060535 0.544912 -0.122127
C28   C     C_2   0.924787 0.470139 0.517779 0.046159
C29   C     C_2   0.074073 0.467886 0.501825 -0.034530
C30   C     C_R   0.499288 0.495697 0.634475 0.942138
H1    H     H_    0.553881 0.763953 0.678082 0.355442
H2    H     H_    0.756043 0.219858 0.335273 0.383282
H3    H     H_    0.782288 0.805048 0.335300 0.414426
H4    H     H_    0.117889 0.485445 0.978048 0.427591
H5    H     H_    0.830349 0.329935 0.036806 0.415336
H6    H     H_    0.876822 0.233527 0.803516 0.406035
H7    H     H_    0.170428 0.703376 0.190361 0.373222
H8    H     H_    0.103758 0.223172 0.648749 0.395774
H9    H     H_    0.950298 0.958906 0.461527 0.437137
H10   H     H_    0.017361 0.811590 0.628465 0.427150
N1    N     N_R   0.559783 0.545347 0.954235 -0.095572
N2    N     N_1   0.380983 0.924380 0.386170 -0.118788
N3    N     N_1   0.172431 0.285913 0.425027 -0.091421
N4    N     N_1   0.838981 0.546404 0.644766 -0.090582
N5    N     N_R   0.440264 0.362408 0.044534 -0.060834
N6    N     N_R   0.569276 0.558190 0.022477 -0.071425
N7    N     N_R   0.430843 0.349409 0.976058 -0.034208
N8    N     N_2   0.842710 0.448880 0.471430 0.051025
N9    N     N_2   0.157290 0.551120 0.528570 0.020943
N10   N     N_1   0.716623 0.252869 0.648125 -0.121707
N11   N     N_1   0.171838 0.590194 0.338104 -0.068823
N12   N     N_1   0.515889 0.022146 0.676179 -0.048630
O1    O     O_R   0.431050 0.692470 0.505750 -0.555425
O2    O     O_2   0.356938 0.791101 0.791246 -0.174103
O3    O     O_3   0.465278 0.755502 0.662865 -0.556672
O4    O     O_2   0.853514 0.557777 0.298520 -0.149915
O5    O     O_2   0.836564 0.711555 0.207648 -0.200768
O6    O     O_3   0.706344 0.739738 0.332505 -0.591807
O7    O     O_2   0.307936 0.684845 0.929686 -0.179243
O8    O     O_2   0.148445 0.597376 0.852711 -0.179803
O9    O     O_3   0.196972 0.453348 0.950509 -0.500881
O10   O     O_2   0.837106 0.576665 0.075618 -0.203147
O11   O     O_2   0.873131 0.430282 0.166728 -0.147242
O12   O     O_R   0.568950 0.307530 0.494250 -0.564975
O13   O     O_3   0.744855 0.339199 0.066884 -0.517179
O14   O     O_2   0.681895 0.279664 0.915924 -0.247938
O15   O     O_2   0.625982 0.132754 0.821489 -0.235480
O16   O     O_3   0.826850 0.304306 0.793733 -0.520403
O17   O     O_2   0.280759 0.595964 0.075009 -0.250603
O18   O     O_2   0.177578 0.399333 0.133078 -0.178414
O19   O     O_3   0.131317 0.613450 0.194220 -0.431641
O20   O     O_2   0.137704 0.083553 0.532677 -0.264032
O21   O     O_2   0.223395 0.993777 0.631131 -0.203124
O22   O     O_3   0.200747 0.235527 0.634015 -0.545219
O23   O     O_R   0.651120 0.659650 0.487410 -0.541718
O24   O     O_2   0.772062 0.055724 0.550165 -0.264454
O25   O     O_2   0.784787 0.834736 0.581694 -0.282090
O26   O     O_3   0.868955 0.906033 0.452075 -0.479079
O27   O     O_2   0.229642 0.802758 0.522847 -0.213779
O28   O     O_2   0.011464 0.728130 0.496109 -0.266040
O29   O     O_3   0.053473 0.728519 0.626986 -0.449583
O30   O     O_2   0.978066 0.373552 0.350349 -0.254677
O31   O     O_2   0.898460 0.212493 0.441796 -0.276010
O32   O     O_3   0.731644 0.287892 0.369597 -0.481581
O33   O     O_R   0.348880 0.340350 0.512590 -0.600529
O34   O     O_R   0.389930 0.516430 0.611030 -0.516411
O35   O     O_R   0.610070 0.483570 0.388970 -0.496432
O36   O     O_R   0.610000 0.483610 0.592700 -0.668907
O37   O     O_R   0.390000 0.516390 0.407300 -0.672330
O38   O     O_2   0.226282 0.664106 0.712215 -0.129549
S1    S     S_3+6 0.361730 0.693431 0.732821 0.152798
S2    S     S_3+6 0.867263 0.329713 0.407720 0.166697
S3    S     S_3+6 0.761879 0.636940 0.269659 0.132572
S4    S     S_3+6 0.258423 0.567736 0.891304 0.146038
S5    S     S_3+6 0.776640 0.464067 0.120208 0.129029
S6    S     S_3+6 0.673874 0.268023 0.838190 0.086074
S7    S     S_3+6 0.242700 0.530762 0.145139 0.107727
S8    S     S_3+6 0.235549 0.107311 0.583904 0.070712
S9    S     S_3+6 0.758196 0.920181 0.524980 0.092789
S10   S     S_3+6 0.113665 0.705615 0.541661 0.183978
Zn1   Zn    Zn3+2 0.353060 0.521920 0.512240 1.110933
Zn2   Zn    Zn3+2 0.646940 0.478080 0.487760 1.142655

loop_
_geom_bond_atom_site_label_1
_geom_bond_atom_site_label_2
_ccdc_geom_bond_type
C23   S9    S    
C21   C26   S    
C11   C18   S    
H3    O6    S    
C22   C29   S    
C2    O37   A    
C5    S4    S    
O22   S8    S    
O20   S8    D    
O24   S9    D    
O12   Zn2   S    
O31   S2    D    
O19   S7    S    
C26   C27   S    
O16   S6    S    
C12   O33   A    
C6    C8    A    
C28   C29   S    
O6    S3    S    
N9    Zn1   S    
C12   O12   A    
C11   C14   A    
H5    O13   S    
O11   S5    D    
O30   S2    D    
C3    S1    S    
C23   C26   D    
C1    O1    A    
O3    S1    S    
O1    Zn1   S    
C7    C17   S    
O23   Zn2   S    
N1    N6    A    
O7    S4    D    
C30   O34   A    
O18   S7    D    
C8    C16   S    
O5    S3    D    
O10   S5    D    
O28   S10   D    
O4    S3    D    
C14   C30   S    
N5    N7    A    
O21   S8    D    
H2    O32   S    
C13   C19   S    
C1    O23   A    
H9    O26   S    
C17   N7    A    
O27   S10   D    
C4    C6    A    
C16   N6    A    
C5    C7    A    
O9    S4    S    
C29   N9    D    
H4    O9    S    
C4    S3    S    
C10   S7    S    
O35   Zn2   S    
C22   N3    T    
N8    Zn2   S    
C2    O35   A    
C2    C15   S    
C9    C11   A    
C9    S6    S    
C3    C14   A    
C20   C27   S    
C1    C23   S    
C13   C15   A    
O15   S6    D    
C24   N4    T    
C30   O36   A    
O33   Zn1   S    
C18   N10   T    
O14   S6    D    
H8    O22   S    
C7    C9    A    
C28   N8    D    
O37   Zn1   S    
H10   O29   S    
C24   C28   S    
C3    C5    A    
C10   C13   A    
C16   N5    A    
O36   Zn2   S    
H6    O16   S    
O29   S10   S    
C25   C27   D    
C12   C25   S    
C4    C15   A    
H7    O19   S    
O2    S1    D    
C20   N12   T    
N9    S10   S    
O38   S1    D    
O25   S9    D    
C17   N1    A    
C21   N2    T    
C19   N11   T    
C25   S8    S    
O13   S5    S    
C8    C10   A    
C6    S5    S    
N8    S2    S    
O26   S9    S    
O32   S2    S    
H1    O3    S    
O34   Zn1   S    
O8    S4    D    
O17   S7    D    
