data_mof_unit_3428.cif
_audit_creation_date              2012-12-11T16:08:35-0500
_audit_creation_method            fapswitch 2.2
_symmetry_space_group_name_H-M    P1
_symmetry_Int_Tables_number       1
_space_group_crystal_system       triclinic
_cell_length_a                    12.963616
_cell_length_b                    13.264625
_cell_length_c                    27.765527
_cell_angle_alpha                 94.870845
_cell_angle_beta                  90.215963
_cell_angle_gamma                 119.262197
_cell_volume                      4144.55214231

loop_
_atom_site_label
_atom_site_type_symbol
_atom_type_description
_atom_site_fract_x
_atom_site_fract_y
_atom_site_fract_z
_atom_type_partial_charge
C1    C     C_R   0.627501 0.895178 0.427821 0.563282
C2    C     C_R   0.181641 0.746587 0.298884 -0.079562
C3    C     C_R   0.168798 0.741994 0.198249 0.054806
C4    C     C_R   0.600922 0.221827 0.440501 0.541953
C5    C     C_R   0.183508 0.657349 0.219296 0.412072
C6    C     C_R   0.188407 0.658038 0.269395 0.120003
C7    C     C_R   0.155601 0.736144 0.148313 -0.027003
C8    C     C_R   0.124331 0.810297 0.127314 -0.005018
C9    C     C_R   0.189036 0.935131 0.357571 0.409319
C10   C     C_R   0.167978 0.925927 0.307313 0.027440
C11   C     C_R   0.169827 0.834063 0.277903 -0.103658
C12   C     C_R   0.619198 0.393122 0.235002 0.102678
C13   C     C_R   0.151127 0.009175 0.285405 0.426714
C14   C     C_R   0.137957 0.002114 0.235144 -0.095991
C15   C     C_R   0.143553 0.913708 0.205975 -0.040543
C16   C     C_R   0.268468 0.875784 0.425665 0.564394
C17   C     C_R   0.161304 0.830302 0.227410 -0.007750
C18   C     C_R   0.124556 0.902925 0.155830 -0.115875
C19   C     C_R   0.208513 0.852058 0.377819 -0.010675
C20   C     C_R   0.727226 0.841062 0.362208 0.072559
C21   C     C_R   0.735984 0.821714 0.312105 0.051883
C22   C     C_R   0.755947 0.792084 0.212218 0.023012
C23   C     C_R   0.612576 0.377901 0.284396 -0.068386
C24   C     C_R   0.830712 0.779325 0.244583 -0.114585
C25   C     C_R   0.821389 0.794580 0.294087 -0.083076
C26   C     C_R   0.768978 0.780580 0.163237 -0.127058
C27   C     C_R   0.695700 0.793445 0.130417 0.008717
C28   C     C_R   0.627595 0.898384 0.564705 0.553972
C29   C     C_R   0.560553 0.872198 0.345122 -0.126176
C30   C     C_R   0.570465 0.856930 0.295961 -0.048976
C31   C     C_R   0.657768 0.831378 0.278989 0.035484
C32   C     C_R   0.496117 0.870363 0.263817 -0.083121
C33   C     C_R   0.506536 0.858098 0.214230 0.410358
C34   C     C_R   0.670273 0.324820 0.304885 0.009815
C35   C     C_R   0.591624 0.830094 0.195630 0.043254
C36   C     C_R   0.668017 0.817445 0.228887 -0.000740
C37   C     C_R   0.605200 0.815863 0.145355 0.114606
C38   C     C_R   0.638787 0.865946 0.377828 0.033532
C39   C     C_R   0.744792 0.301832 0.651139 0.383133
C40   C     C_R   0.603577 0.227664 0.578397 0.564272
C41   C     C_R   0.759573 0.323537 0.702006 0.017270
C42   C     C_R   0.771257 0.349380 0.804326 0.003419
C43   C     C_R   0.862001 0.344080 0.779127 -0.069332
C44   C     C_R   0.857332 0.330905 0.728569 0.121257
C45   C     C_R   0.684117 0.354614 0.205679 0.039051
C46   C     C_R   0.778704 0.367309 0.854996 0.387548
C47   C     C_R   0.689046 0.377954 0.879407 0.013134
C48   C     C_R   0.562703 0.312352 0.652702 -0.188073
C49   C     C_R   0.572564 0.329312 0.702652 -0.005768
C50   C     C_R   0.669275 0.332297 0.727655 -0.014792
C51   C     C_R   0.482278 0.335593 0.727879 -0.110450
C52   C     C_R   0.271776 0.879370 0.563423 0.550602
C53   C     C_R   0.485590 0.342139 0.777986 -0.105514
C54   C     C_R   0.580858 0.345665 0.803348 -0.002018
C55   C     C_R   0.673886 0.342243 0.778425 0.000342
C56   C     C_1   0.694989 0.373434 0.155080 -0.004634
C57   C     C_R   0.587045 0.358784 0.853444 -0.179090
C58   C     C_R   0.642352 0.288771 0.627133 0.003782
C59   C     C_1   0.222027 0.861929 0.610065 0.036992
C60   C     C_R   0.187182 0.756427 0.724676 0.417349
C61   C     C_R   0.174610 0.749859 0.774591 0.113041
C62   C     C_R   0.126304 0.906175 0.778817 0.068709
C63   C     C_R   0.139499 0.912207 0.728934 -0.159434
C64   C     C_1   0.633804 0.270482 0.395095 0.023769
C65   C     C_R   0.169754 0.837543 0.701808 -0.005690
C66   C     C_R   0.144885 0.825476 0.802001 -0.020421
C67   C     C_1   0.653827 0.299695 0.354657 -0.026110
C68   C     C_1   0.125124 0.814003 0.852853 0.023867
C69   C     C_1   0.192966 0.850051 0.651316 0.026545
C70   C     C_1   0.100532 0.797263 0.894339 0.046624
C71   C     C_1   0.647803 0.861291 0.609104 0.027834
C72   C     C_R   0.716332 0.913636 0.733890 -0.051337
C73   C     C_R   0.726535 0.897551 0.782362 0.430349
C74   C     C_R   0.662288 0.694078 0.759355 -0.160523
C75   C     C_R   0.651762 0.710289 0.710737 -0.105109
C76   C     C_R   0.735203 0.286944 0.275756 -0.100674
C77   C     C_R   0.678643 0.820236 0.697982 -0.014779
C78   C     C_1   0.704408 0.397763 0.113822 0.029895
C79   C     C_R   0.698983 0.787566 0.795290 0.050540
C80   C     C_1   0.711015 0.772043 0.845294 0.032415
C81   C     C_1   0.662621 0.838351 0.648748 -0.019020
C82   C     C_1   0.725045 0.762701 0.887289 0.035196
C83   C     C_R   0.064953 0.772784 0.079199 0.536940
C84   C     C_R   0.717179 0.441730 0.067440 0.550624
C85   C     C_R   0.720452 0.782418 0.080558 0.576092
C86   C     C_R   0.056329 0.766166 0.941186 0.544322
C87   C     C_R   0.710243 0.433921 0.928980 0.558896
C88   C     C_R   0.742535 0.302256 0.226379 -0.104312
C89   C     C_R   0.193648 0.753600 0.348845 -0.177359
C90   C     C_R   0.748389 0.754615 0.936927 0.549926
Cr1   Cr    Cr6+3 0.416430 0.829200 0.492370 1.074642
Cr2   Cr    Cr6+3 0.674630 0.087020 0.504170 1.130743
Cr3   Cr    Cr6+3 0.408920 0.083740 0.503490 1.110671
Cr4   Cr    Cr6+3 0.914010 0.832750 0.013970 1.070258
Cr5   Cr    Cr6+3 0.922310 0.578600 0.003000 1.117475
Cr6   Cr    Cr6+3 0.656280 0.574630 0.003870 1.080445
F1    F     F_    0.146713 0.097265 0.312281 -0.536413
F2    F     F_    0.197686 0.027489 0.386259 -0.532103
F3    F     F_    0.434809 0.877675 0.185592 -0.613007
F4    F     F_    0.875936 0.381342 0.880053 -0.590479
F5    F     F_    0.824230 0.285499 0.624861 -0.581177
F6    F     F_    0.217775 0.684660 0.698491 -0.580435
F7    F     F_    0.762911 0.989134 0.816633 -0.584623
F8    F     F_    0.191435 0.572767 0.191048 -0.592595
H1    H     H_    0.778863 0.244271 0.291080 0.144275
H2    H     H_    0.516356 0.364715 0.871929 0.162927
H3    H     H_    0.414486 0.346067 0.796930 0.146881
H4    H     H_    0.407633 0.332693 0.708788 0.139223
H5    H     H_    0.485581 0.305898 0.634161 0.157085
H6    H     H_    0.127070 0.975753 0.711446 0.157317
H7    H     H_    0.736745 0.998840 0.724407 0.152495
H8    H     H_    0.641531 0.608895 0.768927 0.131526
H9    H     H_    0.621934 0.637288 0.683304 0.141758
H10   H     H_    0.560900 0.405882 0.306603 0.162299
H11   H     H_    0.158202 0.666317 0.126032 0.208711
H12   H     H_    0.123172 0.065866 0.219014 0.159757
H13   H     H_    0.203320 0.687562 0.365226 0.190008
H14   H     H_    0.101429 0.961196 0.139576 0.143305
H15   H     H_    0.837313 0.761722 0.150213 0.114536
H16   H     H_    0.897313 0.758323 0.231544 0.112916
H17   H     H_    0.882009 0.785257 0.317678 0.151278
H18   H     H_    0.430749 0.892799 0.277193 0.136793
H19   H     H_    0.793386 0.272933 0.204332 0.147065
H20   H     H_    0.493983 0.893514 0.358274 0.118370
H21   H     H_    0.937618 0.350386 0.798773 0.220461
I1    I     I_    0.843680 0.833471 0.414915 -0.278935
I2    I     I_    0.495605 0.825949 0.089913 -0.162939
I3    I     I_    0.005020 0.324642 0.698144 -0.117634
I4    I     I_    0.527872 0.473166 0.206773 -0.275701
I5    I     I_    0.200653 0.623804 0.807016 -0.198706
I6    I     I_    0.077160 0.020326 0.817085 -0.276907
I7    I     I_    0.212861 0.525513 0.297170 -0.191262
O1    O     O_R   0.296680 0.802170 0.437540 -0.530530
O2    O     O_R   0.637200 0.461990 0.052510 -0.483844
O3    O     O_R   0.664790 0.681920 0.057970 -0.470927
O4    O     O_R   0.525380 0.838530 0.443500 -0.502602
O5    O     O_R   0.815840 0.852920 0.961840 -0.460071
O6    O     O_R   0.012100 0.822630 0.963670 -0.509548
O7    O     O_R   0.037010 0.668460 0.953040 -0.461876
O8    O     O_R   0.813390 0.478970 0.949660 -0.427458
O9    O     O_R   0.632250 0.456930 0.945520 -0.538732
O10   O     O_R   0.660200 0.677230 0.958780 -0.483756
O11   O     O_3   0.830870 0.661990 0.006950 -0.307849
O12   O     O_R   0.662610 0.183990 0.557860 -0.425216
O13   O     O_R   0.702130 0.995190 0.446810 -0.479842
O14   O     O_R   0.661770 0.181390 0.458760 -0.498441
O15   O     O_R   0.499820 0.198480 0.455280 -0.471042
O16   O     O_R   0.311660 0.976250 0.449080 -0.427274
O17   O     O_R   0.297580 0.804960 0.544440 -0.479950
O18   O     O_R   0.526220 0.841130 0.542590 -0.492539
O19   O     O_R   0.703030 0.997990 0.553710 -0.465337
O20   O     O_R   0.500730 0.201280 0.562180 -0.531448
O21   O     O_R   0.312500 0.978850 0.548170 -0.498335
O22   O     O_3   0.499990 0.999990 0.500010 -0.293260
O23   O     O_R   0.820790 0.857990 0.068830 -0.504792
O24   O     O_R   0.016700 0.827330 0.062850 -0.506160
O25   O     O_R   0.041970 0.673520 0.060040 -0.508113
O26   O     O_R   0.817980 0.483660 0.048840 -0.492312

loop_
_geom_bond_atom_site_label_1
_geom_bond_atom_site_label_2
_ccdc_geom_bond_type
C15   C18   A    
C66   C68   S    
C63   C65   A    
C28   O18   A    
C9    F2    S    
Cr5   O26   S    
C1    O13   A    
C35   C36   A    
Cr5   O8    S    
C87   O8    A    
C43   H21   S    
C7    C8    A    
C39   C41   A    
C53   C54   A    
Cr5   O11   S    
C21   C31   A    
C12   C23   A    
C84   O2    A    
C26   C27   A    
C29   C30   A    
Cr4   O11   S    
Cr3   O22   S    
C35   C37   A    
C3    C7    A    
C74   H8    S    
C30   C31   A    
C14   H12   S    
C2    C11   A    
C8    C83   S    
C29   H20   S    
C56   C78   T    
C40   O20   A    
Cr3   O16   S    
C85   O23   A    
C7    H11   S    
C27   C85   S    
C53   H3    S    
C21   C25   A    
Cr6   O9    S    
C46   C47   A    
C61   C66   A    
C9    C19   A    
C1    C38   S    
Cr1   O4    S    
C45   C56   S    
C48   H5    S    
C51   H4    S    
C49   C51   A    
Cr1   O1    S    
C29   C38   A    
Cr3   O15   S    
C75   H9    S    
C1    O4    A    
C9    C10   A    
C76   C88   A    
Cr4   O24   S    
C57   H2    S    
C72   H7    S    
C13   C14   A    
C2    C6    A    
C88   H19   S    
C60   F6    S    
C16   O1    A    
C39   F5    S    
Cr6   O3    S    
C24   H16   S    
C40   C58   S    
C12   I4    S    
C62   C66   A    
Cr2   O14   S    
C64   C67   T    
C32   H18   S    
C45   C88   A    
C26   H15   S    
Cr1   O22   S    
C6    I7    S    
C74   C75   A    
Cr1   O17   S    
C84   O26   A    
Cr4   O23   S    
Cr6   O2    S    
C83   O24   A    
C52   O21   A    
C4    O15   A    
C8    C18   A    
C60   C61   A    
C33   F3    S    
C47   C87   S    
C2    C89   A    
C43   C44   A    
C20   I1    S    
C72   C77   A    
C19   C89   A    
C52   C59   S    
C42   C55   A    
C47   C57   A    
C20   C38   A    
C52   O17   A    
C83   O25   A    
C77   C81   S    
C23   C34   A    
C4    O14   A    
Cr2   O19   S    
C14   C15   A    
C73   C79   A    
C24   C25   A    
C37   I2    S    
C75   C77   A    
C90   O10   A    
C86   O7    A    
C59   C69   T    
C61   I5    S    
C80   C82   T    
C48   C49   A    
C85   O3    A    
C60   C65   A    
C74   C79   A    
C40   O12   A    
C42   C46   A    
Cr4   O6    S    
C41   C44   A    
C22   C24   A    
C28   C71   S    
C42   C43   A    
C70   C86   S    
C41   C50   A    
C90   O5    A    
C15   C17   A    
C46   F4    S    
C54   C55   A    
C44   I3    S    
Cr2   O13   S    
Cr5   O25   S    
C62   I6    S    
C89   H13   S    
C72   C73   A    
C3    C5    A    
C10   C13   A    
C11   C17   A    
C34   C67   S    
Cr1   O18   S    
C48   C58   A    
C18   H14   S    
C12   C45   A    
C71   C81   T    
C87   O9    A    
C22   C36   A    
C4    C64   S    
Cr5   O7    S    
C50   C55   A    
C82   C90   S    
C16   O16   A    
C32   C33   A    
C63   H6    S    
Cr3   O21   S    
C23   H10   S    
C30   C32   A    
C39   C58   A    
C5    C6    A    
C27   C37   A    
C16   C19   S    
C65   C69   S    
C33   C35   A    
C3    C17   A    
C13   F1    S    
Cr2   O12   S    
C5    F8    S    
C10   C11   A    
C86   O6    A    
Cr6   O10   S    
C79   C80   S    
C78   C84   S    
C73   F7    S    
C20   C21   A    
C28   O19   A    
C68   C70   T    
C49   C50   A    
C22   C26   A    
Cr4   O5    S    
C31   C36   A    
Cr3   O20   S    
Cr2   O22   S    
C51   C53   A    
C62   C63   A    
C25   H17   S    
C76   H1    S    
C34   C76   A    
Cr6   O11   S    
C54   C57   A    
