data_mof_unit_4426.cif
_audit_creation_date              2012-12-11T16:52:11-0500
_audit_creation_method            fapswitch 2.2
_symmetry_space_group_name_H-M    P1
_symmetry_Int_Tables_number       1
_space_group_crystal_system       triclinic
_cell_length_a                    7.191075
_cell_length_b                    26.20542
_cell_length_c                    28.643819
_cell_angle_alpha                 90.0
_cell_angle_beta                  89.999979
_cell_angle_gamma                 90.000025
_cell_volume                      5397.78849953

loop_
_atom_site_label
_atom_site_type_symbol
_atom_type_description
_atom_site_fract_x
_atom_site_fract_y
_atom_site_fract_z
_atom_type_partial_charge
O1    O     O_R   0.601030 0.796770 0.202460 -0.537629
O2    O     O_R   0.398970 0.203230 0.797540 -0.537529
O3    O     O_R   0.398970 0.203230 0.702460 -0.537629
O4    O     O_R   0.601030 0.796770 0.297540 -0.537529
O5    O     O_R   0.101030 0.703230 0.297540 -0.537629
O6    O     O_R   0.898970 0.296770 0.702460 -0.537529
O7    O     O_R   0.898970 0.296770 0.797540 -0.537629
O8    O     O_R   0.101030 0.703230 0.202460 -0.537529
O9    O     O_R   0.271290 0.802910 0.297210 -0.539436
O10   O     O_R   0.728710 0.197090 0.702790 -0.540373
O11   O     O_R   0.728710 0.197090 0.797210 -0.539436
O12   O     O_R   0.271290 0.802910 0.202790 -0.540373
O13   O     O_R   0.771290 0.697090 0.202790 -0.539436
O14   O     O_R   0.228710 0.302910 0.797210 -0.540373
O15   O     O_R   0.228710 0.302910 0.702790 -0.539436
O16   O     O_R   0.771290 0.697090 0.297210 -0.540373
C1    C     C_R   0.440454 0.814361 0.313404 0.712913
C2    C     C_R   0.559544 0.185571 0.686603 0.712794
C3    C     C_R   0.559546 0.185639 0.813404 0.712913
C4    C     C_R   0.440455 0.814429 0.186604 0.712795
C5    C     C_R   0.940454 0.685639 0.186596 0.712913
C6    C     C_R   0.059544 0.314429 0.813397 0.712794
C7    C     C_R   0.059546 0.314361 0.686596 0.712913
C8    C     C_R   0.940455 0.685571 0.313396 0.712795
O17   O     O_3   0.434520 0.717290 0.250000 -0.377132
O18   O     O_3   0.565480 0.282710 0.750000 -0.377132
O19   O     O_3   0.934520 0.782710 0.250000 -0.377132
O20   O     O_3   0.065480 0.217290 0.750000 -0.377132
V1    V     V_3+5 0.159680 0.756060 0.250000 1.373109
V2    V     V_3+5 0.840320 0.243940 0.750000 1.373110
V3    V     V_3+5 0.659680 0.743940 0.250000 1.373109
V4    V     V_3+5 0.340320 0.256060 0.750000 1.373110
C9    C     C_R   0.902247 0.349777 0.613617 0.193084
C10   C     C_R   0.101852 0.647793 0.385037 0.192164
C11   C     C_R   0.097755 0.650222 0.113618 0.193084
C12   C     C_R   0.898147 0.352206 0.885037 0.192164
C13   C     C_R   0.402245 0.150222 0.886382 0.193084
C14   C     C_R   0.601853 0.852207 0.114963 0.192164
C15   C     C_R   0.597755 0.849778 0.386382 0.193083
C16   C     C_R   0.398147 0.147793 0.614963 0.192164
C17   C     C_R   0.893860 0.386453 0.578173 -0.127255
C18   C     C_R   0.108872 0.610733 0.420189 -0.115075
C19   C     C_R   0.106141 0.613545 0.078174 -0.127254
C20   C     C_R   0.891126 0.389267 0.920189 -0.115075
C21   C     C_R   0.393859 0.113545 0.921826 -0.127253
C22   C     C_R   0.608874 0.889267 0.079811 -0.115076
C23   C     C_R   0.606141 0.886455 0.421826 -0.127253
C24   C     C_R   0.391126 0.110733 0.579811 -0.115075
H1    H     H_    0.784828 0.383779 0.552149 0.158671
H2    H     H_    0.221466 0.611948 0.445331 0.162080
H3    H     H_    0.215175 0.616219 0.052151 0.158672
H4    H     H_    0.778532 0.388051 0.945332 0.162080
H5    H     H_    0.284825 0.116219 0.947850 0.158672
H6    H     H_    0.721468 0.888052 0.054668 0.162080
H7    H     H_    0.715175 0.883781 0.447849 0.158672
H8    H     H_    0.278532 0.111948 0.554668 0.162080
C25   C     C_R   0.024314 0.425995 0.575445 -0.018242
C26   C     C_R   0.972735 0.572706 0.423748 -0.032304
C27   C     C_R   0.975685 0.574004 0.075445 -0.018241
C28   C     C_R   0.027263 0.427294 0.923749 -0.032304
C29   C     C_R   0.524315 0.074004 0.924555 -0.018241
C30   C     C_R   0.472737 0.927294 0.076251 -0.032303
C31   C     C_R   0.475685 0.925996 0.424555 -0.018241
C32   C     C_R   0.527263 0.072706 0.576251 -0.032304
C33   C     C_R   0.167030 0.428735 0.609109 0.440547
C34   C     C_R   0.824630 0.572427 0.391398 0.432365
C35   C     C_R   0.832968 0.571265 0.109109 0.440544
C36   C     C_R   0.175369 0.427573 0.891398 0.432365
C37   C     C_R   0.667032 0.071265 0.890891 0.440544
C38   C     C_R   0.324631 0.927573 0.108602 0.432365
C39   C     C_R   0.332968 0.928735 0.390891 0.440544
C40   C     C_R   0.675369 0.072427 0.608602 0.432364
C41   C     C_R   0.180064 0.390935 0.643962 -0.287789
C42   C     C_R   0.813488 0.610407 0.356917 -0.265151
C43   C     C_R   0.819934 0.609065 0.143962 -0.287789
C44   C     C_R   0.186511 0.389592 0.856917 -0.265151
C45   C     C_R   0.680066 0.109065 0.856038 -0.287788
C46   C     C_R   0.313488 0.889592 0.143083 -0.265151
C47   C     C_R   0.319934 0.890935 0.356038 -0.287789
C48   C     C_R   0.686512 0.110408 0.643082 -0.265151
H9    H     H_    0.293365 0.392827 0.668835 0.145307
H10   H     H_    0.696898 0.609847 0.332978 0.149722
H11   H     H_    0.706631 0.607174 0.168834 0.145308
H12   H     H_    0.303101 0.390153 0.832978 0.149723
H13   H     H_    0.793369 0.107174 0.831166 0.145307
H14   H     H_    0.196898 0.890152 0.167022 0.149722
H15   H     H_    0.206631 0.892826 0.331166 0.145307
H16   H     H_    0.803102 0.109847 0.667022 0.149722
C49   C     C_R   0.046638 0.351901 0.647570 -0.151516
C50   C     C_R   0.952862 0.647719 0.352253 -0.161573
C51   C     C_R   0.953362 0.648098 0.147570 -0.151516
C52   C     C_R   0.047138 0.352281 0.852253 -0.161573
C53   C     C_R   0.546638 0.148098 0.852430 -0.151517
C54   C     C_R   0.452862 0.852281 0.147747 -0.161573
C55   C     C_R   0.453362 0.851902 0.352430 -0.151517
C56   C     C_R   0.547138 0.147719 0.647747 -0.161573
C57   C     C_R   0.157458 0.469382 0.505277 -0.222382
C58   C     C_R   0.837874 0.528669 0.493553 -0.229055
C59   C     C_R   0.842540 0.530617 0.005278 -0.222383
C60   C     C_R   0.162124 0.471330 0.993554 -0.229054
C61   C     C_R   0.657459 0.030617 0.994722 -0.222382
C62   C     C_R   0.337876 0.971330 0.006446 -0.229054
C63   C     C_R   0.342540 0.969383 0.494722 -0.222383
C64   C     C_R   0.662124 0.028670 0.506446 -0.229054
H17   H     H_    0.280744 0.445992 0.509126 0.139811
H18   H     H_    0.714644 0.552097 0.489797 0.146439
H19   H     H_    0.719255 0.554007 0.009127 0.139812
H20   H     H_    0.285353 0.447902 0.989798 0.146438
H21   H     H_    0.780745 0.054007 0.990873 0.139812
H22   H     H_    0.214647 0.947902 0.010202 0.146438
H23   H     H_    0.219255 0.945993 0.490873 0.139812
H24   H     H_    0.785353 0.052098 0.510202 0.146438
C65   C     C_R   0.146438 0.504064 0.467960 0.152385
C66   C     C_R   0.848560 0.493789 0.530739 0.145703
C67   C     C_R   0.853561 0.495935 0.967961 0.152384
C68   C     C_R   0.151439 0.506210 0.030740 0.145702
C69   C     C_R   0.646439 0.995936 0.032040 0.152385
C70   C     C_R   0.348561 0.006210 0.969260 0.145702
C71   C     C_R   0.353561 0.004064 0.532039 0.152385
C72   C     C_R   0.651438 0.993790 0.469260 0.145702
C73   C     C_R   0.985689 0.534253 0.461969 0.089353
C74   C     C_R   0.009977 0.463943 0.536916 0.100562
C75   C     C_R   0.014309 0.465747 0.961969 0.089353
C76   C     C_R   0.990022 0.536056 0.036917 0.100560
C77   C     C_R   0.485691 0.965747 0.038031 0.089354
C78   C     C_R   0.509978 0.036056 0.963083 0.100561
C79   C     C_R   0.514309 0.034253 0.538031 0.089353
C80   C     C_R   0.490022 0.963944 0.463083 0.100560
N1    N     N_3   0.765948 0.309854 0.612769 -0.664848
H25   H     H_    0.833156 0.274530 0.614683 0.232247
H26   H     H_    0.676547 0.314192 0.641242 0.250211
N2    N     N_3   0.244833 0.685922 0.385007 -0.664453
H27   H     H_    0.183558 0.722094 0.384049 0.232219
H28   H     H_    0.329543 0.680765 0.355754 0.250950
N3    N     N_3   0.234056 0.690144 0.112770 -0.664849
H29   H     H_    0.166851 0.725469 0.114684 0.232246
H30   H     H_    0.323456 0.685806 0.141243 0.250212
N4    N     N_3   0.755167 0.314077 0.885007 -0.664453
H31   H     H_    0.816442 0.277906 0.884049 0.232218
H32   H     H_    0.670456 0.319234 0.855754 0.250950
N5    N     N_3   0.265943 0.190144 0.887230 -0.664848
H33   H     H_    0.333149 0.225469 0.885316 0.232246
H34   H     H_    0.176544 0.185806 0.858757 0.250212
N6    N     N_3   0.744834 0.814077 0.114993 -0.664453
H35   H     H_    0.683559 0.777906 0.115951 0.232219
H36   H     H_    0.829544 0.819235 0.144246 0.250950
N7    N     N_3   0.734056 0.809855 0.387230 -0.664848
H37   H     H_    0.666851 0.774531 0.385316 0.232246
H38   H     H_    0.823456 0.814194 0.358757 0.250212
N8    N     N_3   0.255166 0.185923 0.614993 -0.664454
H39   H     H_    0.316442 0.222094 0.615951 0.232219
H40   H     H_    0.170456 0.180765 0.644246 0.250950
O21   O     O_3   0.300285 0.466727 0.606083 -0.574527
C81   C     C_3   0.278428 0.502107 0.643047 0.074920
H41   H     H_    0.414981 0.521004 0.648541 0.148932
H42   H     H_    0.241272 0.483893 0.676976 0.104735
C82   C     C_3   0.134897 0.542998 0.630152 -0.317615
H43   H     H_    0.174127 0.560881 0.596360 0.207146
H44   H     H_    0.995861 0.525085 0.626192 0.203829
C83   C     C_3   0.122451 0.584175 0.667656 -0.843862
H45   H     H_    0.077271 0.567187 0.701318 0.235471
H46   H     H_    0.019030 0.613410 0.657019 0.235676
H47   H     H_    0.259467 0.603054 0.672393 0.232681
O22   O     O_3   0.685198 0.536288 0.394277 -0.575141
C84   C     C_3   0.739560 0.491420 0.370371 0.085355
H48   H     H_    0.681187 0.458430 0.389835 0.139296
H49   H     H_    0.893383 0.485426 0.369183 0.111928
C85   C     C_3   0.658886 0.491305 0.320864 -0.312778
H50   H     H_    0.506202 0.497706 0.322579 0.212284
H51   H     H_    0.722216 0.522655 0.300178 0.180233
C86   C     C_3   0.696607 0.440838 0.296069 -0.851438
H52   H     H_    0.848700 0.434055 0.293318 0.232846
H53   H     H_    0.636811 0.442134 0.260343 0.232348
H54   H     H_    0.631258 0.408787 0.315430 0.234228
O23   O     O_3   0.699710 0.533274 0.106083 -0.574528
C87   C     C_3   0.721561 0.497894 0.143047 0.074925
H55   H     H_    0.585002 0.479000 0.148543 0.148930
H56   H     H_    0.758731 0.516107 0.176976 0.104734
C88   C     C_3   0.865076 0.456998 0.130150 -0.317604
H57   H     H_    0.825829 0.439115 0.096359 0.207143
H58   H     H_    0.004117 0.474909 0.126186 0.203828
C89   C     C_3   0.877521 0.415823 0.167654 -0.843874
H59   H     H_    0.922733 0.432810 0.201315 0.235472
H60   H     H_    0.980917 0.386583 0.157015 0.235678
H61   H     H_    0.740499 0.396950 0.172398 0.232682
O24   O     O_3   0.314800 0.463712 0.894277 -0.575141
C90   C     C_3   0.260437 0.508580 0.870372 0.085354
H62   H     H_    0.318812 0.541570 0.889837 0.139296
H63   H     H_    0.106615 0.514574 0.869185 0.111928
C91   C     C_3   0.341110 0.508695 0.820865 -0.312777
H64   H     H_    0.493793 0.502294 0.822579 0.212284
H65   H     H_    0.277779 0.477346 0.800179 0.180232
C92   C     C_3   0.303388 0.559163 0.796071 -0.851437
H66   H     H_    0.151295 0.565946 0.793321 0.232845
H67   H     H_    0.363182 0.557868 0.760345 0.232347
H68   H     H_    0.368739 0.591214 0.815432 0.234228
O25   O     O_3   0.800291 0.033274 0.893918 -0.574528
C93   C     C_3   0.778440 0.997894 0.856953 0.074925
H69   H     H_    0.914999 0.979000 0.851458 0.148930
H70   H     H_    0.741272 0.016108 0.823024 0.104734
C94   C     C_3   0.634924 0.956999 0.869850 -0.317605
H71   H     H_    0.674169 0.939116 0.903640 0.207143
H72   H     H_    0.495883 0.974909 0.873814 0.203829
C95   C     C_3   0.622479 0.915824 0.832345 -0.843876
H73   H     H_    0.577270 0.932810 0.798685 0.235473
H74   H     H_    0.519082 0.886584 0.842984 0.235679
H75   H     H_    0.759501 0.896950 0.827601 0.232681
O26   O     O_3   0.185199 0.963712 0.105723 -0.575140
C96   C     C_3   0.239561 0.008580 0.129629 0.085353
H76   H     H_    0.181188 0.041570 0.110164 0.139296
H77   H     H_    0.393383 0.014574 0.130817 0.111928
C97   C     C_3   0.158886 0.008695 0.179135 -0.312777
H78   H     H_    0.006202 0.002293 0.177421 0.212284
H79   H     H_    0.222215 0.977345 0.199822 0.180232
C98   C     C_3   0.196607 0.059162 0.203930 -0.851436
H80   H     H_    0.348700 0.065945 0.206681 0.232845
H81   H     H_    0.136810 0.057866 0.239656 0.232347
H82   H     H_    0.131258 0.091213 0.184569 0.234228
O27   O     O_3   0.199709 0.966726 0.393917 -0.574528
C99   C     C_3   0.221560 0.002106 0.356953 0.074925
H83   H     H_    0.085000 0.020999 0.351457 0.148930
H84   H     H_    0.258731 0.983892 0.323024 0.104734
C100  C     C_3   0.365074 0.043001 0.369850 -0.317605
H85   H     H_    0.325825 0.060885 0.403640 0.207143
H86   H     H_    0.504116 0.025092 0.373814 0.203829
C101  C     C_3   0.377519 0.084177 0.332346 -0.843875
H87   H     H_    0.422732 0.067190 0.298685 0.235472
H88   H     H_    0.480913 0.113417 0.342985 0.235679
H89   H     H_    0.240496 0.103050 0.327601 0.232682
O28   O     O_3   0.814801 0.036288 0.605722 -0.575141
C102  C     C_3   0.760439 0.991420 0.629628 0.085354
H90   H     H_    0.818813 0.958430 0.610164 0.139296
H91   H     H_    0.606617 0.985426 0.630816 0.111928
C103  C     C_3   0.841113 0.991305 0.679135 -0.312778
H92   H     H_    0.993797 0.997706 0.677420 0.212284
H93   H     H_    0.777784 0.022654 0.699821 0.180233
C104  C     C_3   0.803392 0.940837 0.703929 -0.851436
H94   H     H_    0.651300 0.934055 0.706680 0.232845
H95   H     H_    0.863189 0.942133 0.739655 0.232347
H96   H     H_    0.868742 0.908787 0.684568 0.234227
N9    N     N_3   0.297688 0.507882 0.435687 -0.651087
H97   H     H_    0.416864 0.517232 0.454722 0.254832
H98   H     H_    0.318780 0.471922 0.420789 0.228658
N10   N     N_3   0.696545 0.489481 0.562753 -0.656577
H99   H     H_    0.673041 0.525413 0.577480 0.231090
H100  H     H_    0.578330 0.479548 0.543588 0.255647
N11   N     N_3   0.702311 0.492117 0.935687 -0.651087
H101  H     H_    0.583134 0.482767 0.954723 0.254832
H102  H     H_    0.681219 0.528077 0.920790 0.228658
N12   N     N_3   0.303452 0.510517 0.062754 -0.656577
H103  H     H_    0.326955 0.474585 0.077481 0.231089
H104  H     H_    0.421669 0.520451 0.043588 0.255648
N13   N     N_3   0.797689 0.992118 0.064313 -0.651088
H105  H     H_    0.916866 0.982768 0.045277 0.254833
H106  H     H_    0.818781 0.028077 0.079211 0.228658
N14   N     N_3   0.196547 0.010517 0.937246 -0.656576
H107  H     H_    0.173045 0.974585 0.922519 0.231089
H108  H     H_    0.078331 0.020451 0.956412 0.255648
N15   N     N_3   0.202311 0.007882 0.564313 -0.651088
H109  H     H_    0.083134 0.017232 0.545277 0.254833
H110  H     H_    0.181219 0.971923 0.579210 0.228658
N16   N     N_3   0.803452 0.989483 0.437246 -0.656576
H111  H     H_    0.826955 0.025415 0.422519 0.231089
H112  H     H_    0.921669 0.979549 0.456412 0.255648

loop_
_geom_bond_atom_site_label_1
_geom_bond_atom_site_label_2
_ccdc_geom_bond_type
O17   V3    S    
C58   C73   A    
C71   N15   S    
C86   H52   S    
O18   V4    S    
C91   H64   S    
O12   V1    S    
O19   V1    S    
C2    C56   S    
C94   H71   S    
C37   C45   A    
N7    H37   S    
C60   C68   A    
C62   C77   A    
C43   H11   S    
C44   H12   S    
C99   H84   S    
C95   H74   S    
C100  C101  S    
C33   C41   A    
O15   V4    S    
C29   C37   A    
O16   V3    S    
C86   H53   S    
O11   C3    A    
C14   C22   A    
C84   H48   S    
C13   N5    S    
O12   C4    A    
C22   C30   A    
O7    C6    A    
O8    V1    S    
C63   H23   S    
O22   C84   S    
N7    H38   S    
C16   C56   A    
N5    H34   S    
C59   C67   A    
N13   H105  S    
C24   C32   A    
C38   C46   A    
C61   H21   S    
C34   C42   A    
C64   C79   A    
O1    V3    S    
C96   C97   S    
C39   O27   S    
N10   H99   S    
C30   C38   A    
O3    C2    A    
O2    V4    S    
N9    H97   S    
C41   H9    S    
C59   C76   A    
C16   C24   A    
C89   H59   S    
C90   C91   S    
C33   O21   S    
C91   C92   S    
C27   C35   A    
C25   C74   S    
C69   N13   S    
C26   C34   A    
C87   C88   S    
C100  H85   S    
O11   V2    S    
C35   O23   S    
C10   C18   A    
C92   H67   S    
N14   H108  S    
C7    C49   S    
C29   C78   S    
C1    C55   S    
C48   C56   A    
C11   C19   A    
C81   H42   S    
C31   C80   S    
C3    C53   S    
C43   C51   A    
C88   C89   S    
C57   H17   S    
C46   H14   S    
C85   H51   S    
C23   H7    S    
C36   O24   S    
O16   C8    A    
O7    V2    S    
N3    H30   S    
C104  H94   S    
C88   H58   S    
C82   H43   S    
C94   H72   S    
C18   C26   A    
O25   C93   S    
C103  H93   S    
C42   H10   S    
C13   C53   A    
C47   H15   S    
C99   H83   S    
C10   N2    S    
O8    C5    A    
O5    V1    S    
N11   H102  S    
O10   C2    A    
C86   H54   S    
C60   H20   S    
C67   C75   A    
C42   C50   A    
C34   O22   S    
C83   H47   S    
N3    H29   S    
C9    C17   A    
C81   C82   S    
N6    H36   S    
N4    H31   S    
C98   H82   S    
C11   N3    S    
O27   C99   S    
C64   H24   S    
O26   C96   S    
N16   H112  S    
N15   H110  S    
N12   H103  S    
C21   H5    S    
C21   C29   A    
C39   C47   A    
C40   C48   A    
C8    C50   S    
N9    H98   S    
C103  C104  S    
C83   H46   S    
C82   H44   S    
C28   C75   S    
C98   H80   S    
C10   C50   A    
C47   C55   A    
C57   C74   A    
C9    C49   A    
O10   V2    S    
N13   H106  S    
O23   C87   S    
C95   H75   S    
C32   C79   S    
C37   O25   S    
N14   H107  S    
C14   C54   A    
C93   C94   S    
C100  H86   S    
C96   H76   S    
C16   N8    S    
O3    V4    S    
C102  H91   S    
C95   H73   S    
C63   C80   A    
C15   C55   A    
C81   H41   S    
C93   H69   S    
C40   O28   S    
C18   H2    S    
N2    H28   S    
O4    C1    A    
O9    C1    A    
C87   H55   S    
O6    V2    S    
C22   H6    S    
C44   C52   A    
C101  H87   S    
N12   H104  S    
C65   N9    S    
C104  H95   S    
C94   C95   S    
N8    H40   S    
C62   H22   S    
C46   C54   A    
C35   C43   A    
C103  H92   S    
C61   C78   A    
C13   C21   A    
N15   H109  S    
C101  H89   S    
C45   C53   A    
C15   C23   A    
N1    H25   S    
C5    C51   S    
C9    N1    S    
C27   C76   S    
C24   H8    S    
C4    C54   S    
C85   H50   S    
C26   C73   S    
C91   H65   S    
C68   C76   A    
O2    C3    A    
C97   C98   S    
C14   N6    S    
O13   V3    S    
C63   C71   A    
O14   V4    S    
N6    H35   S    
O1    C4    A    
C62   C70   A    
C20   H4    S    
C30   C77   S    
C93   H70   S    
N11   H101  S    
C72   C80   A    
C67   N11   S    
N16   H111  S    
N4    H32   S    
C19   C27   A    
C82   C83   S    
C36   C44   A    
C17   H1    S    
C59   H19   S    
C72   N16   S    
C84   C85   S    
C58   H18   S    
C60   C75   A    
C61   C69   A    
C83   H45   S    
O14   C6    A    
C98   H81   S    
O24   C90   S    
C17   C25   A    
O20   V2    S    
C48   H16   S    
N5    H33   S    
O13   C5    A    
C92   H68   S    
C23   C31   A    
O9    V1    S    
C19   H3    S    
O5    C8    A    
C68   N12   S    
C57   C65   A    
C20   C28   A    
O6    C7    A    
O15   C7    A    
C96   H77   S    
N10   H100  S    
N2    H27   S    
C102  C103  S    
C25   C33   A    
O28   C102  S    
C70   C78   A    
C89   H60   S    
C90   H63   S    
O4    V3    S    
C12   C20   A    
C12   C52   A    
C97   H79   S    
C45   H13   S    
C88   H57   S    
C66   C74   A    
C41   C49   A    
C38   O26   S    
C65   C73   A    
C97   H78   S    
C28   C36   A    
C84   H49   S    
C92   H66   S    
C66   N10   S    
C104  H96   S    
C15   N7    S    
C102  H90   S    
C6    C52   S    
N8    H39   S    
C70   N14   S    
C90   H62   S    
C85   C86   S    
C58   C66   A    
N1    H26   S    
O21   C81   S    
C69   C77   A    
C12   N4    S    
C31   C39   A    
C89   H61   S    
C99   C100  S    
C101  H88   S    
C32   C40   A    
C71   C79   A    
C87   H56   S    
C64   C72   A    
C11   C51   A    
