data_mof_unit_1795.cif
_audit_creation_date              2012-12-10T18:11:45-0500
_audit_creation_method            fapswitch 2.2
_symmetry_space_group_name_H-M    P1
_symmetry_Int_Tables_number       1
_space_group_crystal_system       triclinic
_cell_length_a                    10.506255
_cell_length_b                    12.60075
_cell_length_c                    13.01337
_cell_angle_alpha                 82.58268
_cell_angle_beta                  91.126572
_cell_angle_gamma                 102.300263
_cell_volume                      1669.10973306

loop_
_atom_site_label
_atom_site_type_symbol
_atom_type_description
_atom_site_fract_x
_atom_site_fract_y
_atom_site_fract_z
_atom_type_partial_charge
C1    C     C_R   0.473826 0.439200 0.691721 0.852668
C2    C     C_R   0.415447 0.455814 0.973728 0.025942
C3    C     C_R   0.411952 0.480036 0.865459 0.086776
C4    C     C_R   0.742153 0.500260 0.501444 0.877849
C5    C     C_R   0.416305 0.540659 0.034853 -0.027994
C6    C     C_R   0.440394 0.650904 0.988456 0.146540
C7    C     C_R   0.411424 0.671856 0.882495 -0.059823
C8    C     C_R   0.387519 0.583654 0.824323 -0.278297
C9    C     C_R   0.401983 0.519999 0.141929 -0.049680
C10   C     C_R   0.520758 0.704516 0.154692 -0.286593
C11   C     C_R   0.436199 0.402068 0.802067 -0.159348
C12   C     C_3   0.057402 0.573335 0.429271 0.154092
C13   C     C_R   0.340235 0.096037 0.329227 -0.289397
C14   C     C_R   0.652383 0.800160 0.632806 0.113884
C15   C     C_R   0.697491 0.909090 0.652809 -0.119564
C16   C     C_R   0.503990 0.560485 0.308721 0.905933
C17   C     C_R   0.661153 0.994321 0.584754 -0.013640
C18   C     C_R   0.554063 0.967096 0.517453 -0.117692
C19   C     C_R   0.515303 0.856734 0.498117 0.160127
C20   C     C_R   0.485911 0.045042 0.466558 -0.054101
C21   C     C_R   0.402107 0.017361 0.382653 0.183783
C22   C     C_R   0.379140 0.911148 0.355186 0.047963
C23   C     C_3   0.985573 0.599229 0.520759 -0.145709
C24   C     C_R   0.428735 0.830857 0.417296 -0.212163
C25   C     C_R   0.492725 0.148312 0.499328 0.006430
C26   C     C_R   0.358033 0.198571 0.361447 0.004834
C27   C     C_R   0.257585 0.499013 0.500518 0.905411
C28   C     C_3   0.938920 0.422252 0.577521 -0.146957
C29   C     C_3   0.050315 0.520414 0.595135 -0.229217
C30   C     C_3   0.121921 0.497082 0.501828 0.012964
C31   C     C_3   0.012957 0.398892 0.484127 -0.090168
C32   C     C_3   0.948051 0.477107 0.409220 -0.211108
C33   C     C_2   0.287550 0.435700 0.185595 0.333045
C34   C     C_3   0.877316 0.500835 0.502721 -0.043651
C35   C     C_2   0.441842 0.202884 0.787295 0.425630
C36   C     C_2   0.753231 0.103516 0.563799 0.387664
C37   C     C_2   0.780408 0.931295 0.744695 0.512293
C38   C     C_2   0.400280 0.781158 0.829442 0.388925
C39   C     C_R   0.494312 0.733451 0.050167 -0.126171
C40   C     C_R   0.475846 0.596234 0.200950 -0.070155
C41   C     C_R   0.438732 0.293545 0.848617 -0.056489
C42   C     C_R   0.438912 0.270303 0.957304 0.079110
C43   C     C_R   0.432402 0.351715 0.018102 -0.197756
H1    H     H_    0.096077 0.537186 0.670642 0.147884
H2    H     H_    0.903450 0.461475 0.333083 0.149519
H3    H     H_    0.971641 0.681329 0.534007 0.150900
H4    H     H_    0.572851 0.766567 0.199462 0.177625
H5    H     H_    0.525761 0.818105 0.017340 0.199564
H6    H     H_    0.238926 0.372335 0.140615 0.080400
H7    H     H_    0.518218 0.156752 0.799762 0.082358
H8    H     H_    0.535095 0.146265 0.985896 0.194836
H9    H     H_    0.370182 0.106142 0.984716 0.223069
H10   H     H_    0.314612 0.809973 0.244745 0.206283
H11   H     H_    0.204201 0.874910 0.286566 0.195589
H12   H     H_    0.443417 0.332667 0.100884 0.149963
H13   H     H_    0.679114 0.710616 0.769501 0.158681
H14   H     H_    0.801248 0.727178 0.680827 0.157117
H15   H     H_    0.742113 0.158917 0.494804 0.055417
H16   H     H_    0.848729 0.880325 0.771102 0.030872
H17   H     H_    0.054084 0.692060 0.309319 0.175842
H18   H     H_    0.163803 0.615923 0.295957 0.221196
H19   H     H_    0.403691 0.796398 0.745397 0.080718
H20   H     H_    0.352757 0.597908 0.746035 0.170615
H21   H     H_    0.312104 0.259662 0.320089 0.167172
H22   H     H_    0.277833 0.079008 0.263521 0.172863
H23   H     H_    0.544944 0.171611 0.567969 0.133920
H24   H     H_    0.884865 0.360483 0.638740 0.182103
H25   H     H_    0.398699 0.748756 0.400187 0.219360
H26   H     H_    0.027582 0.317337 0.469744 0.183192
N1    N     N_R   0.432930 0.222190 0.444670 -0.096274
N2    N     N_R   0.566370 0.776980 0.554790 -0.117380
N3    N     N_3   0.447941 0.164299 0.008444 -0.452842
N4    N     N_3   0.301978 0.884318 0.265994 -0.452178
N5    N     N_3   0.700287 0.712649 0.691014 -0.378335
N6    N     N_3   0.124744 0.656009 0.348967 -0.483539
O1    O     O_R   0.467970 0.366730 0.627150 -0.577839
O2    O     O_2   0.354378 0.174952 0.726924 -0.522703
O3    O     O_2   0.846742 0.131233 0.618702 -0.539111
O4    O     O_2   0.768280 0.003889 0.795108 -0.524737
O5    O     O_2   0.381334 0.853425 0.877506 -0.569577
O6    O     O_R   0.510820 0.544830 0.662520 -0.599520
O7    O     O_R   0.664630 0.410960 0.482340 -0.629327
O8    O     O_R   0.707470 0.589060 0.517710 -0.600724
O9    O     O_R   0.489180 0.455170 0.337480 -0.595833
O10   O     O_R   0.532030 0.633270 0.372850 -0.646002
O11   O     O_R   0.292530 0.410940 0.482290 -0.573708
O12   O     O_R   0.335370 0.589040 0.517660 -0.655567
O13   O     O_2   0.239492 0.440872 0.268828 -0.608763
Zn1   Zn    Zn3+2 0.471390 0.381080 0.476380 0.996034
Zn2   Zn    Zn3+2 0.528610 0.618920 0.523620 0.934682

loop_
_geom_bond_atom_site_label_1
_geom_bond_atom_site_label_2
_ccdc_geom_bond_type
C41   C42   A    
C14   N2    A    
C19   N2    A    
C1    C11   S    
C7    C8    A    
C13   H22   S    
H18   N6    S    
C37   O4    D    
C12   C23   S    
O7    Zn1   S    
C23   C29   S    
C28   C29   S    
C33   O13   D    
C36   H15   S    
C5    C6    A    
C20   C25   A    
C33   H6    S    
C16   O9    A    
C10   C40   A    
C18   C19   A    
C32   H2    S    
C26   H21   S    
C15   C37   S    
C17   C36   S    
C42   C43   A    
O1    Zn1   S    
C28   C34   S    
C23   H3    S    
C21   C22   A    
C12   C32   S    
C27   C30   S    
C9    C33   S    
C4    C34   S    
H13   N5    S    
C28   H24   S    
C3    C8    A    
C35   O2    D    
C9    C40   A    
C10   C39   A    
C32   C34   S    
H14   N5    S    
C27   O11   A    
C5    C9    A    
C29   C30   S    
H9    N3    S    
H11   N4    S    
C31   C32   S    
C2    C43   A    
C23   C34   S    
C35   H7    S    
C42   N3    S    
C17   C18   A    
C13   C21   A    
C27   O12   A    
C37   H16   S    
C16   C40   S    
O6    Zn2   S    
C43   H12   S    
C29   H1    S    
C16   O10   A    
C26   N1    A    
C22   C24   A    
C13   C26   A    
C12   N6    S    
N1    Zn1   S    
O9    Zn1   S    
C14   N5    S    
C15   C17   A    
O8    Zn2   S    
C12   C30   S    
C14   C15   A    
C1    O1    A    
C19   C24   A    
C28   C31   S    
H10   N4    S    
C25   H23   S    
O11   Zn1   S    
O10   Zn2   S    
C6    C7    A    
H17   N6    S    
C2    C3    A    
C36   O3    D    
C30   C31   S    
C4    O8    A    
C38   O5    D    
C7    C38   S    
N2    Zn2   S    
C11   C41   A    
C18   C20   A    
C35   C41   S    
C3    C11   A    
C24   H25   S    
C8    H20   S    
C2    C5    A    
C31   H26   S    
C4    O7    A    
C20   C21   A    
H8    N3    S    
O12   Zn2   S    
C10   H4    S    
C6    C39   A    
C25   N1    A    
C22   N4    S    
C1    O6    A    
C39   H5    S    
C38   H19   S    
