data_mof_unit_2373.cif
_audit_creation_date              2012-12-10T18:09:56-0500
_audit_creation_method            fapswitch 2.2
_symmetry_space_group_name_H-M    P1
_symmetry_Int_Tables_number       1
_space_group_crystal_system       triclinic
_cell_length_a                    10.679197
_cell_length_b                    12.649071
_cell_length_c                    13.173429
_cell_angle_alpha                 82.309285
_cell_angle_beta                  92.155933
_cell_angle_gamma                 102.585207
_cell_volume                      1721.0483742

loop_
_atom_site_label
_atom_site_type_symbol
_atom_type_description
_atom_site_fract_x
_atom_site_fract_y
_atom_site_fract_z
_atom_type_partial_charge
C1    C     C_R   0.485603 0.438995 0.691075 0.880462
C2    C     C_R   0.471587 0.453570 0.970132 0.013629
C3    C     C_R   0.530613 0.460907 0.874476 0.053177
C4    C     C_R   0.742355 0.501197 0.498839 0.801617
C5    C     C_R   0.524980 0.531621 0.036644 0.095801
C6    C     C_R   0.637650 0.612057 0.008029 0.130868
C7    C     C_R   0.702058 0.608415 0.919463 -0.235349
C8    C     C_R   0.653829 0.529814 0.856031 0.097099
C9    C     C_R   0.473208 0.529879 0.132755 -0.240561
C10   C     C_R   0.641871 0.681651 0.170378 -0.197313
C11   C     C_R   0.464338 0.399939 0.799577 -0.104139
C12   C     C_3   0.122232 0.498978 0.497576 0.133311
C13   C     C_R   0.325707 0.085670 0.344424 -0.222745
C14   C     C_R   0.658468 0.798426 0.626986 -0.005781
C15   C     C_R   0.708930 0.904774 0.644676 -0.212023
C16   C     C_R   0.513974 0.560813 0.309199 0.835846
C17   C     C_R   0.661657 0.990549 0.590772 0.113084
C18   C     C_R   0.553948 0.967045 0.522900 -0.026127
C19   C     C_R   0.514028 0.856782 0.502111 0.207398
C20   C     C_R   0.485810 0.045115 0.472444 -0.001961
C21   C     C_R   0.393771 0.012850 0.395492 0.136301
C22   C     C_R   0.366331 0.906740 0.371299 -0.247877
C23   C     C_3   0.092970 0.583593 0.408188 -0.471313
C24   C     C_R   0.423965 0.829536 0.425349 -0.184353
C25   C     C_R   0.498496 0.151863 0.497834 -0.083837
C26   C     C_R   0.345779 0.191202 0.369374 0.128922
C27   C     C_R   0.258485 0.499559 0.498288 0.858980
C28   C     C_3   0.899181 0.387058 0.480883 -0.416791
C29   C     C_3   0.041046 0.385118 0.480436 -0.397255
C30   C     C_3   0.948982 0.587092 0.408079 -0.135198
C31   C     C_3   0.941258 0.527129 0.602436 -0.431377
C32   C     C_3   0.880181 0.502489 0.497368 0.107050
C33   C     C_2   0.931113 0.702498 0.409455 0.430682
C34   C     C_3   0.086439 0.532345 0.600728 -0.031152
C35   C     C_2   0.195887 0.207018 0.950539 0.394566
C36   C     C_2   0.268410 0.265620 0.314428 0.356419
C37   C     C_R   0.691221 0.689737 0.072944 -0.193238
C38   C     C_R   0.537491 0.597277 0.201588 -0.043612
C39   C     C_R   0.357892 0.315416 0.826144 -0.291062
C40   C     C_R   0.308782 0.296888 0.924767 0.042404
C41   C     C_R   0.362796 0.367770 0.995458 -0.158748
H1    H     H_    0.854766 0.363608 0.407004 0.199307
H2    H     H_    0.852024 0.324900 0.543516 0.183132
H3    H     H_    0.296416 0.882151 0.312352 0.155442
H4    H     H_    0.256083 0.059558 0.285724 0.202080
H5    H     H_    0.555098 0.180837 0.561146 0.140383
H6    H     H_    0.699101 0.733156 0.666304 0.142160
H7    H     H_    0.789881 0.921131 0.696616 0.161237
H8    H     H_    0.397016 0.748560 0.405160 0.202609
H9    H     H_    0.061526 0.320307 0.540490 0.190658
H10   H     H_    0.064865 0.363366 0.405382 0.196494
H11   H     H_    0.905994 0.561186 0.334572 0.091420
H12   H     H_    0.136603 0.618793 0.604838 0.196053
H13   H     H_    0.117303 0.560615 0.333794 0.146529
H14   H     H_    0.924605 0.605511 0.622410 0.210376
H15   H     H_    0.895473 0.461410 0.662422 0.161043
H16   H     H_    0.868684 0.735788 0.352997 0.055071
H17   H     H_    0.153964 0.155233 0.893219 0.048681
H18   H     H_    0.718543 0.428435 0.771736 0.163720
H19   H     H_    0.732868 0.560006 0.715435 0.200061
H20   H     H_    0.285000 0.350209 0.323779 0.122636
H21   H     H_    0.744831 0.143844 0.522556 0.193724
H22   H     H_    0.707117 0.134329 0.651787 0.172022
H23   H     H_    0.154932 0.665484 0.414780 0.199049
H24   H     H_    0.113188 0.497616 0.756008 0.200296
H25   H     H_    0.072772 0.385490 0.696104 0.189699
H26   H     H_    0.691551 0.734923 0.223726 0.150245
H27   H     H_    0.794518 0.662712 0.902410 0.152916
H28   H     H_    0.776687 0.751548 0.051241 0.142427
H29   H     H_    0.388801 0.471171 0.160379 0.129262
H30   H     H_    0.308428 0.267819 0.768278 0.154171
H31   H     H_    0.318219 0.352965 0.069310 0.189677
N1    N     N_R   0.433240 0.222190 0.444680 -0.145881
N2    N     N_R   0.566070 0.776970 0.554790 -0.132451
N3    N     N_3   0.740512 0.510441 0.783966 -0.480593
N4    N     N_3   0.739783 0.097388 0.594673 -0.472608
N5    N     N_3   0.128416 0.465008 0.689771 -0.469586
O1    O     O_R   0.468120 0.366740 0.627160 -0.614852
O2    O     O_2   0.148395 0.189409 0.035644 -0.521972
O3    O     O_2   0.181544 0.232061 0.256165 -0.556441
O4    O     O_R   0.510770 0.544830 0.662520 -0.608819
O5    O     O_R   0.663880 0.410950 0.482330 -0.620578
O6    O     O_R   0.706530 0.589040 0.517700 -0.623920
O7    O     O_R   0.489230 0.455170 0.337480 -0.634154
O8    O     O_R   0.531880 0.633260 0.372840 -0.635616
O9    O     O_R   0.293470 0.410960 0.482300 -0.653386
O10   O     O_R   0.336120 0.589050 0.517670 -0.636045
O11   O     O_2   0.983804 0.758363 0.474046 -0.576071
Zn1   Zn    Zn3+2 0.471520 0.381090 0.476390 0.920188
Zn2   Zn    Zn3+2 0.528480 0.618910 0.523610 0.934400

loop_
_geom_bond_atom_site_label_1
_geom_bond_atom_site_label_2
_ccdc_geom_bond_type
C30   C32   S    
C37   H28   S    
C12   C29   S    
C1    C11   S    
C7    C8    A    
C10   H26   S    
C12   C23   S    
O5    Zn1   S    
C35   H17   S    
C14   N2    A    
C28   C29   S    
C33   O11   D    
C2    C3    A    
C34   N5    S    
C5    C6    A    
H22   N4    S    
C2    C41   A    
C1    O4    A    
C16   O7    A    
C26   N1    A    
C18   C19   A    
C28   H1    S    
H25   N5    S    
C7    H27   S    
C22   H3    S    
C17   N4    S    
C31   H15   S    
C18   C20   A    
C21   C22   A    
C1    O1    A    
H21   N4    S    
C15   H7    S    
C6    C7    A    
C29   H9    S    
O1    Zn1   S    
C31   C34   S    
H24   N5    S    
C12   C27   S    
C23   C30   S    
C28   C32   S    
C9    H29   S    
C3    C8    A    
C36   O3    D    
C39   C40   A    
C8    N3    S    
C27   O9    A    
C27   O10   A    
C5    C9    A    
C31   C32   S    
C17   C18   A    
C6    C37   A    
C13   C21   A    
C11   C39   A    
C4    C32   S    
C41   H31   S    
O4    Zn2   S    
C26   C36   S    
C23   H23   S    
C10   C37   A    
C16   O8    A    
C22   C24   A    
C13   C26   A    
C2    C5    A    
O7    Zn1   S    
C12   C34   S    
C36   H20   S    
H18   N3    S    
C23   H13   S    
C29   H10   S    
C24   H8    S    
C15   C17   A    
O6    Zn2   S    
C30   H11   S    
C40   C41   A    
C33   H16   S    
H19   N3    S    
C30   C33   S    
C19   N2    A    
O9    Zn1   S    
O8    Zn2   S    
C14   H6    S    
C28   H2    S    
C10   C38   A    
N2    Zn2   S    
C35   C40   S    
N1    Zn1   S    
C13   H4    S    
C4    O6    A    
C35   O2    D    
C9    C38   A    
C19   C24   A    
C25   N1    A    
C3    C11   A    
C4    O5    A    
C20   C21   A    
C34   H12   S    
C20   C25   A    
O10   Zn2   S    
C39   H30   S    
C14   C15   A    
C31   H14   S    
C25   H5    S    
C16   C38   S    
