data_mof_unit_2107.cif
_audit_creation_date              2013-03-05T15:42:00-0500
_audit_creation_method            fapswitch 2.2
_symmetry_space_group_name_H-M    P1
_symmetry_Int_Tables_number       1
_space_group_crystal_system       triclinic
_cell_length_a                    11.702278
_cell_length_b                    11.713977
_cell_length_c                    18.556883
_cell_angle_alpha                 88.931259
_cell_angle_beta                  90.448079
_cell_angle_gamma                 120.469748
_cell_volume                      2192.09233834

loop_
_atom_site_label
_atom_site_type_symbol
_atom_site_description
_atom_site_fract_x
_atom_site_fract_y
_atom_site_fract_z
_atom_type_partial_charge
O1    O     O_R   0.910960 0.572410 0.171010 -0.548944
O2    O     O_R   0.427590 0.338550 0.171010 -0.551732
O3    O     O_R   0.661450 0.089040 0.171010 -0.527702
O4    O     O_R   0.572410 0.910960 0.828990 -0.523254
O5    O     O_R   0.338550 0.427590 0.828990 -0.558814
O6    O     O_R   0.089040 0.661450 0.828990 -0.529450
O7    O     O_R   0.639750 0.528530 0.175600 -0.517763
O8    O     O_R   0.471470 0.111220 0.175600 -0.512026
O9    O     O_R   0.888780 0.360250 0.175600 -0.528947
O10   O     O_R   0.528530 0.639750 0.824400 -0.506568
O11   O     O_R   0.111220 0.471470 0.824400 -0.530558
O12   O     O_R   0.360250 0.888780 0.824400 -0.538689
C1    C     C_R   0.525498 0.458408 0.146009 0.536199
C2    C     C_R   0.549547 0.079672 0.142739 0.546011
C3    C     C_R   0.939287 0.480273 0.151088 0.541091
C4    C     C_R   0.458813 0.521458 0.852915 0.519838
C5    C     C_R   0.084948 0.550605 0.859850 0.524085
C6    C     C_R   0.477945 0.938075 0.850446 0.536063
O13   O     O_R   0.909330 0.572400 0.331540 -0.541901
O14   O     O_R   0.427600 0.336930 0.331540 -0.544388
O15   O     O_R   0.663070 0.090670 0.331540 -0.530563
O16   O     O_R   0.572400 0.909330 0.668460 -0.526558
O17   O     O_R   0.336930 0.427600 0.668460 -0.526932
O18   O     O_R   0.090670 0.663070 0.668460 -0.524852
O19   O     O_R   0.638240 0.528520 0.324410 -0.526911
O20   O     O_R   0.471480 0.109720 0.324410 -0.522246
O21   O     O_R   0.890280 0.361760 0.324410 -0.524551
O22   O     O_R   0.528520 0.638240 0.675590 -0.532501
O23   O     O_R   0.109720 0.471480 0.675590 -0.523753
O24   O     O_R   0.361760 0.890280 0.675590 -0.530226
C7    C     C_R   0.542353 0.419759 0.360960 0.530887
C8    C     C_R   0.581587 0.124614 0.359914 0.534748
C9    C     C_R   0.877528 0.456607 0.360491 0.525153
C10   C     C_R   0.450928 0.521934 0.645548 0.513721
C11   C     C_R   0.071455 0.550235 0.645702 0.523657
C12   C     C_R   0.478611 0.929568 0.645684 0.513486
Cr1   Cr    Cr6+3 0.768550 0.541320 0.250660 0.927891
Cr2   Cr    Cr6+3 0.458680 0.227230 0.250660 0.923790
Cr3   Cr    Cr6+3 0.772770 0.231450 0.250660 0.941159
Cr4   Cr    Cr6+3 0.541320 0.768550 0.749340 0.965002
Cr5   Cr    Cr6+3 0.227230 0.458680 0.749340 0.951299
Cr6   Cr    Cr6+3 0.231450 0.772770 0.749340 0.954219
O25   O     O_3   0.666667 0.333333 0.250630 -0.317843
O26   O     O_3   0.333333 0.666667 0.749370 -0.278123
C13   C     C_R   0.493668 0.025350 0.911808 0.022287
C14   C     C_R   0.067171 0.516027 0.943022 -0.024647
C15   C     C_R   0.525925 0.505131 0.919488 0.001380
C16   C     C_R   0.028518 0.498867 0.092007 0.021954
C17   C     C_R   0.514569 0.051790 0.063316 -0.010898
C18   C     C_R   0.524537 0.518760 0.073729 0.006629
C19   C     C_R   0.387699 0.023733 0.950221 -0.020935
C20   C     C_R   0.040650 0.393257 0.983877 -0.035094
C21   C     C_R   0.637347 0.616635 0.953477 0.021870
C22   C     C_R   0.033373 0.394989 0.062109 0.004496
C23   C     C_R   0.391806 0.027940 0.030622 -0.036192
C24   C     C_R   0.640724 0.623177 0.034466 0.016800
C25   C     C_R   0.621055 0.083912 0.015010 -0.029295
C26   C     C_R   0.113849 0.616106 0.063173 -0.010707
C27   C     C_R   0.418854 0.446155 0.029024 0.000804
C28   C     C_R   0.111123 0.626304 0.988505 -0.036608
C29   C     C_R   0.613998 0.099312 0.940740 -0.012168
C30   C     C_R   0.456318 0.402687 0.968075 -0.010852
C31   C     C_R   0.291084 0.042462 0.911585 0.028486
C32   C     C_R   0.032448 0.274329 0.957799 -0.033862
C33   C     C_R   0.738907 0.722025 0.911490 0.050557
C34   C     C_R   0.050826 0.305535 0.109093 0.039228
C35   C     C_R   0.278114 0.021458 0.068923 0.014681
C36   C     C_R   0.753596 0.734288 0.067418 0.026573
C37   C     C_R   0.193820 0.041846 0.951517 -0.142345
C38   C     C_R   0.018955 0.177440 0.006177 -0.151950
C39   C     C_R   0.820869 0.836951 0.947057 -0.156565
C40   C     C_R   0.030802 0.191737 0.079664 -0.127557
C41   C     C_R   0.191947 0.037682 0.024765 -0.140548
C42   C     C_R   0.839791 0.834693 0.020696 -0.172235
H1    H     H_    0.108510 0.031679 0.924347 0.086191
H2    H     H_    0.994553 0.086754 0.983779 0.111129
H3    H     H_    0.888660 0.922205 0.915606 0.090163
H4    H     H_    0.017836 0.111569 0.114810 0.082997
H5    H     H_    0.114828 0.041954 0.047999 0.111410
H6    H     H_    0.919292 0.917561 0.044068 0.104242
H7    H     H_    0.458120 0.183896 0.461513 0.118477
H8    H     H_    0.821028 0.274888 0.465423 0.117964
H9    H     H_    0.724990 0.539165 0.464989 0.118935
H10   H     H_    0.893182 0.313094 0.591675 0.129986
H11   H     H_    0.421120 0.108747 0.588471 0.125845
H12   H     H_    0.687198 0.575371 0.590625 0.126385
C43   C     C_R   0.502500 0.981455 0.573032 -0.001770
C44   C     C_R   0.019716 0.523816 0.573559 -0.003175
C45   C     C_R   0.478056 0.498284 0.573096 -0.002818
C46   C     C_R   0.910090 0.479588 0.437217 -0.000174
C47   C     C_R   0.573592 0.095089 0.437088 -0.005162
C48   C     C_R   0.519700 0.429661 0.437645 -0.001512
C49   C     C_R   0.574168 0.946188 0.526178 0.027352
C50   C     C_R   0.054782 0.631940 0.525452 0.024129
C51   C     C_R   0.369689 0.426531 0.525691 0.027941
C52   C     C_R   0.975583 0.610619 0.465799 0.044853
C53   C     C_R   0.635973 0.027506 0.467313 0.042233
C54   C     C_R   0.388871 0.367134 0.466840 0.044148
C55   C     C_R   0.496950 0.124616 0.481479 -0.173347
C56   C     C_R   0.880028 0.373464 0.483592 -0.176310
C57   C     C_R   0.626471 0.503333 0.483305 -0.173008
C58   C     C_R   0.924734 0.395796 0.554190 -0.171213
C59   C     C_R   0.471994 0.077727 0.552181 -0.171779
C60   C     C_R   0.604707 0.526865 0.553596 -0.172687
C61   C     C_R   0.593974 0.838346 0.538626 -0.072377
C62   C     C_R   0.160352 0.762049 0.537053 -0.076039
C63   C     C_R   0.240599 0.403384 0.537798 -0.074553
C64   C     C_R   0.968297 0.721389 0.437880 -0.086556
C65   C     C_R   0.753201 0.033174 0.440971 -0.088044
C66   C     C_R   0.276497 0.249901 0.440502 -0.094564
C67   C     C_R   0.702030 0.837655 0.508203 -0.106491
C68   C     C_R   0.161014 0.870148 0.504038 -0.107843
C69   C     C_R   0.131097 0.295235 0.507108 -0.107129
C70   C     C_R   0.062131 0.849536 0.456132 -0.134951
C71   C     C_R   0.784006 0.937571 0.460970 -0.133709
C72   C     C_R   0.149295 0.216216 0.460118 -0.137907
H13   H     H_    0.528454 0.758357 0.573627 0.150565
H14   H     H_    0.239281 0.779365 0.572970 0.153451
H15   H     H_    0.224920 0.465671 0.572958 0.152339
H16   H     H_    0.890085 0.711970 0.402608 0.143419
H17   H     H_    0.823433 0.111096 0.405396 0.141084
H18   H     H_    0.283715 0.180393 0.406085 0.138819
H19   H     H_    0.727885 0.765142 0.523259 0.127600
H20   H     H_    0.232766 0.969927 0.517652 0.125128
H21   H     H_    0.031906 0.266760 0.522039 0.126194
H22   H     H_    0.060384 0.932675 0.431541 0.087611
H23   H     H_    0.868626 0.938325 0.438104 0.091029
H24   H     H_    0.065010 0.130919 0.437456 0.090403
C73   C     C_3   0.734997 0.077239 0.038795 -0.268921
C74   C     C_3   0.687347 0.944448 0.071530 -0.405137
H25   H     H_    0.600580 0.902413 0.107644 0.159914
H26   H     H_    0.654348 0.873988 0.027050 0.166580
H27   H     H_    0.773551 0.961104 0.102526 0.171253
H28   H     H_    0.791020 0.076206 0.992550 0.157579
H29   H     H_    0.797675 0.162168 0.073172 0.205906
C75   C     C_3   0.210204 0.723898 0.110347 -0.287994
C76   C     C_3   0.261804 0.678146 0.174522 -0.450093
H30   H     H_    0.279091 0.597797 0.159243 0.139206
H31   H     H_    0.359498 0.759734 0.192578 0.136842
H32   H     H_    0.191044 0.645309 0.220317 0.170022
H33   H     H_    0.298043 0.794503 0.078989 0.148696
H34   H     H_    0.153759 0.769077 0.126827 0.184636
C77   C     C_3   0.336883 0.510881 0.016949 -0.271458
C78   C     C_3   0.410348 0.662327 0.007277 -0.438177
H35   H     H_    0.485400 0.700649 0.964362 0.170392
H36   H     H_    0.344480 0.696856 0.988334 0.146594
H37   H     H_    0.451942 0.708232 0.059609 0.135122
H38   H     H_    0.279325 0.471277 0.968417 0.161870
H39   H     H_    0.274691 0.486148 0.064614 0.166477
C79   C     C_3   0.128064 0.749623 0.961537 -0.274906
C80   C     C_3   0.993494 0.725155 0.944787 -0.396608
H40   H     H_    0.932371 0.637995 0.911585 0.176681
H41   H     H_    0.939658 0.703280 0.996393 0.170548
H42   H     H_    0.009712 0.813555 0.915706 0.154220
H43   H     H_    0.163333 0.820542 0.003191 0.162548
H44   H     H_    0.202134 0.791431 0.918812 0.208986
C81   C     C_3   0.735350 0.177513 0.893364 -0.280594
C82   C     C_3   0.717660 0.248668 0.828334 -0.454704
H45   H     H_    0.656469 0.291826 0.842790 0.139201
H46   H     H_    0.815242 0.331802 0.810225 0.149607
H47   H     H_    0.674293 0.179954 0.782660 0.162937
H48   H     H_    0.812184 0.256525 0.926208 0.159334
H49   H     H_    0.768559 0.110007 0.875405 0.177811
C83   C     C_3   0.523706 0.322716 0.983718 -0.270957
C84   C     C_3   0.673385 0.394492 0.002798 -0.429193
H50   H     H_    0.696248 0.442575 0.055639 0.174368
H51   H     H_    0.708997 0.324849 0.008771 0.144224
H52   H     H_    0.735532 0.464812 0.960221 0.136493
H53   H     H_    0.471996 0.259846 0.030540 0.189709
H54   H     H_    0.512715 0.267049 0.935074 0.162296
C85   C     C_3   0.276572 0.063323 0.830009 -0.231543
C86   C     C_3   0.399092 0.168525 0.790177 -0.406235
H55   H     H_    0.449039 0.261862 0.820469 0.148793
H56   H     H_    0.466049 0.131340 0.778298 0.159015
H57   H     H_    0.369196 0.190860 0.737198 0.144584
H58   H     H_    0.226000 0.969035 0.800624 0.182092
H59   H     H_    0.204612 0.097633 0.821626 0.106777
C87   C     C_3   0.091625 0.260954 0.890779 -0.237919
C88   C     C_3   0.005204 0.193329 0.825300 -0.397503
H60   H     H_    0.937242 0.086785 0.836655 0.097705
H61   H     H_    0.949051 0.240700 0.807176 0.178796
H62   H     H_    0.070042 0.201297 0.779802 0.146922
H63   H     H_    0.163997 0.356980 0.883998 0.235840
H64   H     H_    0.159326 0.223473 0.899722 0.135891
C89   C     C_3   0.779569 0.720333 0.832039 -0.224158
C90   C     C_3   0.748041 0.586139 0.801843 -0.412478
H65   H     H_    0.823448 0.601678 0.760761 0.155032
H66   H     H_    0.749551 0.520127 0.844367 0.125356
H67   H     H_    0.650916 0.535374 0.774255 0.164662
H68   H     H_    0.745469 0.772355 0.795034 0.180598
H69   H     H_    0.888062 0.785343 0.825603 0.096604
C91   C     C_3   0.076562 0.319520 0.191420 -0.270880
C92   C     C_3   0.197106 0.318774 0.217335 -0.424142
H70   H     H_    0.191797 0.227148 0.200371 0.152647
H71   H     H_    0.284396 0.410487 0.196904 0.183654
H72   H     H_    0.200129 0.320499 0.277192 0.164989
H73   H     H_    0.092933 0.414201 0.212392 0.174534
H74   H     H_    0.990011 0.236446 0.219812 0.171699
C93   C     C_3   0.231306 0.018646 0.149753 -0.228132
C94   C     C_3   0.229691 0.935473 0.216094 -0.387523
H75   H     H_    0.130938 0.845016 0.224488 0.123756
H76   H     H_    0.306977 0.908910 0.215713 0.194584
H77   H     H_    0.244280 0.993530 0.265412 0.154689
H78   H     H_    0.281404 0.120885 0.165955 0.214089
H79   H     H_    0.126390 0.994171 0.151761 0.065051
C95   C     C_3   0.789601 0.771818 0.148276 -0.221758
C96   C     C_3   0.682142 0.770440 0.197075 -0.397906
H80   H     H_    0.677954 0.721853 0.249428 0.189520
H81   H     H_    0.707259 0.872169 0.211292 0.136168
H82   H     H_    0.582505 0.718475 0.172025 0.144143
H83   H     H_    0.833380 0.717509 0.172928 0.217910
H84   H     H_    0.877924 0.872166 0.154356 0.058076

loop_
_geom_bond_atom_site_label_1
_geom_bond_atom_site_label_2
_geom_bond_distance
_ccdc_geom_bond_type
O19   C7    1.368248 A    
C55   C59   1.387365 A    
C85   C86   1.520304 S    
O20   C8    1.373959 A    
C84   H50   1.101819 S    
C54   C66   1.427435 A    
C49   C53   1.377866 A    
H10   C58   1.083894 S    
C64   H16   1.081305 S    
C83   H54   1.091639 S    
C93   H79   1.110994 S    
H12   C60   1.083878 S    
C15   C30   1.377048 A    
C68   C70   1.377017 A    
C87   C88   1.526735 S    
C51   C54   1.384821 A    
C17   C25   1.423846 A    
C89   H68   1.108545 S    
C62   C68   1.392849 A    
O18   Cr6   2.122329 S    
O21   C9    1.379284 A    
C16   C22   1.373856 A    
C76   H31   1.109297 S    
C81   C82   1.525583 S    
Cr6   O26   2.114024 S    
C18   C27   1.372808 A    
C25   C73   1.440150 S    
C83   C84   1.551823 S    
C68   H20   1.071148 S    
C35   C93   1.594903 S    
C70   H22   1.077312 S    
C8    C47   1.459494 S    
C69   H21   1.069735 S    
O22   Cr4   2.017002 S    
C36   C42   1.387421 A    
C77   C78   1.536977 S    
C14   C20   1.499882 A    
C32   C87   1.477033 S    
O9    Cr3   1.983281 S    
C71   H23   1.076238 S    
C23   C35   1.480325 A    
O10   Cr4   1.983613 S    
C80   H42   1.086726 S    
C64   C70   1.383934 A    
C25   C29   1.393894 A    
O2    C1    1.360817 A    
C63   C69   1.392997 A    
O5    C4    1.351233 A    
O12   Cr6   2.004779 S    
O13   Cr1   2.114874 S    
C82   H47   1.108262 S    
C49   C61   1.410007 A    
C73   H29   1.100440 S    
C74   H25   1.101752 S    
C95   H83   1.092006 S    
C34   C40   1.355907 A    
C31   C37   1.359911 A    
C86   H56   1.097585 S    
C94   H75   1.112350 S    
C92   H71   1.104199 S    
C34   C91   1.550354 S    
C96   H82   1.108331 S    
C75   H34   1.083335 S    
C80   H40   1.099820 S    
C37   C41   1.359167 A    
O1    C3    1.338311 A    
C32   C38   1.378933 A    
C21   C33   1.426269 A    
C81   H49   1.100409 S    
Cr4   O26   2.098181 S    
C87   H63   1.014213 S    
H11   C59   1.083858 S    
C86   H57   1.111416 S    
O1    Cr1   2.120730 S    
C15   C21   1.447295 A    
C69   C72   1.376738 A    
O4    C6    1.359832 A    
C92   H72   1.111276 S    
C52   C64   1.430296 A    
C27   C77   1.507688 S    
C93   C94   1.549868 S    
C84   H51   1.091874 S    
C42   H6    1.043764 S    
C62   H14   1.069541 S    
C40   H4    1.079099 S    
C82   H46   1.109631 S    
C61   H13   1.069667 S    
C83   H53   1.093563 S    
O8    Cr2   2.022222 S    
C3    C16   1.455387 S    
C78   H37   1.102627 S    
C4    C15   1.519184 S    
C46   C56   1.389614 A    
C76   H32   1.109773 S    
C20   C22   1.456020 A    
C89   H69   1.106588 S    
C33   C89   1.556340 S    
C12   C43   1.438127 S    
O7    Cr1   1.995072 S    
C77   H38   1.081280 S    
O15   C8    1.320888 A    
C44   C50   1.416319 A    
O18   C11   1.301478 A    
C38   C40   1.374392 A    
C67   H19   1.068452 S    
C96   H80   1.105426 S    
O4    Cr4   2.137268 S    
C19   C31   1.439948 A    
C5    C14   1.576619 S    
C78   H36   1.089932 S    
C20   C32   1.439784 A    
O21   Cr3   2.003424 S    
O3    Cr3   2.126607 S    
C95   C96   1.548657 S    
C78   H35   1.097651 S    
Cr3   O25   2.113967 S    
H7    C55   1.064777 S    
C26   C75   1.487937 S    
C33   C39   1.371728 A    
C18   C24   1.473509 A    
C88   H60   1.104855 S    
C45   C51   1.420434 A    
C74   H26   1.099476 S    
C75   H33   1.099304 S    
C29   C81   1.516214 S    
O14   Cr2   2.142589 S    
C11   C44   1.437827 S    
O2    Cr2   2.101969 S    
C31   C85   1.550623 S    
O15   Cr3   2.100226 S    
C77   H39   1.087502 S    
O17   C10   1.295309 A    
O16   Cr4   2.100562 S    
C56   C58   1.386250 A    
C41   H5    1.027383 S    
C28   C79   1.435494 S    
C91   H73   1.103490 S    
C47   C53   1.427362 A    
C85   H59   1.110722 S    
C50   C52   1.380680 A    
O3    C2    1.359330 A    
C51   C63   1.411983 A    
C48   C57   1.393201 A    
C35   C41   1.378385 A    
C94   H76   1.095645 S    
C84   H52   1.099477 S    
C7    C48   1.466975 S    
C57   C60   1.389980 A    
C91   H74   1.113573 S    
C79   H43   1.062630 S    
C45   C60   1.392945 A    
O13   C9    1.315650 A    
C82   H45   1.102497 S    
Cr5   O26   2.099902 S    
C43   C59   1.392400 A    
Cr1   O25   2.100336 S    
C74   H27   1.087225 S    
C72   H24   1.075992 S    
C90   H66   1.100836 S    
C6    C13   1.491649 S    
C66   C72   1.382539 A    
C39   H3    1.072058 S    
C86   H55   1.105757 S    
C73   C74   1.479837 S    
C85   H58   1.105435 S    
C21   C24   1.505455 A    
O6    C5    1.387731 A    
O5    Cr5   2.108377 S    
O11   C5    1.304427 A    
C27   C30   1.409372 A    
O8    C2    1.304904 A    
H9    C57   1.063442 S    
C14   C28   1.416214 A    
C79   C80   1.482090 S    
H8    C56   1.061169 S    
O20   Cr2   1.981368 S    
C75   C76   1.537268 S    
C17   C23   1.447625 A    
O17   Cr5   2.134875 S    
C39   C42   1.384545 A    
C44   C58   1.391732 A    
C16   C26   1.326516 A    
C46   C52   1.433727 A    
C22   C34   1.442252 A    
C79   H44   1.088816 S    
O16   C12   1.300895 A    
C76   H30   1.100518 S    
O23   C11   1.324839 A    
C63   H15   1.071036 S    
O24   C12   1.324288 A    
C24   C36   1.444359 A    
C91   C92   1.490970 S    
C88   H62   1.110195 S    
C90   H67   1.106498 S    
C53   C65   1.429047 A    
O9    C3    1.292490 A    
C10   C45   1.447394 S    
Cr2   O25   2.097804 S    
O10   C4    1.303291 A    
C9    C46   1.465154 S    
C66   H18   1.080729 S    
C38   H2    1.043903 S    
C65   H17   1.081504 S    
C89   C90   1.537067 S    
C93   H78   1.080283 S    
C36   C95   1.564938 S    
C94   H77   1.110069 S    
C43   C49   1.416398 A    
C13   C29   1.337891 A    
C37   H1    1.067159 S    
C19   C23   1.493327 A    
C80   H41   1.102823 S    
C61   C67   1.392646 A    
C73   H28   1.087953 S    
C50   C62   1.412076 A    
C65   C71   1.383358 A    
O22   C10   1.325600 A    
C1    C18   1.507130 S    
C2    C17   1.522948 S    
C95   H84   1.110736 S    
O7    C1    1.286616 A    
C30   C83   1.522879 S    
C48   C54   1.426486 A    
C92   H70   1.095279 S    
O6    Cr6   2.103583 S    
O11   Cr5   2.012270 S    
O12   C6    1.287414 A    
C96   H81   1.109645 S    
C13   C19   1.426807 A    
O23   Cr5   1.989591 S    
O24   Cr6   1.981593 S    
C67   C71   1.376431 A    
C47   C55   1.392629 A    
C90   H65   1.111513 S    
C26   C28   1.390035 A    
C81   H48   1.097746 S    
C87   H64   1.093605 S    
O19   Cr1   2.003486 S    
C88   H61   1.101010 S    
O14   C7    1.315166 A    
