data_mof_unit_2110.cif
_audit_creation_date              2012-12-10T18:46:18-0500
_audit_creation_method            fapswitch 2.2
_symmetry_space_group_name_H-M    P1
_symmetry_Int_Tables_number       1
_space_group_crystal_system       triclinic
_cell_length_a                    9.865635
_cell_length_b                    10.66543
_cell_length_c                    13.116481
_cell_angle_alpha                 90.4328
_cell_angle_beta                  70.177667
_cell_angle_gamma                 90.082762
_cell_volume                      1298.31974199

loop_
_atom_site_label
_atom_site_type_symbol
_atom_type_description
_atom_site_fract_x
_atom_site_fract_y
_atom_site_fract_z
_atom_type_partial_charge
Br1   Br    Br    0.229261 0.302570 0.338238 -0.487190
Br2   Br    Br    0.865566 0.254390 0.779353 -0.489291
C1    C     C_R   0.499965 0.739864 0.500199 0.891593
C2    C     C_R   0.368716 0.475918 0.821311 -0.097362
C3    C     C_R   0.624732 0.936403 0.448001 -0.177557
C4    C     C_R   0.420328 0.491781 0.703909 0.835023
C5    C     C_R   0.623318 0.064763 0.450389 -0.192452
C6    C     C_R   0.496599 0.127717 0.509619 -0.145069
C7    C     C_R   0.370526 0.062623 0.569997 0.466259
C8    C     C_R   0.371823 0.933896 0.563001 -0.166167
C9    C     C_R   0.498611 0.872126 0.503030 -0.118032
C10   C     C_R   0.956724 0.420507 0.433974 -0.100596
C11   C     C_R   0.100047 0.419888 0.433769 0.354899
C12   C     C_R   0.431355 0.461697 0.984020 0.091650
C13   C     C_R   0.042156 0.579371 0.566514 -0.106992
C14   C     C_R   0.898409 0.579284 0.566523 -0.046933
C15   C     C_R   0.498305 0.260201 0.503672 0.866110
C16   C     C_R   0.579867 0.499140 0.295686 0.887464
C17   C     C_R   0.782601 0.377475 0.016966 -0.144615
C18   C     C_R   0.627895 0.480241 0.179124 -0.053845
C19   C     C_R   0.230053 0.517834 0.882591 -0.167029
C20   C     C_R   0.189198 0.525699 0.994653 -0.150260
C21   C     C_R   0.289572 0.501339 0.045235 -0.150096
C22   C     C_R   0.463124 0.432718 0.873825 0.028221
C23   C     C_R   0.542819 0.450613 0.028336 0.047997
C24   C     C_R   0.674934 0.390019 0.969312 0.086885
C25   C     C_R   0.694653 0.342785 0.865121 0.222956
C26   C     C_R   0.589137 0.363549 0.818787 -0.227106
C27   C     C_R   0.527422 0.502996 0.128897 -0.190395
C28   C     C_R   0.757732 0.420059 0.122549 -0.221024
H1    H     H_    0.836871 0.401647 0.161100 0.158664
H2    H     H_    0.252547 0.511063 0.132350 0.148412
H3    H     H_    0.081456 0.556247 0.042083 0.148604
H4    H     H_    0.606410 0.323475 0.739376 0.199070
H5    H     H_    0.722641 0.887440 0.401435 0.166375
H6    H     H_    0.273286 0.200362 0.663928 0.339043
H7    H     H_    0.720156 0.114894 0.404269 0.175617
H8    H     H_    0.275774 0.881925 0.607840 0.168905
H9    H     H_    0.924974 0.357143 0.381308 0.150222
H10   H     H_    0.072632 0.642859 0.619714 0.141742
H11   H     H_    0.820276 0.642792 0.619783 0.149875
H12   H     H_    0.884012 0.331383 0.975017 0.190699
H13   H     H_    0.434753 0.559679 0.171726 0.149935
H14   H     H_    0.154641 0.547612 0.843772 0.164802
N1    N     N_R   0.142790 0.500030 0.500030 -0.100046
N2    N     N_R   0.857180 0.499940 0.500010 -0.099270
O1    O     O_R   0.385370 0.683250 0.500010 -0.624776
O2    O     O_R   0.614700 0.683220 0.500010 -0.615664
O3    O     O_R   0.328400 0.499990 0.653620 -0.614643
O4    O     O_R   0.557730 0.499960 0.653620 -0.610897
O5    O     O_R   0.385300 0.316780 0.499990 -0.551188
O6    O     O_R   0.614630 0.316750 0.499990 -0.624418
O7    O     O_R   0.442270 0.500040 0.346380 -0.581900
O8    O     O_R   0.671600 0.500010 0.346380 -0.626547
O9    O     O_3   0.246874 0.120012 0.637364 -0.707342
Zn1   Zn    Zn3+2 0.346870 0.500020 0.500000 1.003338
Zn2   Zn    Zn3+2 0.653130 0.499980 0.500000 0.954344

loop_
_geom_bond_atom_site_label_1
_geom_bond_atom_site_label_2
_ccdc_geom_bond_type
C12   C21   A    
Br2   C25   S    
C7    O9    S    
C19   H14   S    
C7    C8    A    
C6    C15   S    
C17   H12   S    
C8    H8    S    
C21   H2    S    
C15   O5    A    
C10   H9    S    
C5    H7    S    
C26   H4    S    
C5    C6    A    
N2    Zn2   S    
H6    O9    S    
C18   C28   A    
C19   C20   A    
C4    O4    A    
C11   N1    A    
C2    C19   A    
C17   C28   A    
C24   C25   A    
C20   H3    S    
C3    H5    S    
C15   O6    A    
C1    O1    A    
C3    C9    A    
C16   C18   S    
C18   C27   A    
C12   C23   A    
C23   C27   A    
C28   H1    S    
C2    C22   A    
C13   H10   S    
C2    C4    S    
C1    C9    S    
C8    C9    A    
C16   O8    A    
C12   C22   A    
C13   C14   A    
O3    Zn1   S    
C1    O2    A    
O2    Zn2   S    
Br1   C11   S    
C10   C11   A    
C10   N2    A    
O5    Zn1   S    
O6    Zn2   S    
O7    Zn1   S    
C14   N2    A    
C25   C26   A    
C3    C5    A    
C17   C24   A    
C13   N1    A    
C20   C21   A    
C6    C7    A    
C16   O7    A    
C23   C24   A    
O4    Zn2   S    
C14   H11   S    
C27   H13   S    
C4    O3    A    
C22   C26   A    
N1    Zn1   S    
O1    Zn1   S    
O8    Zn2   S    
