data_mof_unit_1866.cif
_audit_creation_date              2012-12-11T16:33:22-0500
_audit_creation_method            fapswitch 2.2
_symmetry_space_group_name_H-M    P1
_symmetry_Int_Tables_number       1
_space_group_crystal_system       triclinic
_cell_length_a                    6.963877
_cell_length_b                    18.28505
_cell_length_c                    20.172753
_cell_angle_alpha                 68.555722
_cell_angle_beta                  90.449651
_cell_angle_gamma                 90.831701
_cell_volume                      2390.61190615

loop_
_atom_site_label
_atom_site_type_symbol
_atom_type_description
_atom_site_fract_x
_atom_site_fract_y
_atom_site_fract_z
_atom_type_partial_charge
O1    O     O_R   0.488960 0.443750 0.941980 -0.544730
O2    O     O_R   0.823890 0.406510 0.087590 -0.537291
O3    O     O_R   0.999680 0.556250 0.058020 -0.524362
C1    C     C_R   0.653397 0.381003 0.113595 0.730737
O4    O     O_R   0.818360 0.434410 0.944340 -0.541145
O5    O     O_R   0.994110 0.584350 0.913750 -0.539226
C2    C     C_R   0.650185 0.424620 0.920426 0.715994
O6    O     O_R   0.494530 0.415650 0.086250 -0.536433
O7    O     O_3   0.662590 0.549160 0.990130 -0.353249
V1    V     V_3+5 0.935320 0.490880 0.001830 1.448801
O8    O     O_R   0.324180 0.593490 0.912410 -0.539420
C3    C     C_R   0.155363 0.616210 0.884765 0.683336
O9    O     O_R   0.329720 0.565590 0.055660 -0.522458
C4    C     C_R   0.162752 0.578754 0.076923 0.728957
V2    V     V_3+5 0.435990 0.509120 0.998170 1.460039
O10   O     O_3   0.158850 0.450840 0.009870 -0.378413
C5    C     C_3   0.044854 0.700230 0.314979 0.140076
C6    C     C_3   0.236635 0.676127 0.291000 -0.138655
H1    H     H_    0.315452 0.621356 0.319972 0.161210
C7    C     C_1   0.160551 0.621958 0.124671 -0.149477
C8    C     C_1   0.107960 0.871908 0.380680 -0.197827
C9    C     C_3   0.963310 0.724072 0.238188 -0.138905
C10   C     C_3   0.156603 0.701756 0.213888 0.023760
C11   C     C_3   0.043455 0.808674 0.221513 0.090106
C12   C     C_3   0.121310 0.784503 0.298262 0.127073
C13   C     C_3   0.235018 0.785852 0.197293 -0.020631
C14   C     C_3   0.312306 0.761208 0.274194 0.109114
C15   C     C_1   0.161327 0.657556 0.165128 0.001425
C16   C     C_1   0.111222 0.832158 0.343923 -0.025746
H2    H     H_    0.822825 0.706630 0.221818 0.148920
C17   C     C_R   0.053605 0.768303 0.882983 -0.142097
C18   C     C_R   0.014308 0.840670 0.886611 -0.139841
C19   C     C_R   0.025278 0.907856 0.826055 -0.062119
C20   C     C_R   0.071058 0.904234 0.759651 0.118213
C21   C     C_R   0.095398 0.828930 0.753026 0.050032
C22   C     C_R   0.096593 0.760608 0.817477 0.043836
C23   C     C_R   0.122292 0.818682 0.686297 -0.149416
C24   C     C_R   0.168550 0.743083 0.686077 0.024935
C25   C     C_R   0.183003 0.677427 0.751011 0.023779
C26   C     C_R   0.144829 0.685812 0.816643 -0.143364
C27   C     C_R   0.203158 0.731785 0.621387 -0.175984
C28   C     C_R   0.255428 0.658593 0.620153 0.202474
C29   C     C_R   0.270639 0.593838 0.684617 0.206264
C30   C     C_R   0.233186 0.603617 0.748956 -0.191145
H3    H     H_    0.050128 0.718354 0.932661 0.109585
H4    H     H_    0.980856 0.844990 0.937380 0.138870
H5    H     H_    0.001466 0.963757 0.831654 0.137475
H6    H     H_    0.191608 0.780083 0.570794 0.111866
H7    H     H_    0.244560 0.552629 0.797637 0.114957
H8    H     H_    0.681049 0.349676 0.434168 0.124100
C31   C     C_R   0.576875 0.089448 0.248895 0.115317
C32   C     C_R   0.487031 0.079347 0.190258 0.178879
C33   C     C_R   0.471867 0.142924 0.127356 -0.133234
C34   C     C_R   0.543153 0.216879 0.120894 0.100145
C35   C     C_R   0.595322 0.233633 0.183247 0.028673
C36   C     C_R   0.601159 0.167659 0.249616 -0.015027
C37   C     C_R   0.637788 0.312012 0.182358 -0.160977
C38   C     C_R   0.653508 0.324916 0.248574 0.014150
C39   C     C_R   0.649252 0.258336 0.313903 0.066201
C40   C     C_R   0.625098 0.181082 0.314444 -0.144046
C41   C     C_R   0.665104 0.401938 0.253589 -0.101720
C42   C     C_R   0.670116 0.409619 0.320732 -0.011011
C43   C     C_R   0.674716 0.343790 0.382610 -0.169761
C44   C     C_R   0.665948 0.269694 0.379506 -0.143221
H9    H     H_    0.414284 0.133191 0.081068 0.136045
H10   H     H_    0.667772 0.221194 0.430206 0.103391
O11   O     O_R   0.770540 0.084530 0.414050 -0.540144
O12   O     O_R   0.445710 0.065660 0.555720 -0.535505
O13   O     O_R   0.270420 0.915650 0.586190 -0.537394
C45   C     C_R   0.614561 0.079697 0.576302 0.715812
O14   O     O_R   0.441140 0.093540 0.412470 -0.537247
O15   O     O_R   0.265820 0.943740 0.441930 -0.540299
C46   C     C_R   0.610398 0.114875 0.384304 0.713024
O16   O     O_R   0.775150 0.056440 0.558310 -0.541139
O17   O     O_3   0.602370 0.950960 0.510050 -0.368379
V3    V     V_3+5 0.329450 0.009140 0.498150 1.425703
O18   O     O_R   0.935790 0.934280 0.444060 -0.537577
C47   C     C_R   0.103356 0.919635 0.424316 0.720423
O19   O     O_R   0.940370 0.906390 0.587310 -0.538150
C48   C     C_R   0.109153 0.885605 0.616408 0.706719
V4    V     V_3+5 0.828810 0.990710 0.501460 1.415820
O20   O     O_3   0.105780 0.049100 0.489960 -0.364411
C49   C     C_3   0.730616 0.319364 0.714803 0.137449
C50   C     C_3   0.542650 0.293687 0.687474 -0.116561
H11   H     H_    0.466016 0.327916 0.637513 0.138053
H12   H     H_    0.310819 0.280813 0.777844 0.132886
C51   C     C_1   0.621418 0.125550 0.621542 -0.171153
C52   C     C_1   0.643873 0.379237 0.874709 -0.185961
C53   C     C_3   0.812498 0.236405 0.732849 -0.032961
C54   C     C_3   0.625608 0.210290 0.706365 0.033166
C55   C     C_3   0.729213 0.210874 0.808759 0.072162
C56   C     C_3   0.645889 0.293896 0.790535 0.118653
C57   C     C_3   0.542239 0.184815 0.782028 -0.005891
C58   C     C_3   0.457284 0.267780 0.764142 -0.196908
C59   C     C_1   0.622181 0.163737 0.659666 0.002697
C60   C     C_1   0.645225 0.340861 0.836758 -0.028305
C61   C     C_3   0.106781 0.982490 0.700593 -0.734044
H13   H     H_    0.104627 0.032184 0.719820 0.217701
H14   H     H_    0.251287 0.983693 0.677590 0.211729
H15   H     H_    0.993053 0.994232 0.659881 0.214489
C62   C     C_3   0.295758 0.650667 0.549743 -0.794937
H16   H     H_    0.446636 0.632447 0.548503 0.217557
H17   H     H_    0.197581 0.605919 0.542322 0.212084
H18   H     H_    0.274855 0.706871 0.504142 0.202648
C63   C     C_3   0.668427 0.017843 0.303690 -0.721035
H19   H     H_    0.811599 0.034028 0.318760 0.206393
H20   H     H_    0.573455 0.991090 0.350410 0.213824
H21   H     H_    0.699640 0.971689 0.282022 0.195508
C64   C     C_3   0.415020 0.000591 0.191862 -0.788333
H22   H     H_    0.311181 0.007298 0.148069 0.211161
H23   H     H_    0.536268 0.965820 0.184621 0.218493
H24   H     H_    0.340222 0.968626 0.242877 0.216671
C65   C     C_3   0.557122 0.273362 0.045836 -0.761665
H25   H     H_    0.537565 0.244773 0.006109 0.189774
H26   H     H_    0.440325 0.316225 0.035858 0.230819
H27   H     H_    0.703727 0.299042 0.036479 0.199638
C66   C     C_3   0.945294 0.651239 0.384015 -0.741214
H28   H     H_    0.947315 0.588342 0.390739 0.232136
H29   H     H_    0.022846 0.658341 0.429484 0.199591
H30   H     H_    0.795336 0.670578 0.383718 0.223858
C67   C     C_1   0.665022 0.475468 0.192974 0.268876
N1    N     N_1   0.665093 0.535347 0.145993 -0.304310
C68   C     C_1   0.662154 0.485577 0.327564 0.285956
N2    N     N_1   0.653645 0.546484 0.332473 -0.392626
C69   C     C_3   0.843780 0.394814 0.677566 -0.800230
H31   H     H_    0.888056 0.397694 0.623937 0.213042
H32   H     H_    0.754399 0.446258 0.672218 0.214817
H33   H     H_    0.973368 0.395731 0.709596 0.212534
C70   C     C_1   0.437909 0.110923 0.819111 0.342555
N3    N     N_1   0.355631 0.052679 0.848336 -0.359195
C71   C     C_3   0.836804 0.164572 0.876781 -0.762125
H34   H     H_    0.879757 0.106985 0.875270 0.220848
H35   H     H_    0.967234 0.197953 0.881517 0.211418
H36   H     H_    0.742762 0.154819 0.923486 0.215644
C72   C     C_1   0.999464 0.217039 0.711150 0.291992
N4    N     N_1   0.144113 0.201032 0.692578 -0.376669
C73   C     C_3   0.504342 0.781158 0.299599 -0.790292
H37   H     H_    0.620186 0.761180 0.273963 0.224921
H38   H     H_    0.517792 0.845267 0.286167 0.208278
H39   H     H_    0.514844 0.751427 0.358260 0.216631
C74   C     C_1   0.342843 0.832890 0.133313 0.313446
N5    N     N_1   0.428003 0.869990 0.082927 -0.349239
C75   C     C_3   0.932381 0.882887 0.181831 -0.771312
H40   H     H_    0.890180 0.883823 0.128375 0.231927
H41   H     H_    0.802342 0.884179 0.212351 0.208527
H42   H     H_    0.022021 0.935326 0.176050 0.213113
C76   C     C_3   0.327408 0.514203 0.685576 -0.796850
H43   H     H_    0.223065 0.493682 0.654137 0.215398
H44   H     H_    0.472083 0.518273 0.661936 0.212981
H45   H     H_    0.331859 0.469493 0.740486 0.204716

loop_
_geom_bond_atom_site_label_1
_geom_bond_atom_site_label_2
_ccdc_geom_bond_type
C30   H7    S    
C75   H42   S    
C35   C36   A    
C52   C60   T    
C57   C58   S    
C53   C72   S    
C27   C28   A    
C76   H43   S    
C1    O6    A    
C71   H36   S    
C61   H13   S    
C68   N2    T    
O18   C47   A    
C49   C56   S    
C63   H20   S    
C13   C14   S    
C62   H16   S    
C49   C50   S    
C76   H44   S    
C11   C13   S    
C20   C21   A    
C64   H23   S    
O5    C3    A    
O14   V3    S    
C55   C71   S    
C11   C75   S    
V2    O10   S    
C34   C65   S    
C40   C46   S    
C56   C60   S    
C20   C61   S    
O13   V3    S    
C41   C67   S    
C6    H1    S    
C10   C13   S    
O15   C47   A    
H12   C58   S    
C61   H14   S    
C65   H25   S    
O8    V2    S    
C17   C18   A    
C51   C59   T    
C1    C37   S    
C45   O16   A    
C69   H33   S    
O11   C46   A    
O18   V4    S    
C53   C55   S    
C13   C74   S    
C33   H9    S    
O7    V1    S    
C17   C22   A    
C5    C66   S    
C65   H27   S    
C38   C41   A    
C39   C40   A    
C62   H17   S    
O9    C4    A    
H8    C43   S    
C50   C54   S    
C49   C69   S    
C57   C70   S    
C45   C51   S    
C42   C68   S    
C23   C48   S    
V4    O20   S    
C12   C16   S    
C49   C53   S    
C73   H39   S    
C31   C32   A    
C4    C7    S    
C72   N4    T    
C76   H45   S    
C50   H11   S    
C24   C27   A    
C64   H22   S    
C64   H24   S    
V3    O20   S    
C55   C56   S    
O19   V4    S    
O17   V4    S    
C50   C58   S    
C7    C15   T    
C38   C39   A    
C33   C34   A    
C8    C16   T    
C6    C10   S    
C21   C22   A    
C44   H10   S    
C3    C26   S    
O2    C1    A    
O17   V3    S    
C23   C24   A    
C55   C57   S    
C73   H38   S    
C2    C52   S    
O9    V2    S    
C22   C26   A    
C31   C63   S    
C42   C43   A    
C56   C58   S    
C5    C6    S    
C39   C44   A    
O15   V3    S    
C14   C73   S    
C10   C15   S    
C11   C12   S    
C8    C47   S    
C67   N1    T    
O3    C4    A    
O1    V2    S    
O11   V4    S    
O6    V2    S    
C35   C37   A    
C29   C30   A    
C69   H31   S    
C19   H5    S    
C9    C11   S    
O19   C48   A    
C66   H30   S    
O12   V3    S    
C28   C29   A    
O16   V4    S    
C71   H34   S    
O2    V1    S    
C28   C62   S    
C25   C26   A    
C61   H15   S    
C32   C33   A    
C54   C57   S    
O4    C2    A    
C70   N3    T    
C73   H37   S    
C75   H41   S    
C34   C35   A    
C9    H2    S    
C21   C23   A    
O1    C2    A    
C18   H4    S    
C6    C14   S    
C31   C36   A    
C71   H35   S    
C54   C59   S    
O5    V1    S    
O8    C3    A    
C25   C30   A    
C12   C14   S    
C63   H19   S    
C5    C9    S    
C5    C12   S    
C18   C19   A    
C66   H29   S    
O7    V2    S    
O4    V1    S    
O3    V1    S    
V1    O10   S    
C74   N5    T    
C37   C38   A    
C24   C25   A    
C32   C64   S    
C27   H6    S    
C19   C20   A    
C41   C42   A    
C29   C76   S    
C43   C44   A    
C36   C40   A    
O12   C45   A    
C17   H3    S    
O14   C46   A    
C63   H21   S    
C69   H32   S    
C9    C10   S    
O13   C48   A    
C62   H18   S    
C53   C54   S    
C66   H28   S    
C75   H40   S    
C65   H26   S    
