data_mof_unit_3651.cif
_audit_creation_date              2012-12-10T20:52:42-0500
_audit_creation_method            fapswitch 2.2
_symmetry_space_group_name_H-M    P1
_symmetry_Int_Tables_number       1
_space_group_crystal_system       triclinic
_cell_length_a                    8.663044
_cell_length_b                    15.799159
_cell_length_c                    15.080479
_cell_angle_alpha                 89.662657
_cell_angle_beta                  98.409141
_cell_angle_gamma                 90.122232
_cell_volume                      2041.81958663

loop_
_atom_site_label
_atom_site_type_symbol
_atom_type_description
_atom_site_fract_x
_atom_site_fract_y
_atom_site_fract_z
_atom_type_partial_charge
C1    C     C_R   0.500230 0.338766 0.500341 0.887759
C2    C     C_R   0.500238 0.661246 0.499806 0.896144
C3    C     C_R   0.498424 0.500281 0.904906 0.041120
C4    C     C_R   0.501677 0.500540 0.095079 0.040139
C5    C     C_R   0.639924 0.500529 0.964114 -0.250419
C6    C     C_R   0.360180 0.500438 0.035861 -0.249378
C7    C     C_1   0.499495 0.500147 0.807060 0.079438
C8    C     C_1   0.500571 0.500224 0.192937 0.082300
C9    C     C_R   0.201179 0.499784 0.477142 0.935459
C10   C     C_R   0.798832 0.499813 0.522830 0.933440
C11   C     C_2   0.038633 0.510928 0.465942 -0.106224
C12   C     C_2   0.961306 0.488145 0.533822 -0.108630
C13   C     C_R   0.499610 0.954077 0.584046 0.451268
C14   C     C_R   0.617514 0.045808 0.447514 0.478298
C15   C     C_R   0.550068 0.912742 0.511393 -0.093849
C16   C     C_R   0.549174 0.087282 0.513836 -0.089746
C17   C     C_R   0.612142 0.957636 0.444057 -0.070096
C18   C     C_R   0.492675 0.042884 0.583444 -0.064889
C19   C     C_1   0.531031 0.824055 0.504586 0.029521
C20   C     C_1   0.530488 0.176028 0.507735 0.070461
C21   C     C_1   0.514547 0.250514 0.503072 -0.185952
C22   C     C_1   0.514798 0.749539 0.500945 -0.197167
C23   C     C_R   0.357158 0.500173 0.941475 0.140958
C24   C     C_R   0.642946 0.500803 0.058503 0.141811
H1    H     H_    0.251361 0.500336 0.063331 0.135995
H2    H     H_    0.748736 0.500647 0.936636 0.135387
N1    N     N_1   0.499960 0.500020 0.270540 -0.088301
N2    N     N_1   0.500040 0.499980 0.729460 -0.089402
O1    O     O_R   0.500000 0.378020 0.573650 -0.610405
O2    O     O_R   0.500000 0.621980 0.426350 -0.613583
O3    O     O_R   0.500070 0.378020 0.426320 -0.603411
O4    O     O_R   0.499930 0.621980 0.573680 -0.613099
O5    O     O_R   0.271720 0.500000 0.556430 -0.584785
O6    O     O_R   0.728280 0.500000 0.443570 -0.585682
O7    O     O_R   0.271790 0.500000 0.409110 -0.636089
O8    O     O_R   0.728210 0.500000 0.590890 -0.636540
Zn1   Zn    Zn3+2 0.499950 0.500000 0.598370 0.975577
Zn2   Zn    Zn3+2 0.500050 0.500000 0.401630 0.979165
N3    N     N_3   0.965623 0.554375 0.386342 -0.431628
H3    H     H_    0.982605 0.518626 0.330437 0.207290
H4    H     H_    0.020898 0.612875 0.382114 0.172638
N4    N     N_3   0.034216 0.444188 0.613101 -0.432518
H5    H     H_    0.017398 0.479598 0.669266 0.207132
H6    H     H_    0.978672 0.385704 0.616898 0.172402
N5    N     N_3   0.426058 0.088777 0.651010 -0.443348
H7    H     H_    0.324451 0.118273 0.619736 0.194082
H8    H     H_    0.391003 0.048233 0.699181 0.214412
N6    N     N_3   0.665055 0.915055 0.370300 -0.426384
H9    H     H_    0.752860 0.872522 0.396002 0.182031
H10   H     H_    0.571836 0.880559 0.336237 0.205096
O9    O     O_3   0.440142 0.907183 0.649349 -0.638813
C25   C     C_3   0.553348 0.900337 0.727059 0.060269
H11   H     H_    0.490142 0.901624 0.786055 0.170072
H12   H     H_    0.638156 0.954092 0.735716 0.127922
C26   C     C_3   0.641054 0.816174 0.727603 -0.328937
H13   H     H_    0.555864 0.763321 0.715113 0.250662
H14   H     H_    0.715426 0.816751 0.673549 0.215084
C27   C     C_3   0.744863 0.800975 0.817044 -0.949542
H15   H     H_    0.832190 0.852628 0.830553 0.265473
H16   H     H_    0.807588 0.739974 0.814800 0.269543
H17   H     H_    0.673220 0.797835 0.872348 0.265385
O10   O     O_3   0.670501 0.092042 0.379535 -0.617885
C28   C     C_3   0.835823 0.093346 0.392429 0.117879
H18   H     H_    0.873119 0.099360 0.325249 0.176328
H19   H     H_    0.889847 0.033871 0.422818 0.128383
C29   C     C_3   0.898186 0.169766 0.448987 -0.386067
H20   H     H_    0.840260 0.228416 0.419868 0.243555
H21   H     H_    0.871391 0.161790 0.518381 0.211941
C30   C     C_3   0.074435 0.179130 0.452589 -0.944249
H22   H     H_    0.134668 0.120595 0.480037 0.263467
H23   H     H_    0.116851 0.233079 0.496475 0.263076
H24   H     H_    0.103941 0.191558 0.384458 0.273007
N7    N     N_3   0.210910 0.500428 0.882548 -0.460095
H25   H     H_    0.117902 0.504352 0.919403 0.171156
H26   H     H_    0.200088 0.442111 0.849789 0.181439
N8    N     N_3   0.789197 0.500646 0.117427 -0.457745
H27   H     H_    0.882215 0.496925 0.080559 0.171912
H28   H     H_    0.799772 0.558926 0.150266 0.178976

loop_
_geom_bond_atom_site_label_1
_geom_bond_atom_site_label_2
_ccdc_geom_bond_type
C2    C22   S    
C30   H24   S    
C29   H21   S    
C11   C12   D    
C28   H19   S    
C1    C21   S    
O10   C28   S    
N3    H4    S    
C9    C11   S    
N7    H25   S    
C3    C23   A    
C12   N4    S    
O3    Zn2   S    
C4    C8    S    
C16   C20   S    
C17   N6    S    
C24   N8    S    
O7    Zn2   S    
C27   H17   S    
C1    O1    A    
C29   H20   S    
C28   C29   S    
C9    O5    A    
C10   O6    A    
C16   C18   A    
C13   O9    S    
N5    H7    S    
N8    H27   S    
C15   C19   S    
N6    H10   S    
N7    H26   S    
C14   C17   A    
C20   C21   T    
C5    C24   A    
C10   C12   S    
N2    Zn1   S    
C23   N7    S    
C6    C23   A    
C13   C18   A    
C4    C6    A    
O8    Zn1   S    
C25   C26   S    
N8    H28   S    
C3    C7    S    
C26   H14   S    
C13   C15   A    
C30   H22   S    
C4    C24   A    
N4    H6    S    
C14   C16   A    
C26   H13   S    
C6    H1    S    
O4    Zn1   S    
N4    H5    S    
C15   C17   A    
N1    Zn2   S    
C27   H16   S    
O9    C25   S    
C29   C30   S    
C18   N5    S    
C11   N3    S    
C1    O3    A    
C19   C22   T    
C2    O2    A    
C25   H11   S    
O2    Zn2   S    
C2    O4    A    
N5    H8    S    
C26   C27   S    
O1    Zn1   S    
N3    H3    S    
C30   H23   S    
C8    N1    T    
N6    H9    S    
C9    O7    A    
C10   O8    A    
C27   H15   S    
O6    Zn2   S    
O5    Zn1   S    
C7    N2    T    
C5    H2    S    
C25   H12   S    
C28   H18   S    
C3    C5    A    
C14   O10   S    
