data_mof_unit_3228.cif
_audit_creation_date              2012-12-10T17:49:35-0500
_audit_creation_method            fapswitch 2.2
_symmetry_space_group_name_H-M    P1
_symmetry_Int_Tables_number       1
_space_group_crystal_system       triclinic
_cell_length_a                    10.48875
_cell_length_b                    10.720416
_cell_length_c                    9.925604
_cell_angle_alpha                 89.383997
_cell_angle_beta                  89.149121
_cell_angle_gamma                 92.1037
_cell_volume                      1115.12581183

loop_
_atom_site_label
_atom_site_type_symbol
_atom_type_description
_atom_site_fract_x
_atom_site_fract_y
_atom_site_fract_z
_atom_type_partial_charge
C1    C     C_R   0.508858 0.260234 0.501473 0.850899
C2    C     C_3   0.962446 0.500786 0.370981 -0.099156
C3    C     C_3   0.039741 0.397181 0.436653 -0.201447
C4    C     C_3   0.122381 0.499045 0.502349 0.029419
C5    C     C_R   0.540860 0.109700 0.757259 -0.162568
C6    C     C_R   0.504832 0.047559 0.876787 -0.140572
C7    C     C_R   0.436055 0.934545 0.871941 -0.171344
C8    C     C_R   0.414954 0.878085 0.748049 -0.159913
C9    C     C_R   0.462966 0.934869 0.626922 0.098470
C10   C     C_R   0.507629 0.059072 0.630313 0.097428
C11   C     C_R   0.515728 0.126395 0.506115 -0.122351
C12   C     C_R   0.257477 0.499273 0.500904 0.837489
C13   C     C_R   0.508381 0.064311 0.383156 -0.225098
C14   C     C_R   0.491426 0.937270 0.381664 -0.202604
C15   C     C_R   0.472333 0.871557 0.502737 -0.140960
C16   C     C_R   0.337900 0.329931 0.143980 -0.158111
C17   C     C_R   0.258147 0.246476 0.075633 -0.214866
C18   C     C_R   0.257619 0.247429 0.936146 -0.181051
C19   C     C_R   0.337185 0.331550 0.864149 -0.154620
C20   C     C_R   0.421338 0.415434 0.929882 0.150736
C21   C     C_R   0.421727 0.414913 0.074420 0.135424
C22   C     C_R   0.569376 0.586957 0.067201 0.023348
C23   C     C_R   0.487491 0.738867 0.500283 0.893032
C24   C     C_R   0.569574 0.585090 0.924647 -0.203116
C25   C     C_R   0.742554 0.500132 0.499113 0.895192
C26   C     C_3   0.037721 0.497787 0.629026 -0.145750
C27   C     C_3   0.952297 0.395961 0.563210 -0.192383
C28   C     C_3   0.877730 0.499607 0.497655 0.024994
C29   C     C_3   0.960463 0.601414 0.563349 -0.168118
C30   C     C_3   0.047818 0.602623 0.436790 -0.162105
H1    H     H_    0.908457 0.311914 0.614277 0.133311
H2    H     H_    0.402483 0.888758 0.964239 0.129759
H3    H     H_    0.360154 0.790624 0.748224 0.160703
H4    H     H_    0.494978 0.890677 0.285426 0.163120
H5    H     H_    0.328598 0.327012 0.250869 0.204474
H6    H     H_    0.194807 0.182062 0.131461 0.146608
H7    H     H_    0.194211 0.183512 0.883232 0.150576
H8    H     H_    0.328768 0.329591 0.757401 0.207507
H9    H     H_    0.625908 0.654245 0.867100 0.155443
H10   H     H_    0.072627 0.496385 0.734092 0.148312
H11   H     H_    0.923314 0.684520 0.614522 0.136916
H12   H     H_    0.091652 0.686679 0.385742 0.134872
H13   H     H_    0.927814 0.501960 0.265827 0.167144
H14   H     H_    0.077083 0.314194 0.385382 0.129696
H15   H     H_    0.516638 0.113582 0.287316 0.172151
H16   H     H_    0.597669 0.195140 0.766556 0.166193
H17   H     H_    0.527652 0.088672 0.973052 0.141019
N1    N     N_R   0.498800 0.498800 0.142780 -0.133221
N2    N     N_R   0.498760 0.498720 0.857170 -0.123344
O1    O     O_R   0.500000 0.316780 0.614690 -0.652031
O2    O     O_R   0.499990 0.316750 0.385360 -0.644330
O3    O     O_R   0.313960 0.499980 0.614650 -0.650456
O4    O     O_R   0.313940 0.499960 0.385310 -0.643145
O5    O     O_R   0.500010 0.683250 0.614640 -0.628853
O6    O     O_R   0.500000 0.683220 0.385310 -0.590898
O7    O     O_R   0.686060 0.500040 0.614690 -0.626658
O8    O     O_R   0.686040 0.500020 0.385350 -0.558736
Zn1   Zn    Zn3+2 0.500010 0.500020 0.653130 0.919125
Zn2   Zn    Zn3+2 0.499990 0.499980 0.346870 0.965370
C31   C     C_2   0.640334 0.693152 0.127533 0.427766
H18   H     H_    0.634597 0.785278 0.081931 0.012643
O9    O     O_2   0.712860 0.679307 0.220497 -0.551336

loop_
_geom_bond_atom_site_label_1
_geom_bond_atom_site_label_2
_ccdc_geom_bond_type
C14   H4    S    
C22   N1    A    
C23   O6    A    
C16   C21   A    
C17   H6    S    
O6    Zn2   S    
C26   C29   S    
C4    C12   S    
C20   N2    A    
C1    O2    A    
C5    H16   S    
C4    C26   S    
C19   C20   A    
C1    C11   S    
C25   O7    A    
C2    H13   S    
C2    C30   S    
C21   N1    A    
C10   C11   A    
C3    C27   S    
C17   C18   A    
O4    Zn2   S    
C7    C8    A    
C13   C14   A    
C25   C28   S    
C13   H15   S    
C11   C13   A    
C26   H10   S    
C26   C27   S    
C29   C30   S    
O3    Zn1   S    
C23   O5    A    
C15   C23   S    
C28   C29   S    
C12   O3    A    
C18   H7    S    
O7    Zn1   S    
C1    O1    A    
C2    C3    S    
C6    C7    A    
C8    H3    S    
C16   H5    S    
O5    Zn1   S    
C5    C6    A    
C22   C24   A    
C3    H14   S    
O8    Zn2   S    
O2    Zn2   S    
C6    H17   S    
C27   H1    S    
C3    C4    S    
O1    Zn1   S    
C16   C17   A    
C25   O8    A    
C5    C10   A    
C24   H9    S    
C20   C21   A    
N1    Zn2   S    
C31   O9    D    
C18   C19   A    
C9    C10   A    
C24   N2    A    
C19   H8    S    
C30   H12   S    
C2    C28   S    
C7    H2    S    
C29   H11   S    
C14   C15   A    
C22   C31   S    
C31   H18   S    
C4    C30   S    
N2    Zn1   S    
C12   O4    A    
C9    C15   A    
C8    C9    A    
C27   C28   S    
