data_mof_unit_3968.cif
_audit_creation_date              2013-03-05T16:06:55-0500
_audit_creation_method            fapswitch 2.2
_symmetry_space_group_name_H-M    P1
_symmetry_Int_Tables_number       1
_space_group_crystal_system       triclinic
_cell_length_a                    10.873252
_cell_length_b                    9.639637
_cell_length_c                    10.904567
_cell_angle_alpha                 89.713033
_cell_angle_beta                  94.706431
_cell_angle_gamma                 88.41581
_cell_volume                      1138.63390169

loop_
_atom_site_label
_atom_site_type_symbol
_atom_site_description
_atom_site_fract_x
_atom_site_fract_y
_atom_site_fract_z
_atom_type_partial_charge
O1    O     O_R   0.319640 0.618740 0.499990 -0.534919
O2    O     O_R   0.680360 0.618740 0.500010 -0.523179
O3    O     O_R   0.319620 0.381170 0.499990 -0.616497
O4    O     O_R   0.680380 0.381170 0.500010 -0.621803
C1    C     C_R   0.262992 0.501698 0.508799 0.808102
C2    C     C_R   0.737114 0.498790 0.494604 0.780156
O5    O     O_R   0.499990 0.618810 0.319660 -0.551781
O6    O     O_R   0.500010 0.618810 0.680340 -0.493593
O7    O     O_R   0.499960 0.381240 0.319650 -0.552920
O8    O     O_R   0.500040 0.381240 0.680350 -0.568603
C3    C     C_R   0.505543 0.500271 0.262935 0.762926
C4    C     C_R   0.501457 0.499116 0.737547 0.798142
Cu1   Cu    Cu3+1 0.500000 0.640660 0.500000 1.059654
Cu2   Cu    Cu3+1 0.500000 0.359340 0.500000 0.966264
C5    C     C_R   0.527617 0.623561 0.063300 -0.113474
C6    C     C_R   0.513641 0.619672 0.936130 -0.034938
C7    C     C_R   0.522922 0.499851 0.131177 -0.098409
C8    C     C_R   0.511907 0.496214 0.871584 -0.056653
C9    C     C_R   0.531518 0.373112 0.067857 -0.192089
C10   C     C_R   0.527132 0.371385 0.939127 -0.218546
H1    H     H_    0.534342 0.275053 0.116690 0.214234
H2    H     H_    0.528531 0.272361 0.893211 0.220632
C11   C     C_3   0.424895 0.740834 0.926698 0.290104
C12   C     C_3   0.448745 0.755685 0.065406 0.182682
H3    H     H_    0.460701 0.828382 0.875011 0.194941
H4    H     H_    0.365830 0.744850 0.114856 0.169618
C13   C     C_R   0.068128 0.377240 0.513731 -0.222614
C14   C     C_R   0.940540 0.374786 0.506996 -0.229982
H5    H     H_    0.118990 0.279041 0.515459 0.187174
H6    H     H_    0.896535 0.275669 0.506761 0.183715
C15   C     C_R   0.871343 0.498863 0.493575 -0.183508
C16   C     C_R   0.128837 0.504181 0.519564 -0.176451
C17   C     C_R   0.931667 0.625878 0.488309 0.296706
C18   C     C_R   0.057937 0.629770 0.524138 0.193523
C19   C     C_R   0.442460 0.076705 0.403257 0.363752
C20   C     C_R   0.559692 0.070752 0.597295 0.343118
C21   C     C_R   0.438924 0.928848 0.406039 0.377079
C22   C     C_R   0.559608 0.921026 0.596077 0.465102
N1    N     N_R   0.500000 0.852070 0.500000 -0.265492
N2    N     N_R   0.500000 0.147940 0.500000 -0.283930
O9    O     O_3   0.301770 0.710427 0.880183 -0.523939
C23   C     C_3   0.241352 0.605161 0.942436 0.069504
H7    H     H_    0.168363 0.654716 0.993523 0.149901
H8    H     H_    0.301569 0.541385 0.008401 0.117974
C24   C     C_3   0.178332 0.507138 0.849669 -0.698735
H9    H     H_    0.246003 0.463063 0.788660 0.238802
H10   H     H_    0.137671 0.420651 0.898906 0.183915
H11   H     H_    0.102850 0.563069 0.793343 0.256447
O10   O     O_3   0.508696 0.883502 0.091994 -0.559929
C25   C     C_3   0.629177 0.866686 0.150265 0.196938
H12   H     H_    0.690545 0.809782 0.089660 0.145298
H13   H     H_    0.627086 0.811462 0.239565 0.223426
C26   C     C_3   0.684203 0.008275 0.174349 -0.739019
H14   H     H_    0.632402 0.066251 0.241795 0.261055
H15   H     H_    0.781827 0.995625 0.212204 0.241311
H16   H     H_    0.681034 0.068705 0.087281 0.220711
N3    N     N_R   0.872579 0.740517 0.420308 0.146030
O11   O     O_R   0.821291 0.843278 0.475747 -0.374862
O12   O     O_R   0.855934 0.732125 0.301202 -0.450097
N4    N     N_R   0.108678 0.755906 0.575228 0.089796
O13   O     O_R   0.201616 0.750454 0.657851 -0.310673
O14   O     O_R   0.053284 0.875823 0.553186 -0.365268
O15   O     O_3   0.410458 0.143170 0.291511 -0.538877
C27   C     C_3   0.288319 0.199374 0.282653 0.165374
H17   H     H_    0.289897 0.313628 0.289232 0.170351
H18   H     H_    0.230899 0.163547 0.355821 0.091551
C28   C     C_3   0.226991 0.170547 0.154741 -0.816796
H19   H     H_    0.127426 0.200704 0.150833 0.201704
H20   H     H_    0.271191 0.232141 0.084869 0.244161
H21   H     H_    0.236863 0.059231 0.131029 0.281925
O16   O     O_3   0.601913 0.133949 0.707167 -0.578054
C29   C     C_3   0.719962 0.192628 0.700850 0.115557
H22   H     H_    0.707746 0.305666 0.693841 0.206917
H23   H     H_    0.771145 0.152523 0.623486 0.135282
C30   C     C_3   0.801148 0.175711 0.821886 -0.918646
H24   H     H_    0.863509 0.082955 0.820553 0.238781
H25   H     H_    0.861985 0.266133 0.835788 0.228147
H26   H     H_    0.743739 0.170018 0.901116 0.262469
O17   O     O_3   0.374717 0.861722 0.310389 -0.540827
C31   C     C_3   0.249224 0.856067 0.334611 0.133876
H27   H     H_    0.198374 0.953276 0.310001 0.142884
H28   H     H_    0.239573 0.838578 0.432516 0.208454
C32   C     C_3   0.184379 0.743663 0.258856 -0.808465
H29   H     H_    0.094070 0.723517 0.293973 0.253082
H30   H     H_    0.166076 0.781006 0.162802 0.215966
H31   H     H_    0.240432 0.645548 0.262014 0.222824
O18   O     O_3   0.598233 0.842397 0.699918 -0.557645
C33   C     C_3   0.719706 0.866124 0.748431 0.122075
H32   H     H_    0.713585 0.928061 0.832956 0.185347
H33   H     H_    0.776504 0.917365 0.682471 0.189261
C34   C     C_3   0.785295 0.729877 0.788875 -0.786937
H34   H     H_    0.787950 0.657605 0.710780 0.248523
H35   H     H_    0.881686 0.750113 0.824657 0.217055
H36   H     H_    0.737906 0.680364 0.863107 0.227850

loop_
_geom_bond_atom_site_label_1
_geom_bond_atom_site_label_2
_geom_bond_distance
_ccdc_geom_bond_type
O18   C33   1.407109 S    
O6    Cu1   1.976719 S    
C13   H5    1.082333 S    
O9    C23   1.423104 S    
C9    C10   1.400829 A    
O7    Cu2   1.976850 S    
C26   H14   1.106871 S    
O5    C3    1.304359 A    
C21   O17   1.380662 S    
O1    C1    1.307128 A    
C9    H1    1.081056 S    
C12   H4    1.094944 S    
C31   C32   1.519608 S    
C22   N1    1.370737 A    
N3    O12   1.299792 A    
C5    C6    1.383402 A    
N4    O14   1.300681 A    
O2    Cu1   1.966624 S    
C25   H13   1.109621 S    
C11   C12   1.521651 S    
C15   C17   1.408018 A    
C20   O16   1.396369 S    
C1    C16   1.472541 S    
C26   H15   1.110170 S    
C2    C15   1.460488 S    
Cu1   Cu2   2.711823 S    
C18   N4    1.444518 S    
O2    C2    1.299403 A    
C23   H8    1.104582 S    
C29   C30   1.531843 S    
C17   C18   1.397874 A    
C24   H10   1.110692 S    
C25   C26   1.520778 S    
C28   H19   1.110513 S    
C27   C28   1.526075 S    
C20   N2    1.397465 A    
C29   H23   1.113234 S    
O8    Cu2   1.978953 S    
C34   H34   1.104661 S    
C31   H27   1.095583 S    
C24   H11   1.109521 S    
C24   H9    1.109226 S    
O17   C31   1.413416 S    
N4    O13   1.297248 A    
C28   H20   1.111473 S    
C23   C24   1.522282 S    
C27   H18   1.112015 S    
C30   H24   1.108016 S    
C34   H35   1.110733 S    
C30   H25   1.112227 S    
C32   H29   1.104573 S    
C33   C34   1.522779 S    
O6    C4    1.307987 A    
C25   H12   1.112946 S    
O7    C3    1.306004 A    
O3    Cu2   1.966772 S    
O8    C4    1.298800 A    
C31   H28   1.093974 S    
C5    C12   1.516992 S    
C32   H30   1.106506 S    
C33   H33   1.108572 S    
C6    C11   1.491997 S    
O4    C2    1.309018 A    
O1    Cu1   1.978241 S    
C23   H7    1.105720 S    
C26   H16   1.109026 S    
C12   O10   1.429703 S    
C5    C7    1.404736 A    
C3    C7    1.464433 S    
C17   N3    1.434643 S    
C19   C21   1.427109 A    
C13   C16   1.405594 A    
C14   C15   1.395887 A    
C10   H2    1.080438 S    
C29   H22   1.095584 S    
O3    C1    1.307483 A    
C11   O9    1.430812 S    
C22   O18   1.388829 S    
C28   H21   1.109403 S    
C27   H17   1.104577 S    
C20   C22   1.443452 A    
C19   N2    1.377883 A    
O16   C29   1.423558 S    
C21   N1    1.375559 A    
C34   H36   1.107564 S    
N3    O11   1.299414 A    
C14   H6    1.080244 S    
C7    C9    1.410966 A    
C8    C10   1.406389 A    
C11   H3    1.109449 S    
O4    Cu2   1.978340 S    
C30   H26   1.108621 S    
Cu1   N1    2.037916 S    
Cu2   N2    2.037819 S    
O15   C27   1.416058 S    
O5    Cu1   1.978817 S    
C32   H31   1.109753 S    
C33   H32   1.106267 S    
C6    C8    1.385466 A    
O10   C25   1.413078 S    
C4    C8    1.456767 S    
C13   C14   1.384064 A    
C19   O15   1.388051 S    
C16   C18   1.420469 A    
