data_mof_unit_4709.cif
_audit_creation_date              2012-10-26T20:05:01-0400
_audit_creation_method            fapswitch 2.2
_symmetry_space_group_name_H-M    P1
_symmetry_Int_Tables_number       1
_space_group_crystal_system       triclinic
_cell_length_a                    15.860655
_cell_length_b                    15.05362
_cell_length_c                    13.697381
_cell_angle_alpha                 90.623705
_cell_angle_beta                  89.854586
_cell_angle_gamma                 89.029238
_cell_volume                      3269.71517519

loop_
_atom_site_label
_atom_site_type_symbol
_atom_type_description
_atom_site_fract_x
_atom_site_fract_y
_atom_site_fract_z
_atom_type_partial_charge
C1    C     C_R   0.502265 0.328857 0.499574 0.554380
C2    C     C_R   0.501652 0.046752 0.500180 0.047186
C3    C     C_R   0.427317 0.909948 0.537488 0.010281
C4    C     C_R   0.573473 0.090053 0.463334 0.007888
C5    C     C_R   0.639714 0.946087 0.428868 -0.137765
C6    C     C_R   0.361322 0.053895 0.572598 -0.138756
C7    C     C_R   0.642227 0.038362 0.428167 -0.136236
C8    C     C_R   0.358665 0.961627 0.572925 -0.135501
C9    C     C_R   0.554137 0.444605 0.792046 0.035923
C10   C     C_R   0.445671 0.555212 0.208000 0.036399
C11   C     C_R   0.445040 0.554134 0.794174 0.037024
C12   C     C_R   0.497996 0.671144 0.500442 0.554537
C13   C     C_R   0.553772 0.444622 0.205779 0.036933
C14   C     C_R   0.443502 0.555061 0.897076 -0.028646
C15   C     C_R   0.554203 0.442556 0.102887 -0.028747
C16   C     C_R   0.339662 0.499321 0.500043 0.558715
C17   C     C_R   0.660332 0.500660 0.499947 0.558543
C18   C     C_R   0.498651 0.498075 0.948164 0.036481
C19   C     C_R   0.498219 0.498650 0.051811 0.036439
C20   C     C_R   0.554300 0.440794 0.895471 -0.020980
C21   C     C_R   0.442205 0.555521 0.104519 -0.020415
C22   C     C_R   0.387723 0.611305 0.949377 -0.146066
C23   C     C_R   0.496324 0.767612 0.501348 -0.007087
C24   C     C_R   0.608887 0.385148 0.050584 -0.145571
C25   C     C_R   0.385705 0.611498 0.052277 -0.020802
C26   C     C_R   0.608838 0.382723 0.947693 -0.020934
C27   C     C_3   0.971820 0.436969 0.560162 -0.101285
C28   C     C_3   0.028129 0.562587 0.439769 -0.100714
C29   C     C_3   0.027905 0.419481 0.469020 -0.104607
C30   C     C_3   0.972062 0.580070 0.530901 -0.102612
C31   C     C_1   0.249937 0.497655 0.499980 -0.024968
C32   C     C_1   0.750049 0.502187 0.499959 -0.022565
C33   C     C_3   0.028047 0.515506 0.590811 -0.100583
C34   C     C_R   0.504183 0.232384 0.498845 -0.008968
C35   C     C_3   0.971916 0.484050 0.409108 -0.101135
C36   C     C_3   0.082616 0.498058 0.499683 0.051804
C37   C     C_3   0.917356 0.501511 0.500226 0.052460
C38   C     C_1   0.174344 0.497059 0.499720 -0.066749
C39   C     C_1   0.825639 0.502643 0.500176 -0.063866
C40   C     C_R   0.425728 0.816199 0.536876 -0.034197
C41   C     C_R   0.574712 0.183820 0.463032 -0.035957
C42   C     C_R   0.323562 0.670468 0.102972 0.017933
C43   C     C_R   0.260297 0.634454 0.161926 -0.104598
C44   C     C_R   0.203481 0.690435 0.212174 -0.116775
C45   C     C_R   0.566659 0.810869 0.465103 -0.145613
C46   C     C_R   0.208707 0.782539 0.202986 -0.109479
C47   C     C_R   0.270532 0.818788 0.143166 -0.111443
C48   C     C_R   0.327698 0.763032 0.093036 -0.096864
C49   C     C_R   0.665472 0.317833 0.897045 0.019120
C50   C     C_R   0.631890 0.250258 0.837924 -0.103750
C51   C     C_R   0.685533 0.190338 0.788458 -0.118002
C52   C     C_R   0.772891 0.196925 0.798331 -0.109168
C53   C     C_R   0.806710 0.263117 0.858155 -0.114646
C54   C     C_R   0.753264 0.323261 0.907699 -0.097935
C55   C     C_R   0.348559 0.769605 0.566633 0.029507
C56   C     C_R   0.434206 0.189094 0.535955 -0.149128
C57   C     C_R   0.285833 0.752271 0.497300 -0.101078
C58   C     C_R   0.209103 0.716815 0.526580 -0.114095
C59   C     C_R   0.195118 0.697374 0.624810 -0.097006
C60   C     C_R   0.257861 0.713492 0.693938 -0.122215
C61   C     C_R   0.334329 0.750113 0.665133 -0.094162
C62   C     C_R   0.651285 0.230463 0.431326 0.029576
C63   C     C_R   0.664187 0.248867 0.332306 -0.092671
C64   C     C_R   0.740146 0.285439 0.301631 -0.122124
C65   C     C_R   0.803721 0.302577 0.369397 -0.098111
C66   C     C_R   0.791154 0.283983 0.468080 -0.113073
C67   C     C_R   0.568813 0.903205 0.464834 0.011253
C68   C     C_R   0.714923 0.248635 0.499222 -0.102121
C69   C     C_R   0.432172 0.096773 0.536493 0.009825
C70   C     C_R   0.499307 0.953240 0.501073 0.048319
Cu1   Cu    Cu3+1 0.500010 0.499990 0.597420 0.943472
Cu2   Cu    Cu3+1 0.499990 0.500010 0.402580 0.944021
H1    H     H_    0.051965 0.353509 0.443590 0.100108
H2    H     H_    0.380794 0.227815 0.563665 0.110565
H3    H     H_    0.693455 0.908135 0.401083 0.108761
H4    H     H_    0.307626 0.091846 0.600504 0.107744
H5    H     H_    0.698415 0.068578 0.399526 0.128207
H6    H     H_    0.302431 0.931400 0.601432 0.127380
H7    H     H_    0.597215 0.403834 0.749013 0.140667
H8    H     H_    0.405629 0.599189 0.251159 0.141366
H9    H     H_    0.402399 0.596688 0.753924 0.127086
H10   H     H_    0.596443 0.402110 0.245998 0.127594
H11   H     H_    0.255700 0.563172 0.169749 0.109093
H12   H     H_    0.948012 0.646050 0.556321 0.100720
H13   H     H_    0.155532 0.662414 0.258356 0.098254
H14   H     H_    0.164798 0.825795 0.242116 0.103080
H15   H     H_    0.274390 0.890130 0.135963 0.107181
H16   H     H_    0.375815 0.791925 0.047625 0.106742
H17   H     H_    0.564292 0.244578 0.829575 0.111798
H18   H     H_    0.659384 0.138991 0.742227 0.112198
H19   H     H_    0.814359 0.150681 0.759733 0.103938
H20   H     H_    0.874372 0.268006 0.865890 0.101292
H21   H     H_    0.780215 0.374645 0.953298 0.103137
H22   H     H_    0.295700 0.768135 0.421208 0.116450
H23   H     H_    0.344755 0.654645 0.910007 0.097729
H24   H     H_    0.160417 0.704773 0.473167 0.102096
H25   H     H_    0.135584 0.670172 0.647402 0.106866
H26   H     H_    0.246766 0.698712 0.769976 0.096428
H27   H     H_    0.381814 0.764546 0.719467 0.102766
H28   H     H_    0.616048 0.233682 0.279014 0.105613
H29   H     H_    0.750216 0.299408 0.225214 0.094262
H30   H     H_    0.862835 0.329812 0.345394 0.105040
H31   H     H_    0.840564 0.296618 0.520408 0.105991
H32   H     H_    0.706165 0.233475 0.575627 0.110881
H33   H     H_    0.650943 0.340840 0.089930 0.098203
H34   H     H_    0.947659 0.385696 0.610167 0.096187
H35   H     H_    0.052072 0.613977 0.389838 0.087721
H36   H     H_    0.947687 0.471601 0.334335 0.097018
H37   H     H_    0.052288 0.527968 0.665579 0.098311
H38   H     H_    0.620134 0.772120 0.437606 0.110740
N1    N     N_R   0.499960 0.499930 0.743810 -0.242221
N2    N     N_R   0.500040 0.500070 0.256190 -0.242459
O1    O     O_R   0.500020 0.370250 0.582280 -0.507849
O2    O     O_R   0.499980 0.629750 0.417720 -0.505024
O3    O     O_R   0.500010 0.370270 0.417740 -0.496719
O4    O     O_R   0.499990 0.629730 0.582260 -0.497011
O5    O     O_R   0.379080 0.499980 0.582260 -0.495239
O6    O     O_R   0.620920 0.500020 0.417740 -0.495344
O7    O     O_R   0.379070 0.500000 0.417710 -0.503893
O8    O     O_R   0.620930 0.500000 0.582290 -0.501702

loop_
_geom_bond_atom_site_label_1
_geom_bond_atom_site_label_2
_ccdc_geom_bond_type
C9    N1    A    
C6    C69   A    
C66   C68   A    
Cu2   N2    S    
C34   C56   A    
C23   C45   A    
C27   C29   S    
C43   H11   S    
C22   H23   S    
C14   C18   A    
C5    C67   A    
C53   C54   A    
C11   H9    S    
C16   C31   S    
C15   C19   A    
C29   C36   S    
C63   H28   S    
Cu1   O8    S    
C41   C62   S    
C35   C37   S    
C24   C26   A    
C13   N2    A    
C60   H26   S    
C51   H18   S    
C11   C14   A    
C29   H1    S    
C4    C41   A    
C28   H35   S    
C49   C54   A    
Cu2   O2    S    
C33   C36   S    
Cu1   O1    S    
C18   C19   A    
C9    H7    S    
C32   C39   T    
C58   H24   S    
C54   H21   S    
C35   H36   S    
C50   H17   S    
C17   O8    A    
C28   C35   S    
C22   C25   A    
Cu1   N1    S    
C45   C67   A    
C48   H16   S    
C10   N2    A    
C2    C69   A    
C7    H5    S    
C59   C60   A    
C8    H6    S    
C61   H27   S    
C34   C41   A    
C1    O1    A    
C65   H30   S    
C4    C7    A    
C44   C46   A    
C1    C34   S    
C12   O2    A    
C10   C21   A    
C64   H29   S    
C56   H2    S    
Cu1   O5    S    
C11   N1    A    
C51   C52   A    
C3    C70   A    
C3    C8    A    
C26   C49   S    
C5    C7    A    
C10   H8    S    
C45   H38   S    
C6    C8    A    
C27   H34   S    
C58   C59   A    
C13   H10   S    
C27   C33   S    
C30   C37   S    
C60   C61   A    
C47   H15   S    
C5    H3    S    
C2    C4    A    
C43   C44   A    
C62   C63   A    
C9    C20   A    
C47   C48   A    
C12   C23   S    
C13   C15   A    
C40   C55   S    
C53   H20   S    
C50   C51   A    
C42   C48   A    
C17   O6    A    
C15   C24   A    
C3    C40   A    
C49   C50   A    
C57   H22   S    
C55   C57   A    
C59   H25   S    
C16   O7    A    
C33   H37   S    
C42   C43   A    
C44   H13   S    
C52   C53   A    
C21   C25   A    
C46   C47   A    
C30   C33   S    
C19   C21   A    
C66   H31   S    
C68   H32   S    
C25   C42   S    
C6    H4    S    
C29   C35   S    
C31   C38   T    
C62   C68   A    
C67   C70   A    
C64   C65   A    
C14   C22   A    
C28   C30   S    
Cu1   Cu2   S    
C37   C39   S    
C16   O5    A    
C57   C58   A    
C20   C26   A    
C27   C37   S    
C55   C61   A    
Cu2   O7    S    
C36   C38   S    
Cu1   O4    S    
C18   C20   A    
C65   C66   A    
C30   H12   S    
C63   C64   A    
C28   C36   S    
C56   C69   A    
Cu2   O6    S    
C17   C32   S    
C52   H19   S    
C24   H33   S    
C1    O3    A    
C46   H14   S    
C2    C70   A    
C23   C40   A    
Cu2   O3    S    
C12   O4    A    
