data_mof_unit_3617.cif
_audit_creation_date              2012-12-10T17:19:57-0500
_audit_creation_method            fapswitch 2.2
_symmetry_space_group_name_H-M    P1
_symmetry_Int_Tables_number       1
_space_group_crystal_system       triclinic
_cell_length_a                    9.609215
_cell_length_b                    10.803456
_cell_length_c                    15.496036
_cell_angle_alpha                 86.218762
_cell_angle_beta                  74.381964
_cell_angle_gamma                 89.802713
_cell_volume                      1545.74565219

loop_
_atom_site_label
_atom_site_type_symbol
_atom_type_description
_atom_site_fract_x
_atom_site_fract_y
_atom_site_fract_z
_atom_type_partial_charge
C1    C     C_R   0.998172 0.262172 0.504557 0.944659
C2    C     C_R   0.670230 0.491034 0.906097 0.112746
C3    C     C_R   0.767757 0.452371 0.956582 0.070706
C4    C     C_R   0.519419 0.500591 0.950235 -0.057366
C5    C     C_R   0.472828 0.483775 0.046037 -0.004946
C6    C     C_R   0.575162 0.446193 0.093110 -0.163665
C7    C     C_R   0.718692 0.429300 0.048950 -0.191763
C8    C     C_R   0.412469 0.522612 0.902976 0.587669
C9    C     C_R   0.269822 0.543359 0.948473 -0.257530
C10   C     C_R   0.224749 0.534398 0.041669 0.048197
C11   C     C_R   0.324791 0.502589 0.091622 0.082531
C12   C     C_R   0.918526 0.502867 0.671913 0.834344
C13   C     C_R   0.078967 0.554141 0.085447 -0.170089
C14   C     C_R   0.030125 0.540858 0.178701 -0.180981
C15   C     C_R   0.272917 0.492417 0.185832 -0.205390
C16   C     C_R   0.029368 0.104032 0.666577 0.091705
C17   C     C_R   0.052711 0.026314 0.737354 -0.129594
C18   C     C_R   0.059079 0.898721 0.732097 0.171425
C19   C     C_R   0.041286 0.847223 0.655684 -0.194348
C20   C     C_R   0.019963 0.922862 0.582387 0.035203
C21   C     C_R   0.016411 0.053756 0.586273 0.020864
C22   C     C_R   0.994852 0.127156 0.510804 -0.224855
C23   C     C_R   0.999914 0.737137 0.499678 0.775107
C24   C     C_R   0.968476 0.070704 0.437817 0.585911
C25   C     C_R   0.968309 0.943125 0.436209 -0.275384
C26   C     C_R   0.996875 0.869780 0.506469 -0.140106
C27   C     C_R   0.697163 0.664260 0.378449 -0.148004
C28   C     C_R   0.651157 0.745204 0.318773 -0.202137
C29   C     C_R   0.507408 0.746677 0.319231 -0.194038
C30   C     C_R   0.408772 0.666982 0.379189 -0.139019
C31   C     C_R   0.451058 0.581732 0.440530 0.201192
C32   C     C_R   0.600685 0.581074 0.440316 0.207776
C33   C     C_R   0.549482 0.422653 0.556867 0.002967
C34   C     C_R   0.081704 0.502478 0.327947 0.793974
C35   C     C_R   0.401756 0.422586 0.556748 0.011210
C36   C     C_R   0.873560 0.498158 0.770654 -0.223231
C37   C     C_R   0.127301 0.510311 0.229343 -0.034563
C38   C     C_R   0.914893 0.438176 0.914431 -0.305551
C39   C     C_R   0.968109 0.461429 0.822162 0.569830
C40   C     C_R   0.728825 0.520703 0.813599 -0.268933
Cu1   Cu    Cu3+1 0.140660 0.499990 0.500010 0.968759
Cu2   Cu    Cu3+1 0.859340 0.500010 0.499990 0.976882
H1    H     H_    0.792578 0.399460 0.087933 0.154756
H2    H     H_    0.002571 0.580147 0.047488 0.139713
H3    H     H_    0.062897 0.065932 0.797867 0.163474
H4    H     H_    0.042263 0.747362 0.655540 0.156964
H5    H     H_    0.949040 0.901134 0.378734 0.156457
H6    H     H_    0.584500 0.359167 0.603520 0.154501
H7    H     H_    0.809366 0.670729 0.373370 0.186814
H8    H     H_    0.727795 0.807621 0.272068 0.161383
H9    H     H_    0.343674 0.471970 0.227739 0.151000
H10   H     H_    0.471665 0.810357 0.272892 0.159696
H11   H     H_    0.301013 0.676560 0.374412 0.193020
H12   H     H_    0.326892 0.359007 0.603199 0.158490
H13   H     H_    0.917329 0.556741 0.211044 0.151524
H14   H     H_    0.192828 0.563843 0.909907 0.205057
H15   H     H_    0.988675 0.406813 0.952950 0.170488
H16   H     H_    0.665953 0.564422 0.772840 0.249139
H17   H     H_    0.548697 0.426052 0.164562 0.143272
N1    N     N_R   0.648320 0.501210 0.499140 -0.209916
N2    N     N_R   0.352470 0.501290 0.499110 -0.211109
O1    O     O_R   0.118810 0.319640 0.500010 -0.573697
O2    O     O_R   0.881240 0.319660 0.500000 -0.549957
O3    O     O_R   0.055570 0.499980 0.629840 -0.522668
O4    O     O_R   0.818000 0.500010 0.629830 -0.575900
O5    O     O_R   0.118760 0.680340 0.500000 -0.601568
O6    O     O_R   0.881190 0.680360 0.499990 -0.592632
O7    O     O_R   0.182000 0.499990 0.370170 -0.611844
O8    O     O_R   0.944430 0.500020 0.370160 -0.589376
F1    F     F_    0.945646 0.140055 0.366604 -0.662438
N3    N     N_3   0.011780 0.232878 0.679932 -0.587291
H18   H     H_    0.924417 0.242039 0.736270 0.215683
H19   H     H_    0.104882 0.264819 0.694365 0.271851
N4    N     N_3   0.080186 0.821321 0.805965 -0.585762
H20   H     H_    0.172354 0.768515 0.782289 0.253725
H21   H     H_    0.991879 0.759990 0.828085 0.219670
F2    F     F_    0.111067 0.445819 0.783758 -0.662657
F3    F     F_    0.438502 0.514411 0.813191 -0.662023

loop_
_geom_bond_atom_site_label_1
_geom_bond_atom_site_label_2
_ccdc_geom_bond_type
C16   C21   A    
C34   C37   S    
Cu1   Cu2   S    
C31   N2    A    
C19   C20   A    
Cu1   N2    S    
C4    C8    A    
C1    O1    A    
C19   H4    S    
C24   F1    S    
N4    H21   S    
C39   F2    S    
C23   O5    A    
C28   C29   A    
C17   H3    S    
C5    C11   A    
C3    C7    A    
C38   C39   A    
C12   O3    A    
C18   C19   A    
C23   C26   S    
C23   O6    A    
C15   C37   A    
C11   C15   A    
C3    C38   A    
C8    C9    A    
Cu2   O4    S    
C15   H9    S    
C12   C36   S    
C9    C10   A    
C25   H5    S    
C14   H13   S    
C1    C22   S    
C18   N4    S    
C21   C22   A    
C35   H12   S    
C8    F3    S    
C16   N3    S    
C28   H8    S    
Cu1   O1    S    
C1    O2    A    
Cu1   O7    S    
C30   H11   S    
C40   H16   S    
N4    H20   S    
C36   C40   A    
C24   C25   A    
Cu2   N1    S    
N3    H19   S    
C16   C17   A    
C25   C26   A    
Cu2   O8    S    
C2    C4    A    
C29   C30   A    
C38   H15   S    
C31   C32   A    
C30   C31   A    
C17   C18   A    
C35   N2    A    
C9    H14   S    
C34   O8    A    
C6    C7    A    
C33   N1    A    
C7    H1    S    
Cu2   O6    S    
C22   C24   A    
C32   N1    A    
C34   O7    A    
C27   C32   A    
C6    H17   S    
C36   C39   A    
C4    C5    A    
C10   C13   A    
Cu1   O5    S    
C12   O4    A    
C2    C3    A    
N3    H18   S    
C14   C37   A    
C5    C6    A    
C20   C26   A    
C33   C35   A    
C10   C11   A    
C2    C40   A    
C20   C21   A    
C27   C28   A    
C33   H6    S    
Cu1   O3    S    
C13   C14   A    
Cu2   O2    S    
C13   H2    S    
C27   H7    S    
C29   H10   S    
