data_mof_unit_3049.cif
_audit_creation_date              2012-12-10T17:55:26-0500
_audit_creation_method            fapswitch 2.2
_symmetry_space_group_name_H-M    P1
_symmetry_Int_Tables_number       1
_space_group_crystal_system       triclinic
_cell_length_a                    10.770506
_cell_length_b                    9.580698
_cell_length_c                    10.95308
_cell_angle_alpha                 89.963889
_cell_angle_beta                  91.682668
_cell_angle_gamma                 90.109877
_cell_volume                      1129.74735708

loop_
_atom_site_label
_atom_site_type_symbol
_atom_type_description
_atom_site_fract_x
_atom_site_fract_y
_atom_site_fract_z
_atom_type_partial_charge
C1    C     C_R   0.262603 0.499831 0.502846 0.759076
C2    C     C_R   0.737478 0.500087 0.504270 0.759124
C3    C     C_R   0.500495 0.499483 0.265342 0.866144
C4    C     C_R   0.499738 0.499433 0.734640 0.825706
C5    C     C_2   0.482313 0.385193 0.934861 0.159309
C6    C     C_2   0.517193 0.385080 0.065136 0.167302
C7    C     C_2   0.512029 0.497254 0.866840 -0.341299
C8    C     C_2   0.488366 0.497335 0.133078 -0.347510
C9    C     C_R   0.061147 0.421897 0.424366 -0.128711
C10   C     C_R   0.933187 0.424219 0.423356 -0.121635
C11   C     C_R   0.871575 0.500400 0.511451 -0.114530
C12   C     C_R   0.128882 0.499270 0.511144 -0.120998
C13   C     C_R   0.937821 0.571285 0.606213 -0.020556
C14   C     C_R   0.068969 0.575754 0.602774 -0.030153
C15   C     C_R   0.412970 0.072153 0.431155 0.086974
C16   C     C_R   0.586960 0.072466 0.568956 0.071824
C17   C     C_R   0.414247 0.923882 0.432408 0.027124
C18   C     C_R   0.585643 0.924212 0.567697 0.020757
Cu1   Cu    Cu3+1 0.500000 0.640660 0.500000 0.958737
Cu2   Cu    Cu3+1 0.500000 0.359340 0.500000 0.927223
H1    H     H_    0.555677 0.588038 0.909486 0.143645
H2    H     H_    0.445503 0.588364 0.090280 0.138174
H3    H     H_    0.107596 0.363505 0.354425 0.158285
H4    H     H_    0.881737 0.367363 0.352769 0.151144
H5    H     H_    0.347028 0.865111 0.377854 0.176633
H6    H     H_    0.652749 0.865785 0.622338 0.162004
N1    N     N_R   0.500000 0.852070 0.500000 -0.210139
N2    N     N_R   0.500000 0.147940 0.500000 -0.246455
O1    O     O_R   0.319640 0.618740 0.499990 -0.580507
O2    O     O_R   0.680360 0.618740 0.500010 -0.585464
O3    O     O_R   0.319620 0.381170 0.499990 -0.591561
O4    O     O_R   0.680380 0.381170 0.500010 -0.594183
O5    O     O_R   0.500000 0.618750 0.321940 -0.570340
O6    O     O_R   0.500000 0.618750 0.678060 -0.588398
O7    O     O_R   0.499970 0.381180 0.321940 -0.604057
O8    O     O_R   0.500030 0.381180 0.678060 -0.600417
C19   C     C_3   0.413082 0.258936 0.884578 -0.732476
H7    H     H_    0.378304 0.193017 0.959777 0.229288
H8    H     H_    0.330981 0.292239 0.828174 0.235093
H9    H     H_    0.475500 0.193404 0.829835 0.228753
C20   C     C_3   0.585325 0.258331 0.115472 -0.742256
H10   H     H_    0.619525 0.192224 0.040296 0.229744
H11   H     H_    0.667726 0.291011 0.171858 0.231403
H12   H     H_    0.522340 0.193181 0.170227 0.226326
C21   C     C_2   0.869985 0.627173 0.712569 0.431293
H13   H     H_    0.776095 0.666044 0.701555 0.066046
O9    O     O_2   0.916138 0.623617 0.815675 -0.506021
C22   C     C_2   0.144389 0.658783 0.692820 0.495087
H14   H     H_    0.233933 0.620449 0.725901 0.037100
O10   O     O_2   0.109540 0.773133 0.726931 -0.477857
C23   C     C_2   0.315756 0.139573 0.352655 0.349275
H15   H     H_    0.324461 0.244640 0.320147 0.130168
O11   O     O_2   0.222131 0.075558 0.320731 -0.556779
C24   C     C_2   0.684176 0.140171 0.647583 0.365690
H16   H     H_    0.675655 0.245256 0.679955 0.136032
O12   O     O_2   0.777629 0.076347 0.679781 -0.538179

loop_
_geom_bond_atom_site_label_1
_geom_bond_atom_site_label_2
_ccdc_geom_bond_type
C16   N2    A    
C8    H2    S    
C4    O8    A    
C15   C17   A    
C19   H7    S    
C15   C23   S    
C11   C13   A    
C20   H10   S    
C17   N1    A    
Cu1   Cu2   S    
C18   H6    S    
C3    O7    A    
C2    O2    A    
C17   H5    S    
C22   O10   D    
C19   H8    S    
C16   C18   A    
C21   H13   S    
C13   C21   S    
C20   H11   S    
C15   N2    A    
C1    C12   S    
C4    C7    S    
C6    C8    D    
C2    C11   S    
C1    O1    A    
C22   H14   S    
C9    C12   A    
C12   C14   A    
C19   H9    S    
C16   C24   S    
C21   O9    D    
C4    O6    A    
Cu2   O4    S    
C5    C6    S    
Cu2   O3    S    
C20   H12   S    
C24   O12   D    
C10   C11   A    
C3    O5    A    
C23   H15   S    
Cu1   O1    S    
C1    O3    A    
Cu1   N1    S    
C2    O4    A    
C3    C8    S    
C9    C10   A    
C6    C20   S    
C5    C7    D    
C24   H16   S    
C5    C19   S    
C14   C22   S    
Cu2   N2    S    
C13   C14   A    
C10   H4    S    
C7    H1    S    
Cu1   O2    S    
Cu2   O7    S    
C9    H3    S    
C18   N1    A    
Cu1   O5    S    
C23   O11   D    
Cu1   O6    S    
Cu2   O8    S    
