data_mof_unit_700.cif
_audit_creation_date              2012-10-26T18:34:22-0400
_audit_creation_method            fapswitch 2.2
_symmetry_space_group_name_H-M    P1
_symmetry_Int_Tables_number       1
_space_group_crystal_system       triclinic
_cell_length_a                    10.927755
_cell_length_b                    9.540119
_cell_length_c                    9.074648
_cell_angle_alpha                 89.987937
_cell_angle_beta                  90.234035
_cell_angle_gamma                 90.158828
_cell_volume                      946.039411537

loop_
_atom_site_label
_atom_site_type_symbol
_atom_type_description
_atom_site_fract_x
_atom_site_fract_y
_atom_site_fract_z
_atom_type_partial_charge
C1    C     C_R   0.262408 0.499925 0.499981 0.625919
C2    C     C_R   0.064163 0.621791 0.541937 0.187927
C3    C     C_R   0.873032 0.500816 0.500794 -0.077039
C4    C     C_R   0.128959 0.500181 0.500433 -0.070192
C5    C     C_R   0.461332 0.074039 0.379275 0.079693
C6    C     C_R   0.538620 0.925897 0.620732 0.074765
C7    C     C_R   0.538146 0.074224 0.620916 0.075494
C8    C     C_R   0.460579 0.925663 0.379596 0.058099
C9    C     C_R   0.738299 0.500264 0.500364 0.600589
C10   C     C_R   0.499943 0.500011 0.220659 0.574723
C11   C     C_R   0.500076 0.499988 0.779341 0.574574
C12   C     C_1   0.499894 0.500014 0.065549 -0.010213
C13   C     C_1   0.499946 0.499985 0.934449 -0.011074
C14   C     C_R   0.062597 0.379076 0.459591 0.193721
C15   C     C_R   0.940302 0.628653 0.504688 0.182910
C16   C     C_R   0.939352 0.372999 0.497516 0.187841
Cu1   Cu    Cu3+1 0.500000 0.640660 0.500000 1.078674
Cu2   Cu    Cu3+1 0.500000 0.359340 0.500000 1.097731
H1    H     H_    0.429487 0.128918 0.282397 0.128996
H2    H     H_    0.570675 0.870976 0.717555 0.129587
H3    H     H_    0.568593 0.129191 0.718392 0.130243
H4    H     H_    0.427824 0.870524 0.283142 0.126118
H5    H     H_    0.244262 0.244036 0.153585 0.357198
H6    H     H_    0.746809 0.860884 0.283887 0.369374
H7    H     H_    0.792418 0.151577 0.770181 0.366222
H8    H     H_    0.266272 0.755106 0.831918 0.361199
N1    N     N_R   0.500000 0.852070 0.500000 -0.224072
N2    N     N_R   0.500000 0.147930 0.500000 -0.217469
O1    O     O_R   0.319640 0.618740 0.499990 -0.448781
O2    O     O_2   0.020871 0.177528 0.257450 -0.190761
O3    O     O_3   0.219767 0.321362 0.219934 -0.538765
O4    O     O_2   0.811122 0.859089 0.567244 -0.234201
O5    O     O_2   0.984230 0.888264 0.398839 -0.123662
O6    O     O_3   0.789229 0.770015 0.296610 -0.507946
O7    O     O_2   0.805473 0.140261 0.451001 -0.210360
O8    O     O_2   0.985533 0.117325 0.611401 -0.140268
O9    O     O_3   0.795974 0.242358 0.717350 -0.535226
O10   O     O_2   0.196324 0.859410 0.571963 -0.200298
O11   O     O_2   0.028227 0.823712 0.745938 -0.182728
O12   O     O_R   0.680360 0.381260 0.500010 -0.435511
O13   O     O_3   0.224469 0.676219 0.781459 -0.528092
O14   O     O_R   0.680360 0.618740 0.500010 -0.445242
O15   O     O_R   0.319640 0.381260 0.499990 -0.443731
O16   O     O_R   0.500000 0.618760 0.288390 -0.514918
O17   O     O_R   0.500000 0.381240 0.711610 -0.509279
O18   O     O_R   0.500000 0.618760 0.711610 -0.512540
O19   O     O_R   0.500000 0.381240 0.288390 -0.508074
O20   O     O_2   0.190063 0.139682 0.430673 -0.200962
S1    S     S_3+6 0.122985 0.247625 0.341246 0.097591
S2    S     S_3+6 0.881451 0.792753 0.443752 0.131155
S3    S     S_3+6 0.881689 0.211524 0.567244 0.122549
S4    S     S_3+6 0.127867 0.752144 0.660896 0.108509

loop_
_geom_bond_atom_site_label_1
_geom_bond_atom_site_label_2
_ccdc_geom_bond_type
C5    C8    A    
C8    H4    S    
C6    C7    A    
C5    H1    S    
C5    N2    A    
Cu1   O1    S    
O13   S4    S    
C2    C4    A    
C6    N1    A    
C16   S3    S    
C1    C4    S    
Cu2   O19   S    
C1    O1    A    
O11   S4    D    
Cu1   O16   S    
Cu2   N2    S    
Cu2   O15   S    
C12   C13   T    
C4    C14   A    
C2    C15   A    
C11   C13   S    
O4    S2    D    
C9    O14   A    
O8    S3    D    
C2    S4    S    
C6    H2    S    
O3    S1    S    
C3    C9    S    
C10   C12   S    
O10   S4    D    
O20   S1    D    
O2    S1    D    
Cu1   Cu2   S    
O7    S3    D    
O9    S3    S    
C14   C16   A    
C11   O17   A    
C14   S1    S    
O6    S2    S    
C3    C16   A    
C10   O16   A    
Cu1   N1    S    
Cu2   O17   S    
C3    C15   A    
Cu1   O18   S    
C15   S2    S    
C10   O19   A    
C8    N1    A    
Cu2   O12   S    
Cu1   O14   S    
C11   O18   A    
H7    O9    S    
O5    S2    D    
C7    H3    S    
C1    O15   A    
C9    O12   A    
H6    O6    S    
C7    N2    A    
H8    O13   S    
H5    O3    S    
