data_mof_unit_4538.cif
_audit_creation_date              2012-12-10T16:35:53-0500
_audit_creation_method            fapswitch 2.2
_symmetry_space_group_name_H-M    P1
_symmetry_Int_Tables_number       1
_space_group_crystal_system       triclinic
_cell_length_a                    14.136192
_cell_length_b                    16.527299
_cell_length_c                    13.084944
_cell_angle_alpha                 90.237483
_cell_angle_beta                  106.570633
_cell_angle_gamma                 90.090721
_cell_volume                      2930.07451517

loop_
_atom_site_label
_atom_site_type_symbol
_atom_type_description
_atom_site_fract_x
_atom_site_fract_y
_atom_site_fract_z
_atom_type_partial_charge
C1    C     C_R   0.315063 0.844547 0.477449 0.812775
C2    C     C_R   0.314299 0.154757 0.476698 0.816754
C3    C     C_R   0.815070 0.344543 0.477455 0.812771
C4    C     C_R   0.814289 0.654753 0.476698 0.816045
C5    C     C_2   0.238079 0.785120 0.467858 0.276042
C6    C     C_2   0.236617 0.213498 0.467643 0.272980
C7    C     C_2   0.738092 0.285110 0.467851 0.275935
C8    C     C_2   0.736577 0.713479 0.467690 0.273211
C9    C     C_R   0.685990 0.155701 0.522217 0.819736
C10   C     C_R   0.685485 0.843618 0.523046 0.816352
C11   C     C_R   0.185993 0.655699 0.522211 0.819615
C12   C     C_R   0.185477 0.343612 0.523057 0.816087
C13   C     C_R   0.546443 0.997912 0.786412 0.766647
C14   C     C_R   0.046445 0.497915 0.786411 0.766489
C15   C     C_R   0.452716 0.999816 0.214774 0.770233
C16   C     C_R   0.952714 0.499815 0.214774 0.770294
C17   C     C_2   0.435926 0.998931 0.098375 0.258298
C18   C     C_2   0.935926 0.498922 0.098374 0.258335
C19   C     C_2   0.502443 0.960292 0.059312 0.342659
C20   C     C_2   0.002478 0.460323 0.059325 0.342689
C21   C     C_2   0.563325 0.988566 0.903557 0.248874
C22   C     C_2   0.063338 0.488585 0.903556 0.248921
C23   C     C_2   0.488747 0.962079 0.941641 0.330802
C24   C     C_2   0.988778 0.462082 0.941654 0.330837
C25   C     C_2   0.762604 0.215400 0.522621 0.208775
C26   C     C_2   0.759764 0.780939 0.528853 0.223222
C27   C     C_2   0.262606 0.715397 0.522596 0.208569
C28   C     C_2   0.259687 0.280846 0.529050 0.223184
O1    O     O_3   0.500010 0.000000 0.500000 -0.495800
O2    O     O_3   0.000010 0.500000 0.500000 -0.495798
O3    O     O_R   0.376880 0.837120 0.424150 -0.654958
O4    O     O_R   0.376880 0.162880 0.424150 -0.627239
O5    O     O_R   0.876880 0.337120 0.424150 -0.655247
O6    O     O_R   0.876880 0.662880 0.424150 -0.627336
O7    O     O_R   0.603010 0.162890 0.452470 -0.587417
O8    O     O_R   0.603010 0.837110 0.452470 -0.599495
O9    O     O_R   0.103010 0.662890 0.452470 -0.587291
O10   O     O_R   0.103010 0.337110 0.452470 -0.599642
O11   O     O_R   0.316670 0.095240 0.537470 -0.667428
O12   O     O_R   0.316670 0.904760 0.537470 -0.643829
O13   O     O_R   0.816670 0.595240 0.537470 -0.666801
O14   O     O_R   0.816670 0.404760 0.537470 -0.643672
O15   O     O_R   0.703490 0.904800 0.585920 -0.639697
O16   O     O_R   0.703490 0.095200 0.585920 -0.634313
O17   O     O_R   0.203490 0.404800 0.585920 -0.639418
O18   O     O_R   0.203490 0.595200 0.585920 -0.634428
O19   O     O_R   0.458050 0.000000 0.725250 -0.589378
O20   O     O_R   0.958050 0.500000 0.725250 -0.589340
O21   O     O_R   0.461630 0.932310 0.264690 -0.655653
O22   O     O_R   0.461630 0.067690 0.264690 -0.638549
O23   O     O_R   0.961630 0.432310 0.264690 -0.655794
O24   O     O_R   0.961630 0.567690 0.264690 -0.638519
O25   O     O_R   0.618750 0.000000 0.745380 -0.655570
O26   O     O_R   0.118750 0.500000 0.745380 -0.655590
Zn1   Zn    Zn3+2 0.485630 0.096680 0.411850 1.014012
Zn2   Zn    Zn3+2 0.485630 0.903320 0.411850 0.979043
Zn3   Zn    Zn3+2 0.985630 0.596680 0.411850 1.013964
Zn4   Zn    Zn3+2 0.985630 0.403320 0.411850 0.978695
Zn5   Zn    Zn3+2 0.399590 0.000000 0.573760 0.988237
Zn6   Zn    Zn3+2 0.899590 0.500000 0.573760 0.988444
Zn7   Zn    Zn3+2 0.629190 0.000000 0.602520 0.972894
Zn8   Zn    Zn3+2 0.129190 0.500000 0.602520 0.972819
O27   O     O_3   0.395299 0.948167 0.871449 -0.604001
C29   C     C_3   0.358915 0.870486 0.885472 0.082088
H1    H     H_    0.277711 0.871504 0.849015 0.176105
H2    H     H_    0.370242 0.854730 0.970437 0.096360
C30   C     C_3   0.401793 0.805617 0.827433 -0.370598
H3    H     H_    0.384353 0.821206 0.741555 0.264318
H4    H     H_    0.483208 0.803436 0.860532 0.182097
C31   C     C_3   0.359289 0.722214 0.838449 -0.859618
H5    H     H_    0.374215 0.706095 0.923910 0.250331
H6    H     H_    0.394186 0.676073 0.799126 0.293215
H7    H     H_    0.278357 0.721422 0.799906 0.264139
O28   O     O_3   0.895339 0.448123 0.871466 -0.603920
C32   C     C_3   0.859019 0.370422 0.885511 0.082188
H8    H     H_    0.777822 0.371379 0.848994 0.176202
H9    H     H_    0.870298 0.354708 0.970480 0.096310
C33   C     C_3   0.902018 0.305563 0.827572 -0.370807
H10   H     H_    0.884541 0.321082 0.741668 0.264330
H11   H     H_    0.983439 0.303487 0.860664 0.182042
C34   C     C_3   0.859683 0.222119 0.838727 -0.859485
H12   H     H_    0.874731 0.206044 0.924215 0.250237
H13   H     H_    0.894606 0.176006 0.799391 0.293089
H14   H     H_    0.778738 0.221229 0.800274 0.264262
O29   O     O_3   0.588575 0.930565 0.130711 -0.640853
C35   C     C_3   0.613522 0.852631 0.101398 0.083556
H15   H     H_    0.693922 0.844248 0.138770 0.174533
H16   H     H_    0.602158 0.844972 0.014515 0.099890
C36   C     C_3   0.558577 0.786738 0.143793 -0.306559
H17   H     H_    0.579726 0.790172 0.232171 0.286210
H18   H     H_    0.477816 0.796199 0.113739 0.200192
C37   C     C_3   0.583006 0.702854 0.109460 -0.986923
H19   H     H_    0.565729 0.699074 0.021279 0.262156
H20   H     H_    0.538232 0.656611 0.135936 0.271278
H21   H     H_    0.662456 0.689508 0.145718 0.263900
O30   O     O_3   0.088654 0.430684 0.130730 -0.640826
C38   C     C_3   0.113632 0.352727 0.101527 0.082964
H22   H     H_    0.194032 0.344376 0.138936 0.174802
H23   H     H_    0.102285 0.345001 0.014656 0.099772
C39   C     C_3   0.058688 0.286876 0.143989 -0.306218
H24   H     H_    0.079530 0.290591 0.232330 0.287122
H25   H     H_    0.977919 0.296151 0.113585 0.199664
C40   C     C_3   0.083525 0.202928 0.110251 -0.984694
H26   H     H_    0.066604 0.198902 0.022115 0.261428
H27   H     H_    0.038702 0.156713 0.136705 0.271334
H28   H     H_    0.162958 0.189746 0.146938 0.264332
O31   O     O_3   0.651563 0.013328 0.975920 -0.599592
C41   C     C_3   0.733203 0.972700 0.957932 -0.255568
H29   H     H_    0.765966 0.009673 0.905968 0.200539
H30   H     H_    0.715298 0.910647 0.924058 0.114896
H31   H     H_    0.790474 0.966103 0.035531 0.180552
O32   O     O_3   0.151565 0.513387 0.975903 -0.599560
C42   C     C_3   0.233221 0.472766 0.957941 -0.255373
H32   H     H_    0.265972 0.509727 0.905956 0.200543
H33   H     H_    0.215340 0.410699 0.924104 0.114827
H34   H     H_    0.290494 0.466201 0.035545 0.180543
O33   O     O_3   0.360119 0.042964 0.028752 -0.634191
C43   C     C_3   0.274044 0.049249 0.063338 0.094522
H35   H     H_    0.224743 0.093745 0.010610 0.178180
H36   H     H_    0.289212 0.074567 0.145182 0.127288
C44   C     C_3   0.218367 0.968341 0.052493 -0.382454
H37   H     H_    0.199540 0.947359 0.968334 0.237123
H38   H     H_    0.265474 0.921832 0.103642 0.199464
C45   C     C_3   0.123433 0.976870 0.085043 -0.988386
H39   H     H_    0.140413 0.997132 0.169362 0.248560
H40   H     H_    0.085130 0.917469 0.076917 0.266511
H41   H     H_    0.073349 0.021258 0.033011 0.276126
O34   O     O_3   0.860064 0.542889 0.028729 -0.634132
C46   C     C_3   0.774007 0.549160 0.063347 0.094432
H42   H     H_    0.724653 0.593600 0.010571 0.178350
H43   H     H_    0.789184 0.574539 0.145161 0.127065
C47   C     C_3   0.718404 0.468224 0.052631 -0.382353
H44   H     H_    0.699600 0.447161 0.968506 0.237185
H45   H     H_    0.765550 0.421775 0.103858 0.199480
C48   C     C_3   0.623460 0.476749 0.085164 -0.988502
H46   H     H_    0.640417 0.497105 0.169444 0.248503
H47   H     H_    0.585218 0.417326 0.077150 0.266522
H48   H     H_    0.573331 0.521065 0.033043 0.276245
O35   O     O_3   0.359435 0.701342 0.582050 -0.649014
C49   C     C_3   0.401786 0.644607 0.527412 -0.282384
H49   H     H_    0.397105 0.665163 0.445152 0.173712
H50   H     H_    0.367053 0.583957 0.525003 0.176940
H51   H     H_    0.481179 0.638364 0.570938 0.205389
O36   O     O_3   0.355387 0.293749 0.593020 -0.613207
C50   C     C_3   0.360501 0.271810 0.698534 -0.304681
H52   H     H_    0.338802 0.207477 0.703445 0.168777
H53   H     H_    0.314312 0.312091 0.732805 0.171732
H54   H     H_    0.438027 0.278494 0.748450 0.197222
O37   O     O_3   0.859412 0.201354 0.582144 -0.648813
C51   C     C_3   0.901861 0.144720 0.527469 -0.283808
H55   H     H_    0.897480 0.165492 0.445375 0.173922
H56   H     H_    0.866972 0.084095 0.524635 0.176975
H57   H     H_    0.981178 0.138315 0.571222 0.204835
O38   O     O_3   0.855627 0.794077 0.592242 -0.613159
C52   C     C_3   0.861414 0.772303 0.697976 -0.304819
H58   H     H_    0.839539 0.708053 0.703210 0.168396
H59   H     H_    0.815745 0.812832 0.732611 0.172351
H60   H     H_    0.939156 0.778809 0.747319 0.197069
O39   O     O_3   0.639260 0.305521 0.421183 -0.587780
C53   C     C_3   0.627968 0.357358 0.332966 -0.281476
H61   H     H_    0.667817 0.334091 0.276768 0.151284
H62   H     H_    0.652599 0.419816 0.359697 0.140896
H63   H     H_    0.548463 0.360383 0.288674 0.197384
O40   O     O_3   0.638964 0.698733 0.406735 -0.614220
C54   C     C_3   0.621711 0.618758 0.367423 -0.348305
H64   H     H_    0.633286 0.574775 0.433846 0.185391
H65   H     H_    0.668069 0.603726 0.314188 0.143575
H66   H     H_    0.543366 0.613461 0.319601 0.194586
O41   O     O_3   0.139236 0.805540 0.421256 -0.587708
C55   C     C_3   0.127901 0.857527 0.333178 -0.281625
H67   H     H_    0.167757 0.834403 0.276909 0.151174
H68   H     H_    0.152490 0.919963 0.360076 0.141125
H69   H     H_    0.048392 0.860552 0.288902 0.197419
O42   O     O_3   0.139281 0.199132 0.405620 -0.614476
C56   C     C_3   0.121467 0.118727 0.368119 -0.347865
H70   H     H_    0.132560 0.075665 0.435504 0.185169
H71   H     H_    0.167849 0.102428 0.315381 0.143367
H72   H     H_    0.043138 0.113468 0.320230 0.194327

loop_
_geom_bond_atom_site_label_1
_geom_bond_atom_site_label_2
_ccdc_geom_bond_type
C48   H48   S    
C3    O14   A    
O5    Zn4   S    
C52   H59   S    
C8    C26   D    
O41   C55   S    
C16   O23   A    
C4    C8    S    
C24   O28   S    
O34   C46   S    
C38   C39   S    
C43   H36   S    
C50   H52   S    
C9    C25   S    
C48   H46   S    
C56   H71   S    
O29   C35   S    
C54   H64   S    
O18   Zn8   S    
C1    C5    S    
C2    O4    A    
O40   C54   S    
C49   H50   S    
C42   H32   S    
C3    C7    S    
O42   C56   S    
C33   H11   S    
C7    O39   S    
C4    O13   A    
C3    O5    A    
O2    Zn3   S    
C38   H22   S    
O17   Zn8   S    
C1    O3    A    
C41   H29   S    
C25   O37   S    
C15   O22   A    
C11   O9    A    
C43   H35   S    
C37   H19   S    
C44   C45   S    
C1    O12   A    
C38   H23   S    
C5    C27   D    
O25   Zn7   S    
C2    O11   A    
C6    C28   D    
C20   C24   S    
C47   H44   S    
C51   H57   S    
O2    Zn6   S    
O6    Zn3   S    
O31   C41   S    
C49   H51   S    
C31   H5    S    
C28   O36   S    
O3    Zn2   S    
C36   H18   S    
O4    Zn1   S    
C17   O33   S    
C46   C47   S    
C18   O34   S    
C10   C26   S    
C23   O27   S    
C20   O30   S    
C54   H65   S    
O12   Zn5   S    
O10   Zn4   S    
C52   H60   S    
C2    C6    S    
C37   H20   S    
O32   C42   S    
C50   H53   S    
O20   Zn6   S    
C56   H72   S    
C13   O25   A    
O1    Zn7   S    
O28   C32   S    
C35   H16   S    
O7    Zn1   S    
C30   H3    S    
C53   H63   S    
O1    Zn5   S    
C49   H49   S    
C8    O40   S    
O14   Zn6   S    
C13   O19   A    
C35   H15   S    
O36   C50   S    
C14   O20   A    
C6    O42   S    
O26   Zn8   S    
C37   H21   S    
C34   H12   S    
C30   H4    S    
C43   C44   S    
C29   H2    S    
C39   C40   S    
C19   C23   S    
C32   H8    S    
C29   C30   S    
O8    Zn2   S    
C51   H56   S    
O39   C53   S    
C11   C27   S    
O11   Zn5   S    
O30   C38   S    
C31   H7    S    
C39   H25   S    
C44   H37   S    
C13   C21   S    
C40   H27   S    
O23   Zn4   S    
C36   C37   S    
C32   H9    S    
O38   C52   S    
C21   O31   S    
C45   H41   S    
C16   C18   S    
C14   O26   A    
C12   C28   S    
C54   H66   S    
C22   O32   S    
O2    Zn8   S    
C22   C24   D    
C26   O38   S    
C40   H26   S    
C34   H14   S    
C50   H54   S    
O15   Zn7   S    
C45   H40   S    
C46   H42   S    
C48   H47   S    
C9    O16   A    
C10   O15   A    
C33   H10   S    
C16   O24   A    
O13   Zn6   S    
C12   O17   A    
C19   O29   S    
C35   C36   S    
C34   H13   S    
C31   H6    S    
O35   C49   S    
C15   C17   S    
O1    Zn2   S    
O16   Zn7   S    
O21   Zn2   S    
O1    Zn1   S    
O22   Zn1   S    
C7    C25   D    
C41   H31   S    
C30   C31   S    
C29   H1    S    
C42   H34   S    
C21   C23   D    
C56   H70   S    
O33   C43   S    
C53   H61   S    
C33   C34   S    
C14   C22   S    
C55   H68   S    
C47   C48   S    
O2    Zn4   S    
C39   H24   S    
C17   C19   D    
C41   H30   S    
C40   H28   S    
C18   C20   D    
C15   O21   A    
C4    O6    A    
C12   O10   A    
C32   C33   S    
C27   O35   S    
C44   H38   S    
O24   Zn3   S    
O19   Zn5   S    
O27   C29   S    
C47   H45   S    
C55   H67   S    
C52   H58   S    
C9    O7    A    
C5    O41   S    
C51   H55   S    
C11   O18   A    
C10   O8    A    
C42   H33   S    
C36   H17   S    
O37   C51   S    
O9    Zn3   S    
C53   H62   S    
C45   H39   S    
C46   H43   S    
C55   H69   S    
