data_mof_unit_4174.cif
_audit_creation_date              2012-12-11T16:26:18-0500
_audit_creation_method            fapswitch 2.2
_symmetry_space_group_name_H-M    P1
_symmetry_Int_Tables_number       1
_space_group_crystal_system       triclinic
_cell_length_a                    13.973627
_cell_length_b                    13.984224
_cell_length_c                    31.765724
_cell_angle_alpha                 89.985541
_cell_angle_beta                  90.037395
_cell_angle_gamma                 120.010757
_cell_volume                      5375.13936074

loop_
_atom_site_label
_atom_site_type_symbol
_atom_type_description
_atom_site_fract_x
_atom_site_fract_y
_atom_site_fract_z
_atom_type_partial_charge
C1    C     C_R   0.567264 0.444703 0.810726 0.522059
C2    C     C_R   0.444717 0.567294 0.189269 0.521557
C3    C     C_3   0.317066 0.985351 0.353751 -0.194716
C4    C     C_3   0.274135 0.056737 0.373920 -0.255758
C5    C     C_3   0.198525 0.072386 0.343326 -0.456072
C6    C     C_3   0.637699 0.711312 0.131615 -0.193220
C7    C     C_3   0.738563 0.762576 0.102047 -0.249744
C8    C     C_3   0.843035 0.845321 0.125399 -0.480125
C9    C     C_3   0.031588 0.337823 0.362774 -0.190153
C10   C     C_3   0.930020 0.238272 0.382459 -0.284634
C11   C     C_3   0.917729 0.130444 0.365599 -0.435950
C12   C     C_3   0.288718 0.926543 0.131604 -0.193260
C13   C     C_R   0.433361 0.878757 0.310489 0.533571
C14   C     C_3   0.237554 0.976293 0.102046 -0.249776
C15   C     C_3   0.154865 0.997993 0.125401 -0.480162
C16   C     C_3   0.666534 0.690150 0.359343 -0.196674
C17   C     C_3   0.771297 0.697356 0.378452 -0.279576
C18   C     C_3   0.874446 0.796934 0.360355 -0.423654
C19   C     C_3   0.328073 0.007353 0.648723 -0.201855
C20   C     C_3   0.212421 0.934014 0.629790 -0.259462
C21   C     C_3   0.123045 0.922395 0.660536 -0.463208
C22   C     C_3   0.926879 0.289022 0.868364 -0.193364
C23   C     C_3   0.976602 0.237822 0.897915 -0.249550
C24   C     C_R   0.122557 0.555285 0.189268 0.522345
C25   C     C_3   0.998145 0.155081 0.874544 -0.480423
C26   C     C_3   0.685996 0.668514 0.645355 -0.198006
C27   C     C_3   0.718717 0.780768 0.624976 -0.259659
C28   C     C_3   0.790950 0.875516 0.654853 -0.460662
C29   C     C_3   0.362019 0.073100 0.868277 -0.193314
C30   C     C_3   0.261036 0.023377 0.897781 -0.249719
C31   C     C_3   0.156657 0.001738 0.874362 -0.480648
C32   C     C_3   0.983496 0.314458 0.646233 -0.201443
C33   C     C_3   0.058345 0.275464 0.626108 -0.259482
C34   C     C_3   0.075439 0.200130 0.656331 -0.461766
C35   C     C_1   0.009808 0.571707 0.018515 0.063902
C36   C     C_3   0.711056 0.637947 0.868306 -0.193361
C37   C     C_3   0.762258 0.738909 0.897810 -0.249711
C38   C     C_3   0.844864 0.843209 0.874392 -0.480568
C39   C     C_1   0.527480 0.985463 0.482772 0.065570
C40   C     C_1   0.428517 0.438219 0.018533 0.063860
C41   C     C_1   0.039504 0.561104 0.483802 -0.025017
C42   C     C_1   0.561750 0.990229 0.018553 0.063829
C43   C     C_1   0.447906 0.473651 0.482403 0.063605
C44   C     C_1   0.528987 0.987552 0.520538 0.066739
C45   C     C_R   0.879984 0.433958 0.689946 0.534996
C46   C     C_1   0.990653 0.562089 0.981411 0.063845
C47   C     C_1   0.455116 0.467165 0.519802 0.066432
C48   C     C_1   0.571347 0.009406 0.981455 0.063837
C49   C     C_1   0.024889 0.552596 0.521154 0.051081
C50   C     C_1   0.438147 0.428648 0.981438 0.063778
C51   C     C_R   0.935203 0.473316 0.852124 -0.069314
C52   C     C_R   0.530878 0.052723 0.650362 -0.070719
C53   C     C_R   0.526705 0.461732 0.852135 -0.069315
C54   C     C_R   0.947092 0.477785 0.650433 -0.071172
C55   C     C_R   0.538239 0.064941 0.852139 -0.069283
C56   C     C_R   0.555284 0.122540 0.810727 0.522163
C57   C     C_R   0.522982 0.468371 0.650052 -0.071549
C58   C     C_R   0.474619 0.940439 0.351327 -0.072512
C59   C     C_R   0.064965 0.538244 0.147834 -0.069420
C60   C     C_R   0.467224 0.524940 0.350472 -0.068868
C61   C     C_R   0.473233 0.935003 0.147855 -0.069411
C62   C     C_R   0.062567 0.535319 0.351480 -0.089134
C63   C     C_R   0.461757 0.526821 0.147844 -0.069110
C64   C     C_R   0.971475 0.584129 0.864522 0.191930
C65   C     C_R   0.617150 0.039651 0.632722 0.192590
C66   C     C_R   0.415873 0.387049 0.864563 0.191837
C67   C     C_R   0.566005 0.445928 0.689929 0.533715
C68   C     C_R   0.966000 0.580188 0.633747 0.195484
C69   C     C_R   0.612892 0.028769 0.864588 0.191785
C70   C     C_R   0.421294 0.384240 0.633004 0.194674
C71   C     C_R   0.571156 0.948464 0.369696 0.193317
C72   C     C_R   0.028601 0.612726 0.135411 0.191737
C73   C     C_R   0.382579 0.423757 0.367571 0.194703
C74   C     C_R   0.584115 0.971298 0.135446 0.191712
C75   C     C_R   0.046021 0.620066 0.368281 0.258449
C76   C     C_R   0.387260 0.415974 0.135422 0.191680
C77   C     C_R   0.987685 0.613191 0.907581 0.275178
C78   C     C_R   0.877476 0.432722 0.810721 0.521921
C79   C     C_R   0.615942 0.016724 0.589587 0.271068
C80   C     C_R   0.386894 0.374282 0.907627 0.275241
C81   C     C_R   0.991158 0.604291 0.590760 0.268983
C82   C     C_R   0.625654 0.012499 0.907658 0.275194
C83   C     C_R   0.399449 0.383831 0.589673 0.273146
C84   C     C_R   0.586984 0.961131 0.413450 0.270916
C85   C     C_R   0.012462 0.625622 0.092341 0.275233
C86   C     C_R   0.375321 0.407382 0.411573 0.281393
C87   C     C_R   0.613103 0.987471 0.092382 0.275197
C88   C     C_R   0.041203 0.631591 0.411890 0.278229
C89   C     C_R   0.554048 0.120175 0.689850 0.536098
C90   C     C_R   0.374453 0.386943 0.092355 0.275186
C91   C     C_R   0.968195 0.532534 0.937677 0.018151
C92   C     C_R   0.523039 0.992946 0.565565 0.010864
C93   C     C_R   0.467649 0.435658 0.937703 0.018181
C94   C     C_R   0.003706 0.529860 0.565334 0.021667
C95   C     C_R   0.564353 0.031916 0.937715 0.018195
C96   C     C_R   0.476035 0.469209 0.564158 0.011214
C97   C     C_R   0.517269 0.983337 0.437709 0.009759
C98   C     C_R   0.032263 0.564668 0.062259 0.018292
C99   C     C_R   0.452264 0.491019 0.437749 0.011083
C100  C     C_R   0.446092 0.565998 0.309978 0.532287
C101  C     C_R   0.532272 0.967773 0.062289 0.018288
C102  C     C_R   0.052475 0.557840 0.439047 -0.040988
C103  C     C_R   0.435475 0.467706 0.062271 0.018343
C104  C     C_R   0.938633 0.424012 0.925530 0.198488
C105  C     C_R   0.427248 0.983973 0.584318 0.203483
C106  C     C_R   0.576194 0.514707 0.925525 0.198504
C107  C     C_R   0.996389 0.433043 0.582349 0.208207
C108  C     C_R   0.485354 0.061471 0.925515 0.198474
C109  C     C_R   0.572653 0.558560 0.581360 0.202298
C110  C     C_R   0.433297 0.997217 0.418896 0.205112
C111  C     C_R   0.432725 0.877444 0.189272 0.522544
C112  C     C_R   0.062031 0.485855 0.074427 0.198385
C113  C     C_R   0.540897 0.588088 0.420655 0.190839
C114  C     C_R   0.423654 0.938077 0.074446 0.198458
C115  C     C_R   0.061957 0.469400 0.422328 0.210832
C116  C     C_R   0.514265 0.576309 0.074442 0.198398
C117  C     C_R   0.935078 0.397766 0.882454 -0.009135
C118  C     C_R   0.429533 0.013303 0.627191 -0.005210
C119  C     C_R   0.602341 0.537301 0.882436 -0.009094
C120  C     C_R   0.978208 0.411467 0.625924 -0.006437
C121  C     C_R   0.462691 0.065012 0.882424 -0.009074
C122  C     C_R   0.120810 0.554340 0.310223 0.525598
C123  C     C_R   0.590677 0.564592 0.625224 -0.003445
C124  C     C_R   0.410567 0.975772 0.375298 -0.004843
C125  C     C_R   0.065355 0.462991 0.117502 -0.009216
C126  C     C_R   0.557482 0.597193 0.376873 0.001556
C127  C     C_R   0.397515 0.934697 0.117523 -0.009180
C128  C     C_R   0.050492 0.449035 0.378784 -0.000024
C129  C     C_R   0.537077 0.602507 0.117523 -0.009081
C130  C     C_3   0.073563 0.362425 0.131580 -0.193242
C131  C     C_3   0.023917 0.261631 0.101990 -0.249682
C132  C     C_3   0.002282 0.157255 0.125326 -0.479917
Cr1   Cr    Cr6+3 0.504240 0.249200 0.750000 1.027902
Cr2   Cr    Cr6+3 0.744960 0.495760 0.750000 1.028246
Cr3   Cr    Cr6+3 0.750800 0.255040 0.750000 1.027045
Cr4   Cr    Cr6+3 0.249200 0.504240 0.250000 1.031701
Cr5   Cr    Cr6+3 0.495760 0.744960 0.250000 1.031011
Cr6   Cr    Cr6+3 0.255040 0.750800 0.250000 1.028674
H1    H     H_    0.013637 0.645793 0.808361 0.326282
H2    H     H_    0.645925 0.013473 0.191608 0.327238
H3    H     H_    0.017116 0.341051 0.678526 0.151381
H4    H     H_    0.898452 0.242387 0.648148 0.218227
H5    H     H_    0.909110 0.830655 0.859035 0.176544
H6    H     H_    0.802125 0.865302 0.850049 0.166120
H7    H     H_    0.885393 0.912432 0.897114 0.157705
H8    H     H_    0.696615 0.752440 0.911359 0.216023
H9    H     H_    0.808556 0.726305 0.923569 0.254638
H10   H     H_    0.773112 0.612238 0.861954 0.204093
H11   H     H_    0.693333 0.668436 0.838677 0.163192
H12   H     H_    0.114195 0.474038 0.018408 0.341295
H13   H     H_    0.004347 0.658257 0.315499 0.311718
H14   H     H_    0.406916 0.062283 0.469023 0.343926
H15   H     H_    0.526137 0.640220 0.018391 0.341302
H16   H     H_    0.120999 0.441302 0.473641 0.349461
H17   H     H_    0.359594 0.886187 0.018386 0.341353
H18   H     H_    0.574053 0.673901 0.472595 0.346651
H19   H     H_    0.331673 0.910478 0.535914 0.341025
H20   H     H_    0.886961 0.360099 0.981602 0.341381
H21   H     H_    0.650035 0.608486 0.527529 0.341680
H22   H     H_    0.473039 0.113135 0.981573 0.341367
H23   H     H_    0.977738 0.359793 0.528009 0.349096
H24   H     H_    0.367776 0.354301 0.191584 0.326905
H25   H     H_    0.640293 0.527264 0.981612 0.341390
H26   H     H_    0.969866 0.737130 0.102666 0.358637
H27   H     H_    0.697477 0.914812 0.414616 0.367606
H28   H     H_    0.262972 0.232801 0.102683 0.358617
H29   H     H_    0.032169 0.721759 0.457372 0.349137
H30   H     H_    0.767298 0.029970 0.102727 0.358600
H31   H     H_    0.239906 0.263634 0.408554 0.362350
H32   H     H_    0.769636 0.050242 0.588747 0.363309
H33   H     H_    0.675025 0.017520 0.684537 0.324114
H34   H     H_    0.029620 0.767102 0.897235 0.358624
H35   H     H_    0.265410 0.238847 0.591130 0.363270
H36   H     H_    0.737659 0.970484 0.897382 0.358602
H37   H     H_    0.979011 0.737678 0.592314 0.365341
H38   H     H_    0.232897 0.262049 0.897323 0.358582
H39   H     H_    0.079168 0.169824 0.140664 0.177187
H40   H     H_    0.937485 0.134987 0.149676 0.166273
H41   H     H_    0.973512 0.088134 0.102558 0.157797
H42   H     H_    0.944694 0.248020 0.088405 0.215785
H43   H     H_    0.082904 0.274496 0.076258 0.254786
H44   H     H_    0.353960 0.367292 0.808411 0.326475
H45   H     H_    0.161387 0.388292 0.137982 0.204008
H46   H     H_    0.025282 0.331685 0.161171 0.163765
H47   H     H_    0.245681 0.119840 0.315239 0.167106
H48   H     H_    0.129357 0.990990 0.333081 0.159157
H49   H     H_    0.162856 0.118197 0.359013 0.170678
H50   H     H_    0.223360 0.014616 0.402076 0.250402
H51   H     H_    0.344371 0.139051 0.382730 0.212893
H52   H     H_    0.348271 0.022575 0.322227 0.145104
H53   H     H_    0.244904 0.900862 0.349923 0.220700
H54   H     H_    0.830477 0.909546 0.140743 0.177086
H55   H     H_    0.990348 0.656247 0.686759 0.323870
H56   H     H_    0.865350 0.802795 0.149744 0.166263
H57   H     H_    0.912174 0.885759 0.102637 0.157764
H58   H     H_    0.752176 0.697049 0.088469 0.215810
H59   H     H_    0.725676 0.808690 0.076310 0.254814
H60   H     H_    0.611788 0.773171 0.137993 0.203985
H61   H     H_    0.668471 0.693806 0.161222 0.163647
H62   H     H_    0.902009 0.123529 0.331145 0.154142
H63   H     H_    0.993544 0.126198 0.372168 0.154106
H64   H     H_    0.847608 0.059728 0.381395 0.206302
H65   H     H_    0.936484 0.237082 0.417180 0.248908
H66   H     H_    0.632602 0.986725 0.808444 0.326367
H67   H     H_    0.854327 0.241937 0.374655 0.157361
H68   H     H_    0.013572 0.327721 0.328686 0.162257
H69   H     H_    0.107016 0.332307 0.368907 0.221166
H70   H     H_    0.090535 0.921186 0.140721 0.176939
H71   H     H_    0.197506 0.062732 0.149768 0.166146
H72   H     H_    0.114459 0.026791 0.102647 0.157761
H73   H     H_    0.303213 0.055445 0.088497 0.215736
H74   H     H_    0.191335 0.917411 0.076286 0.254785
H75   H     H_    0.226710 0.838784 0.137953 0.203983
H76   H     H_    0.306312 0.974717 0.161225 0.163511
H77   H     H_    0.343800 0.333661 0.685851 0.323819
H78   H     H_    0.881124 0.785875 0.326063 0.155514
H79   H     H_    0.871337 0.873893 0.365603 0.148191
H80   H     H_    0.949405 0.806645 0.376197 0.247126
H81   H     H_    0.774705 0.707069 0.413064 0.250117
H82   H     H_    0.773469 0.620734 0.371090 0.169530
H83   H     H_    0.674065 0.677695 0.325374 0.159034
H84   H     H_    0.668256 0.769613 0.363885 0.221581
H85   H     H_    0.122358 0.875773 0.688955 0.164268
H86   H     H_    0.137868 0.005007 0.670258 0.151879
H87   H     H_    0.040850 0.877588 0.645194 0.176797
H88   H     H_    0.656548 0.980276 0.318702 0.326673
H89   H     H_    0.202506 0.972852 0.600867 0.240941
H90   H     H_    0.199388 0.850569 0.622496 0.222144
H91   H     H_    0.323684 0.974234 0.680944 0.148554
H92   H     H_    0.341196 0.092440 0.650843 0.211649
H93   H     H_    0.921236 0.090883 0.859198 0.176815
H94   H     H_    0.062948 0.197617 0.850196 0.165995
H95   H     H_    0.026861 0.114603 0.897293 0.157856
H96   H     H_    0.055871 0.303380 0.911469 0.216116
H97   H     H_    0.917683 0.191711 0.923668 0.254650
H98   H     H_    0.839042 0.227088 0.861991 0.204181
H99   H     H_    0.986315 0.632120 0.191558 0.327299
H100  H     H_    0.975085 0.306586 0.838753 0.163206
H101  H     H_    0.742242 0.874696 0.682601 0.160357
H102  H     H_    0.862593 0.868314 0.665785 0.148057
H103  H     H_    0.823136 0.955512 0.638255 0.186802
H104  H     H_    0.769010 0.793499 0.596322 0.244752
H105  H     H_    0.643748 0.785279 0.616699 0.205611
H106  H     H_    0.659895 0.674708 0.677802 0.151668
H107  H     H_    0.760391 0.659195 0.646876 0.214299
H108  H     H_    0.169270 0.078548 0.859012 0.176697
H109  H     H_    0.134446 0.936963 0.850013 0.165991
H110  H     H_    0.340801 0.345342 0.314479 0.324417
H111  H     H_    0.087431 0.973020 0.897084 0.157765
H112  H     H_    0.247413 0.944206 0.911341 0.216094
H113  H     H_    0.273773 0.082263 0.923532 0.254650
H114  H     H_    0.387836 0.160849 0.861908 0.204281
H115  H     H_    0.331412 0.024897 0.838656 0.163110
H116  H     H_    0.124014 0.247490 0.684210 0.165920
H117  H     H_    0.994527 0.131080 0.667014 0.151106
H118  H     H_    0.120522 0.164265 0.640185 0.176681
H119  H     H_    0.018580 0.225524 0.597550 0.241134
H120  H     H_    0.139986 0.347494 0.617822 0.216905
O1    O     O_R   0.480350 0.140770 0.796330 -0.529781
O2    O     O_R   0.140770 0.480350 0.203670 -0.529175
O3    O     O_R   0.519650 0.660420 0.296330 -0.516330
O4    O     O_R   0.339580 0.859230 0.203670 -0.529029
O5    O     O_R   0.514930 0.348530 0.793250 -0.474250
O6    O     O_R   0.833600 0.485070 0.706750 -0.464462
O7    O     O_R   0.651470 0.166400 0.793250 -0.474363
O8    O     O_R   0.514930 0.348530 0.706750 -0.465106
O9    O     O_R   0.833600 0.485070 0.793250 -0.474188
O10   O     O_R   0.651470 0.166400 0.706750 -0.463799
O11   O     O_R   0.348530 0.514930 0.293250 -0.465724
O12   O     O_R   0.660420 0.519650 0.703670 -0.522718
O13   O     O_R   0.485070 0.833600 0.206750 -0.474221
O14   O     O_R   0.166400 0.651470 0.293250 -0.470964
O15   O     O_R   0.348530 0.514930 0.206750 -0.474447
O16   O     O_R   0.485070 0.833600 0.293250 -0.462209
O17   O     O_R   0.166400 0.651470 0.206750 -0.473548
O18   O     O_3   0.666667 0.333333 0.750000 -0.229011
O19   O     O_3   0.333333 0.666667 0.250000 -0.229949
O20   O     O_3   0.992170 0.665489 0.835316 -0.737578
O21   O     O_3   0.704634 0.051264 0.656659 -0.739923
O22   O     O_3   0.334399 0.326186 0.835383 -0.737681
O23   O     O_R   0.859230 0.339580 0.796330 -0.529777
O24   O     O_3   0.960263 0.657890 0.658665 -0.737780
O25   O     O_3   0.673738 0.008206 0.835426 -0.737877
O26   O     O_3   0.342247 0.301604 0.657855 -0.736702
O27   O     O_3   0.650282 0.942373 0.345803 -0.739865
O28   O     O_3   0.007746 0.673287 0.164600 -0.736923
O29   O     O_3   0.305972 0.340530 0.342167 -0.740630
O30   O     O_3   0.665614 0.992053 0.164642 -0.737208
O31   O     O_3   0.035830 0.694506 0.342862 -0.683718
O32   O     O_3   0.326614 0.334548 0.164607 -0.737223
O33   O     O_3   0.978246 0.697534 0.078467 -0.686778
O34   O     O_R   0.480350 0.140770 0.703670 -0.524329
O35   O     O_3   0.669503 0.951405 0.433607 -0.654375
O36   O     O_3   0.302566 0.280803 0.078485 -0.686828
O37   O     O_3   0.027630 0.717433 0.426311 -0.670350
O38   O     O_3   0.719264 0.021629 0.078523 -0.686890
O39   O     O_3   0.293000 0.312048 0.430151 -0.648213
O40   O     O_3   0.704855 0.018264 0.569725 -0.658901
O41   O     O_3   0.021681 0.719259 0.921432 -0.686805
O42   O     O_3   0.304967 0.300294 0.571017 -0.657769
O43   O     O_3   0.697762 0.978510 0.921557 -0.686748
O44   O     O_3   0.002524 0.699163 0.572350 -0.681520
O45   O     O_R   0.660420 0.519650 0.796330 -0.529649
O46   O     O_3   0.280806 0.302104 0.921503 -0.686785
O47   O     O_3   0.089905 0.431218 0.044899 -0.705852
O48   O     O_3   0.367238 0.022949 0.443165 -0.701509
O49   O     O_3   0.568931 0.658831 0.044909 -0.705852
O50   O     O_3   0.083107 0.401419 0.447604 -0.691432
O51   O     O_3   0.341058 0.910326 0.044907 -0.705746
O52   O     O_3   0.611071 0.676732 0.445700 -0.705835
O53   O     O_3   0.334203 0.955557 0.560369 -0.702905
O54   O     O_3   0.911142 0.341605 0.955081 -0.705759
O55   O     O_3   0.652642 0.638838 0.555892 -0.704821
O56   O     O_R   0.859230 0.339580 0.703670 -0.522905
O57   O     O_3   0.430358 0.088953 0.955030 -0.705744
O58   O     O_3   0.002502 0.356261 0.556836 -0.701570
O59   O     O_3   0.658724 0.569815 0.955058 -0.705719
O60   O     O_R   0.140770 0.480350 0.296330 -0.516282
O61   O     O_R   0.519650 0.660420 0.203670 -0.530120
O62   O     O_R   0.339580 0.859230 0.296330 -0.526465

loop_
_geom_bond_atom_site_label_1
_geom_bond_atom_site_label_2
_ccdc_geom_bond_type
H17   O51   S    
C114  O51   S    
C64   C77   A    
C16   H84   S    
C115  O50   S    
H88   O27   S    
C12   H76   S    
C75   O31   S    
Cr6   O14   S    
C90   O36   S    
C20   H89   S    
C68   C81   A    
C10   H67   S    
C43   C99   S    
C63   C76   A    
C1    O5    A    
C23   H96   S    
C36   H10   S    
C19   C20   S    
Cr4   O2    S    
C29   H115  S    
C32   H4    S    
C15   H70   S    
C17   H81   S    
C82   O43   S    
C83   O42   S    
Cr1   O18   S    
C52   C89   S    
C5    H48   S    
H99   O28   S    
C79   O40   S    
C41   C49   T    
C100  O11   A    
C9    C128  S    
C29   H114  S    
C9    H69   S    
C45   O6    A    
H44   O22   S    
C84   O35   S    
C7    H59   S    
C37   C38   S    
C57   C123  A    
C89   O34   A    
C61   C127  A    
C37   H9    S    
C86   C99   A    
C19   H91   S    
C112  C125  A    
C105  C118  A    
C26   C123  S    
C27   H104  S    
C107  C120  A    
C104  C117  A    
C116  O49   S    
Cr2   O9    S    
C77   C91   A    
C21   H85   S    
C18   H78   S    
C51   C64   A    
C4    C5    S    
C60   C100  S    
C88   C102  A    
C6    C7    S    
C61   C74   A    
C86   O39   S    
C96   C109  A    
C24   O2    A    
C108  O57   S    
C89   O10   A    
C4    H50   S    
C130  C131  S    
C51   C78   S    
H25   O59   S    
C44   C92   S    
C8    H54   S    
H12   O47   S    
C103  C116  A    
C95   C108  A    
C20   C21   S    
C33   H119  S    
C22   C23   S    
C80   C93   A    
C43   C47   T    
Cr6   O62   S    
C52   C65   A    
C132  H40   S    
C55   C121  A    
C25   H94   S    
C65   C79   A    
C38   H5    S    
Cr5   O16   S    
Cr4   O15   S    
H21   O55   S    
C72   C85   A    
Cr5   O13   S    
C7    C8    S    
Cr5   O19   S    
C14   H73   S    
C36   C37   S    
C130  H45   S    
C28   H101  S    
C6    H61   S    
C54   C68   A    
C30   H113  S    
C31   H111  S    
C8    H57   S    
C34   H118  S    
C36   C119  S    
C1    C53   S    
C11   H62   S    
C69   C82   A    
H32   O40   S    
H22   O57   S    
C87   C101  A    
C67   O12   A    
C19   C118  S    
C64   O20   S    
C74   C87   A    
C9    C10   S    
C76   O32   S    
C77   O41   S    
C23   H97   S    
H34   O41   S    
C13   O62   A    
C68   O24   S    
C94   C107  A    
C98   C112  A    
C109  C123  A    
H27   O35   S    
C113  C126  A    
C115  C128  A    
H38   O46   S    
C11   H64   S    
C78   O23   A    
C29   C30   S    
C53   C66   A    
C93   C106  A    
C17   C18   S    
C42   C48   T    
C55   C69   A    
C122  O60   A    
H14   O48   S    
Cr3   O10   S    
C57   C70   A    
Cr2   O45   S    
C3    C4    S    
C18   H80   S    
C42   C101  S    
C62   C122  S    
C2    C63   S    
Cr1   O5    S    
C82   C95   A    
C27   H105  S    
H110  O29   S    
C131  H42   S    
C39   C44   T    
Cr2   O12   S    
C66   C80   A    
H66   O25   S    
C87   O38   S    
C20   H90   S    
Cr6   O17   S    
C34   H116  S    
C88   O37   S    
C78   O9    A    
C7    H58   S    
C105  O53   S    
C40   C103  S    
C81   C94   A    
C24   C59   S    
C83   C96   A    
C104  O54   S    
C10   C11   S    
C100  O3    A    
H77   O26   S    
Cr5   O61   S    
Cr5   O3    S    
C55   C56   S    
C106  C119  A    
C111  O13   A    
C108  C121  A    
C26   C27   S    
C84   C97   A    
C48   C95   S    
C15   H72   S    
C9    H68   S    
C30   C31   S    
C58   C71   A    
C39   C97   S    
C60   C73   A    
C102  C115  A    
C110  C124  A    
Cr6   O4    S    
C16   C17   S    
C29   C121  S    
C47   C96   S    
C31   H108  S    
C8    H56   S    
Cr4   O11   S    
C37   H8    S    
C35   C98   S    
C10   H65   S    
C122  O14   A    
C59   C72   A    
C101  C114  A    
C16   H83   S    
C12   H75   S    
C110  O48   S    
H37   O44   S    
C72   O28   S    
C3    H52   S    
C67   O8    A    
C111  O4    A    
C53   C119  A    
H36   O43   S    
H2    O30   S    
C70   C83   A    
C32   H3    S    
C17   H82   S    
C13   O16   A    
C56   O1    A    
C59   C125  A    
C28   H103  S    
C5    H49   S    
C131  C132  S    
C3    C124  S    
C80   O46   S    
H28   O36   S    
C25   H93   S    
Cr2   O6    S    
C109  O55   S    
C38   H6    S    
H24   O32   S    
C99   C113  A    
C46   C91   S    
C113  O52   S    
C14   H74   S    
C32   C33   S    
C130  H46   S    
C28   H102  S    
C2    O15   A    
C114  C127  A    
C131  H43   S    
C40   C50   T    
H23   O58   S    
C63   C129  A    
C19   H92   S    
C90   C103  A    
C92   C105  A    
Cr1   O1    S    
C32   C120  S    
C73   C86   A    
C112  O47   S    
C35   C46   T    
C16   C126  S    
C76   C90   A    
C22   H100  S    
C52   C118  A    
C22   C117  S    
H55   O24   S    
C21   H86   S    
C54   C120  A    
Cr2   O18   S    
H1    O20   S    
Cr3   O23   S    
C91   C104  A    
C81   O44   S    
Cr1   O8    S    
C12   C127  S    
C41   C102  S    
C26   H106  S    
C36   H11   S    
H35   O42   S    
C2    O61   A    
Cr3   O18   S    
C11   H63   S    
C85   C98   A    
C106  O59   S    
C51   C117  A    
C125  C130  S    
C116  C129  A    
C33   H120  S    
C65   O21   S    
C66   O22   S    
C49   C94   S    
C26   H107  S    
C132  H39   S    
C25   H95   S    
C31   H109  S    
C57   C67   S    
C6    C129  S    
C107  O58   S    
H29   O37   S    
C85   O33   S    
H30   O38   S    
Cr1   O34   S    
Cr4   O60   S    
C6    H60   S    
C13   C58   S    
C30   H112  S    
C34   H117  S    
H13   O31   S    
C38   H7    S    
C3    H53   S    
C73   O29   S    
Cr3   O56   S    
C74   O30   S    
C33   C34   S    
C56   O7    A    
C79   C92   A    
C22   H98   S    
C12   C14   S    
C45   C54   S    
Cr6   O19   S    
C71   O27   S    
C61   C111  S    
H33   O21   S    
C71   C84   A    
H18   O52   S    
H19   O53   S    
C14   C15   S    
H20   O54   S    
C4    H51   S    
H26   O33   S    
H15   O49   S    
C50   C93   S    
H16   O50   S    
C21   H87   S    
C58   C124  A    
C5    H47   S    
C60   C126  A    
Cr4   O19   S    
C15   H71   S    
C62   C128  A    
C97   C110  A    
C69   O25   S    
C70   O26   S    
C23   C25   S    
C62   C75   A    
C45   O56   A    
C132  H41   S    
C75   C88   A    
C27   C28   S    
Cr3   O7    S    
C1    O45   A    
C18   H79   S    
H31   O39   S    
C24   O17   A    
