data_mof_unit_3504.cif
_audit_creation_date              2012-10-26T19:13:25-0400
_audit_creation_method            fapswitch 2.2
_symmetry_space_group_name_H-M    P1
_symmetry_Int_Tables_number       1
_space_group_crystal_system       triclinic
_cell_length_a                    13.427874
_cell_length_b                    13.815438
_cell_length_c                    15.104221
_cell_angle_alpha                 88.998481
_cell_angle_beta                  88.292921
_cell_angle_gamma                 72.390357
_cell_volume                      2669.41992288

loop_
_atom_site_label
_atom_site_type_symbol
_atom_type_description
_atom_site_fract_x
_atom_site_fract_y
_atom_site_fract_z
_atom_type_partial_charge
C1    C     C_R   0.497091 0.500001 0.670273 0.544747
C2    C     C_R   0.815974 0.413447 0.478850 -0.004517
C3    C     C_R   0.508990 0.410255 0.906905 -0.144839
C4    C     C_R   0.700634 0.446130 0.492726 0.578145
C5    C     C_R   0.518355 0.409344 0.814944 -0.134941
C6    C     C_R   0.486373 0.500685 0.766720 0.016291
C7    C     C_R   0.440453 0.592361 0.811001 -0.145664
C8    C     C_R   0.429053 0.592974 0.902782 -0.087230
C9    C     C_R   0.466241 0.502367 0.951470 0.035006
C10   C     C_R   0.513698 0.574836 0.089326 0.259927
C11   C     C_R   0.515447 0.577700 0.181634 -0.119178
C12   C     C_R   0.982608 0.452926 0.466234 0.005366
C13   C     C_R   0.487274 0.504368 0.233174 -0.033694
C14   C     C_R   0.449501 0.432675 0.191977 -0.151060
C15   C     C_R   0.440247 0.434024 0.100522 -0.171786
C16   C     C_R   0.496849 0.501498 0.329661 0.553462
C17   C     C_R   0.471729 0.504966 0.048462 0.027146
C18   C     C_R   0.531961 0.886164 0.427139 -0.172173
C19   C     C_R   0.532748 0.784146 0.427192 0.043580
C20   C     C_R   0.462240 0.799194 0.572950 0.052147
C21   C     C_R   0.460426 0.901928 0.576924 -0.000100
C22   C     C_R   0.497127 0.946659 0.502475 0.025895
C23   C     C_R   0.872362 0.482891 0.455913 0.012766
C24   C     C_R   0.559878 0.088793 0.560459 -0.148107
C25   C     C_R   0.559091 0.190913 0.558977 0.037713
C26   C     C_R   0.441767 0.227293 0.440660 0.039082
C27   C     C_R   0.440344 0.125834 0.439966 -0.156771
C28   C     C_R   0.299048 0.554926 0.500784 0.536498
C29   C     C_R   0.499029 0.055048 0.501093 0.016473
C30   C     C_R   0.017823 0.712091 0.460327 -0.119878
C31   C     C_R   0.183984 0.589066 0.494491 -0.002631
C32   C     C_R   0.871714 0.311632 0.494617 -0.165182
C33   C     C_R   0.979681 0.277857 0.483488 -0.134315
C34   C     C_R   0.031031 0.531699 0.472745 0.004156
C35   C     C_R   0.036914 0.346022 0.464821 0.030182
C36   C     C_3   0.167560 0.780871 0.473888 -0.255886
C37   C     C_3   0.217382 0.791541 0.383351 -0.407981
C38   C     C_3   0.651211 0.590935 0.004379 0.001613
C39   C     C_3   0.682821 0.659838 0.936005 -0.254592
C40   C     C_3   0.791870 0.609293 0.896738 -0.485647
C41   C     C_3   0.413705 0.961347 0.659278 -0.296188
C42   C     C_3   0.483564 0.925170 0.738777 -0.446193
C43   C     C_3   0.147261 0.299301 0.426233 -0.269561
C44   C     C_3   0.162193 0.343323 0.334899 -0.432736
C45   C     C_R   0.972181 0.633917 0.456442 -0.021446
C46   C     C_3   0.769886 0.603911 0.276995 -0.004173
C47   C     C_3   0.766021 0.713037 0.249513 -0.285214
C48   C     C_3   0.747251 0.733723 0.151271 -0.488995
C49   C     C_R   0.869053 0.657509 0.431797 -0.121506
C50   C     C_R   0.823560 0.580875 0.420824 0.284468
C51   C     C_R   0.133434 0.513813 0.500722 -0.140826
C52   C     C_R   0.124087 0.691362 0.476562 0.010987
Cu1   Cu    Cu3+1 0.500000 0.403570 0.500010 0.926132
Cu2   Cu    Cu3+1 0.500000 0.596430 0.499990 0.952048
H1    H     H_    0.553259 0.337697 0.781736 0.115865
H2    H     H_    0.825242 0.735171 0.415784 0.108014
H3    H     H_    0.607826 0.036488 0.607554 0.096225
H4    H     H_    0.606011 0.215936 0.605188 0.112897
H5    H     H_    0.395739 0.281178 0.393730 0.120008
H6    H     H_    0.392716 0.103111 0.392741 0.089847
H7    H     H_    0.971051 0.789628 0.446588 0.098229
H8    H     H_    0.174650 0.442005 0.529537 0.131180
H9    H     H_    0.831418 0.256543 0.511824 0.128364
H10   H     H_    0.018571 0.196869 0.487309 0.104269
H11   H     H_    0.539087 0.339679 0.943352 0.102633
H12   H     H_    0.413077 0.663388 0.774717 0.104514
H13   H     H_    0.254018 0.853533 0.385448 0.130426
H14   H     H_    0.278161 0.720377 0.363819 0.184260
H15   H     H_    0.156587 0.810718 0.332163 0.133762
H16   H     H_    0.103821 0.852717 0.486583 0.115378
H17   H     H_    0.222495 0.776543 0.528212 0.162938
H18   H     H_    0.653482 0.519324 0.970599 0.142585
H19   H     H_    0.708875 0.571075 0.058150 0.118612
H20   H     H_    0.625710 0.677637 0.881749 0.174008
H21   H     H_    0.681400 0.732357 0.967419 0.166703
H22   H     H_    0.850591 0.591991 0.949629 0.140183
H23   H     H_    0.394163 0.664573 0.936024 0.145781
H24   H     H_    0.812347 0.661298 0.847531 0.148498
H25   H     H_    0.794211 0.537866 0.862876 0.151050
H26   H     H_    0.448979 0.972449 0.797183 0.138811
H27   H     H_    0.562716 0.932096 0.724564 0.149543
H28   H     H_    0.490557 0.844774 0.755368 0.141715
H29   H     H_    0.400163 0.044050 0.649807 0.158889
H30   H     H_    0.335832 0.951408 0.674355 0.125597
H31   H     H_    0.237997 0.298158 0.304612 0.115925
H32   H     H_    0.098645 0.340039 0.290701 0.151469
H33   H     H_    0.162894 0.423060 0.339499 0.162780
H34   H     H_    0.541778 0.635305 0.212600 0.126219
H35   H     H_    0.209206 0.302422 0.471382 0.135518
H36   H     H_    0.162623 0.216379 0.416493 0.129075
H37   H     H_    0.715788 0.578082 0.236313 0.147131
H38   H     H_    0.849032 0.550290 0.261549 0.112977
H39   H     H_    0.703062 0.769017 0.287397 0.162081
H40   H     H_    0.841754 0.725608 0.263866 0.144632
H41   H     H_    0.807018 0.676848 0.111268 0.142693
H42   H     H_    0.752705 0.810454 0.134053 0.142107
H43   H     H_    0.667626 0.731958 0.135811 0.185233
H44   H     H_    0.425531 0.376364 0.230613 0.126277
H45   H     H_    0.408938 0.379276 0.070272 0.112864
H46   H     H_    0.559185 0.917676 0.368429 0.092345
H47   H     H_    0.558685 0.739719 0.368208 0.160382
H48   H     H_    0.431185 0.766343 0.628591 0.119313
N1    N     N_R   0.500000 0.741310 0.499980 -0.227552
N2    N     N_R   0.500060 0.258650 0.499980 -0.217177
O1    O     O_R   0.499990 0.418570 0.628550 -0.507127
O2    O     O_3   0.737956 0.598853 0.367103 -0.560351
O3    O     O_R   0.499990 0.581440 0.628540 -0.518755
O4    O     O_R   0.650980 0.378820 0.499990 -0.513411
O5    O     O_R   0.650980 0.541690 0.499970 -0.435993
O6    O     O_R   0.500010 0.418560 0.371460 -0.505170
O7    O     O_R   0.500010 0.581430 0.371450 -0.500111
O8    O     O_R   0.349020 0.458310 0.500030 -0.509353
O9    O     O_R   0.349020 0.621180 0.500010 -0.511682
O10   O     O_3   0.550762 0.642512 0.039923 -0.593941

loop_
_geom_bond_atom_site_label_1
_geom_bond_atom_site_label_2
_ccdc_geom_bond_type
Cu1   O6    S    
C4    O5    A    
Cu2   O9    S    
C42   H26   S    
C48   H41   S    
C37   H15   S    
C27   C29   A    
C11   C13   A    
C41   C42   S    
C30   C45   A    
C42   H28   S    
C31   C52   A    
C16   O6    A    
C7    C8    A    
C20   N1    A    
Cu1   Cu2   S    
C28   O8    A    
C48   H43   S    
C4    O4    A    
C12   C23   A    
C34   C51   A    
C43   H35   S    
Cu2   O3    S    
C51   H8    S    
C36   C37   S    
C22   C29   S    
C27   H6    S    
C38   C39   S    
C38   O10   S    
C20   H48   S    
C10   C17   A    
C41   H29   S    
C37   H14   S    
C46   O2    S    
C2    C32   A    
C18   C19   A    
C39   H20   S    
C24   C29   A    
C26   N2    A    
C19   N1    A    
C8    C9    A    
C39   H21   S    
C44   H33   S    
C35   C43   S    
C26   H5    S    
C36   C52   S    
C36   H17   S    
C13   C14   A    
C3    H11   S    
C42   H27   S    
C18   H46   S    
C44   H32   S    
C36   H16   S    
C14   H44   S    
C38   H18   S    
C43   H36   S    
C1    C6    S    
Cu2   N1    S    
C24   C25   A    
C28   O9    A    
C15   H45   S    
C39   C40   S    
C24   H3    S    
C23   C50   A    
C46   H37   S    
C41   H30   S    
C40   H22   S    
Cu2   O5    S    
C2    C4    S    
C43   C44   S    
C3    C9    A    
C47   C48   S    
C45   C49   A    
C11   H34   S    
C47   H39   S    
C40   H25   S    
C34   C45   A    
C12   C35   A    
C1    O3    A    
C21   C41   S    
Cu1   O8    S    
C9    C17   S    
C26   C27   A    
C8    H23   S    
C40   H24   S    
C30   H7    S    
C25   H4    S    
C12   C34   A    
C44   H31   S    
C15   C17   A    
C30   C52   A    
C46   C47   S    
C48   H42   S    
C18   C22   A    
C5    H1    S    
C28   C31   S    
C32   H9    S    
C31   C51   A    
C3    C5    A    
C10   O10   S    
C25   N2    A    
C6    C7    A    
C49   H2    S    
C32   C33   A    
C7    H12   S    
C19   H47   S    
Cu1   O4    S    
C5    C6    A    
C33   H10   S    
C37   H13   S    
C33   C35   A    
C47   H40   S    
Cu2   O7    S    
C10   C11   A    
Cu1   O1    S    
C46   H38   S    
C20   C21   A    
C49   C50   A    
C13   C16   S    
C2    C23   A    
C50   O2    S    
C14   C15   A    
Cu1   N2    S    
C21   C22   A    
C16   O7    A    
C1    O1    A    
C38   H19   S    
