data_mof_unit_1315.cif
_audit_creation_date              2012-12-10T17:09:19-0500
_audit_creation_method            fapswitch 2.2
_symmetry_space_group_name_H-M    P1
_symmetry_Int_Tables_number       1
_space_group_crystal_system       triclinic
_cell_length_a                    17.933447
_cell_length_b                    18.871506
_cell_length_c                    11.790092
_cell_angle_alpha                 90.486108
_cell_angle_beta                  76.073082
_cell_angle_gamma                 90.195895
_cell_volume                      3872.69520955

loop_
_atom_site_label
_atom_site_type_symbol
_atom_type_description
_atom_site_fract_x
_atom_site_fract_y
_atom_site_fract_z
_atom_type_partial_charge
C1    C     C_R   0.406518 0.105491 0.519055 0.790697
C2    C     C_R   0.594434 0.894732 0.480456 0.801834
C3    C     C_R   0.595283 0.104577 0.480555 0.791099
C4    C     C_R   0.406212 0.894444 0.518870 0.806265
C5    C     C_R   0.905063 0.604674 0.519738 0.789405
C6    C     C_R   0.096688 0.396317 0.480144 0.794170
C7    C     C_R   0.094811 0.604723 0.480740 0.788621
C8    C     C_R   0.906208 0.394644 0.518549 0.804387
C9    C     C_R   0.537404 0.008056 0.961415 -0.074424
C10   C     C_R   0.463426 0.009423 0.038744 -0.058914
C11   C     C_R   0.036923 0.507293 0.961292 -0.064843
C12   C     C_R   0.962702 0.506198 0.038948 -0.061712
C13   C     C_R   0.408003 0.005217 0.867225 0.297178
C14   C     C_R   0.592504 0.997926 0.132748 0.261593
C15   C     C_R   0.907688 0.501864 0.866742 0.295776
C16   C     C_R   0.092048 0.504605 0.133328 0.297528
C17   C     C_R   0.399625 0.016552 0.988664 -0.112121
C18   C     C_R   0.601657 0.011149 0.011797 -0.088459
C19   C     C_R   0.898322 0.509704 0.988998 -0.110974
C20   C     C_R   0.101084 0.512799 0.011397 -0.118873
C21   C     C_R   0.544101 0.004216 0.836771 0.107091
C22   C     C_R   0.456261 0.005611 0.163020 0.118711
C23   C     C_R   0.043868 0.504136 0.836817 0.106433
C24   C     C_R   0.955965 0.502689 0.163340 0.106024
C25   C     C_R   0.643818 0.169486 0.471657 -0.184317
C26   C     C_R   0.360632 0.827578 0.524462 -0.175396
C27   C     C_R   0.364248 0.173981 0.524057 -0.189138
C28   C     C_R   0.640919 0.828320 0.473968 -0.186741
C29   C     C_R   0.142140 0.670161 0.472682 -0.182840
C30   C     C_R   0.861494 0.327642 0.522713 -0.173383
C31   C     C_R   0.858029 0.670288 0.527748 -0.184479
C32   C     C_R   0.149222 0.334451 0.471795 -0.186476
C33   C     C_R   0.279640 0.738356 0.641524 0.123096
C34   C     C_R   0.733347 0.248052 0.343090 0.145225
C35   C     C_R   0.724640 0.741233 0.353966 0.138408
C36   C     C_R   0.281019 0.258393 0.648797 0.146416
C37   C     C_R   0.783454 0.236931 0.638156 0.123964
C38   C     C_R   0.229801 0.750525 0.345814 0.146144
C39   C     C_R   0.250773 0.270840 0.340257 0.166009
C40   C     C_R   0.771029 0.752256 0.653350 0.146327
C41   C     C_R   0.343602 0.784941 0.625072 0.125929
C42   C     C_R   0.664019 0.208235 0.367348 0.083216
C43   C     C_R   0.658784 0.785435 0.372813 0.110748
C44   C     C_R   0.347652 0.215275 0.626109 0.088810
C45   C     C_R   0.847123 0.283707 0.620920 0.125197
C46   C     C_R   0.161115 0.709874 0.369575 0.074812
C47   C     C_R   0.176604 0.300289 0.364692 0.080476
C48   C     C_R   0.839041 0.710838 0.630802 0.076145
C49   C     C_R   0.337278 0.803004 0.424703 -0.080422
C50   C     C_R   0.670891 0.192880 0.567630 -0.077452
C51   C     C_R   0.664422 0.804481 0.573474 -0.073180
C52   C     C_R   0.344631 0.201721 0.423983 -0.078072
C53   C     C_R   0.839604 0.302210 0.422481 -0.070610
C54   C     C_R   0.168240 0.693866 0.569178 -0.076170
C55   C     C_R   0.174294 0.310790 0.569684 -0.058529
C56   C     C_R   0.833693 0.694283 0.430090 -0.072229
C57   C     C_R   0.269840 0.760946 0.438040 -0.006345
C58   C     C_R   0.740687 0.231175 0.549470 -0.016929
C59   C     C_R   0.731796 0.762409 0.560156 -0.009274
C60   C     C_R   0.282193 0.250051 0.437107 0.006531
C61   C     C_R   0.772779 0.259305 0.435505 -0.006434
C62   C     C_R   0.237721 0.732513 0.551863 -0.016361
C63   C     C_R   0.244110 0.271871 0.554212 -0.010542
C64   C     C_R   0.764890 0.733950 0.445739 -0.015039
Cu1   Cu    Cu3+1 0.507800 0.000000 0.383250 0.939556
Cu2   Cu    Cu3+1 0.492200 0.000000 0.616750 0.944918
Cu3   Cu    Cu3+1 0.007800 0.500000 0.383250 0.946541
Cu4   Cu    Cu3+1 0.992200 0.500000 0.616750 0.943481
N1    N     N_R   0.519530 0.000000 0.207810 -0.232152
N2    N     N_R   0.480470 0.000000 0.792190 -0.225223
N3    N     N_R   0.019530 0.500000 0.207810 -0.223649
N4    N     N_R   0.980470 0.500000 0.792190 -0.225138
O1    O     O_R   0.430030 0.075530 0.417420 -0.567447
O2    O     O_R   0.569970 0.924470 0.582580 -0.564173
O3    O     O_R   0.569970 0.075530 0.582580 -0.569970
O4    O     O_R   0.430030 0.924470 0.417420 -0.570375
O5    O     O_R   0.930030 0.575530 0.417420 -0.568488
O6    O     O_R   0.069970 0.424470 0.582580 -0.567450
O7    O     O_R   0.069970 0.575530 0.582580 -0.568412
O8    O     O_R   0.930030 0.424470 0.417420 -0.567943
O9    O     O_R   0.416860 0.075510 0.614610 -0.619891
O10   O     O_R   0.583140 0.924490 0.385390 -0.626594
O11   O     O_R   0.583140 0.075510 0.385390 -0.610154
O12   O     O_R   0.416860 0.924490 0.614610 -0.603510
O13   O     O_R   0.916860 0.575510 0.614610 -0.621204
O14   O     O_R   0.083140 0.424490 0.385390 -0.597338
O15   O     O_R   0.083140 0.575510 0.385390 -0.624109
O16   O     O_R   0.916860 0.424490 0.614610 -0.600074
C65   C     C_3   0.660408 0.970479 0.178631 -0.348500
C66   C     C_3   0.743099 0.967466 0.104503 -0.916897
H1    H     H_    0.747239 0.935396 0.023858 0.266211
H2    H     H_    0.767074 0.021585 0.085885 0.277854
H3    H     H_    0.779418 0.940572 0.155296 0.246677
H4    H     H_    0.664647 0.000879 0.256805 0.260283
H5    H     H_    0.647436 0.913930 0.197885 0.223259
C67   C     C_3   0.333633 0.998915 0.825708 -0.339346
C68   C     C_3   0.290396 0.930479 0.868826 -0.860495
H6    H     H_    0.329267 0.884407 0.845842 0.256709
H7    H     H_    0.267188 0.931646 0.964886 0.254832
H8    H     H_    0.241518 0.923406 0.827107 0.245827
H9    H     H_    0.295865 0.045188 0.856628 0.174683
H10   H     H_    0.340278 0.000134 0.732126 0.263966
C69   C     C_3   0.166071 0.502939 0.176391 -0.319793
C70   C     C_3   0.217209 0.439481 0.127394 -0.885595
H11   H     H_    0.192013 0.405268 0.069057 0.252620
H12   H     H_    0.274553 0.457966 0.077722 0.257010
H13   H     H_    0.225360 0.406902 0.200878 0.252745
H14   H     H_    0.198331 0.553073 0.150949 0.166758
H15   H     H_    0.159172 0.501374 0.269821 0.262238
C71   C     C_3   0.833895 0.494298 0.823586 -0.333801
C72   C     C_3   0.795709 0.422172 0.855823 -0.848050
H16   H     H_    0.838585 0.379306 0.830527 0.259483
H17   H     H_    0.769868 0.418509 0.950955 0.252686
H18   H     H_    0.749394 0.413807 0.809230 0.243432
H19   H     H_    0.792756 0.537208 0.860641 0.170308
H20   H     H_    0.840161 0.500999 0.730837 0.260618
C73   C     C_1   0.382482 0.003133 0.245473 0.364414
N5    N     N_1   0.323462 0.002036 0.312343 -0.299934
C74   C     C_1   0.617480 0.002843 0.753315 0.357086
N6    N     N_1   0.676138 0.002617 0.685502 -0.313341
C75   C     C_1   0.882691 0.501154 0.247053 0.356356
N7    N     N_1   0.824105 0.500732 0.315072 -0.307054
C76   C     C_1   0.117200 0.503094 0.753154 0.355402
N8    N     N_1   0.175811 0.502729 0.685177 -0.311163
C77   C     C_1   0.618581 0.189135 0.682477 0.270705
N9    N     N_1   0.576584 0.185584 0.773773 -0.311399
C78   C     C_1   0.390537 0.812297 0.311954 0.282772
N10   N     N_1   0.433833 0.820009 0.222590 -0.315389
C79   C     C_1   0.392590 0.182307 0.310652 0.283402
N11   N     N_1   0.432262 0.166916 0.220963 -0.301033
C80   C     C_1   0.611289 0.814597 0.686336 0.289291
N12   N     N_1   0.568080 0.823039 0.775771 -0.316853
C81   C     C_1   0.114895 0.690169 0.683182 0.263835
N13   N     N_1   0.071817 0.686604 0.773551 -0.305031
C82   C     C_1   0.895162 0.309337 0.311318 0.278560
N14   N     N_1   0.940497 0.315238 0.223482 -0.313120
C83   C     C_1   0.888334 0.689321 0.317368 0.260581
N15   N     N_1   0.932298 0.684596 0.227862 -0.303714
C84   C     C_1   0.119472 0.315521 0.681998 0.283847
N16   N     N_1   0.074678 0.319564 0.770842 -0.320542
C85   C     C_3   0.605601 0.214073 0.291816 -0.336674
C86   C     C_3   0.580663 0.290671 0.278365 -0.820817
H21   H     H_    0.599623 0.327556 0.339857 0.264326
H22   H     H_    0.603469 0.308470 0.187168 0.246526
H23   H     H_    0.517136 0.294131 0.296906 0.232650
H24   H     H_    0.627572 0.188121 0.205354 0.195815
H25   H     H_    0.551446 0.186501 0.332717 0.225013
C87   C     C_3   0.403497 0.776109 0.697303 -0.393209
C88   C     C_3   0.459551 0.716288 0.648149 -0.848432
H26   H     H_    0.429769 0.669633 0.621457 0.252553
H27   H     H_    0.503244 0.735606 0.571527 0.253519
H28   H     H_    0.489722 0.699224 0.715188 0.256325
H29   H     H_    0.438249 0.823665 0.701072 0.248726
H30   H     H_    0.376742 0.765720 0.790151 0.204725
C89   C     C_3   0.408342 0.221503 0.697630 -0.355276
C90   C     C_3   0.445711 0.294905 0.685671 -0.824693
H31   H     H_    0.476879 0.303848 0.593334 0.248379
H32   H     H_    0.403102 0.337523 0.712650 0.268468
H33   H     H_    0.487451 0.298649 0.741322 0.252034
H34   H     H_    0.385511 0.206880 0.790339 0.193594
H35   H     H_    0.457118 0.185258 0.665096 0.232000
C91   C     C_3   0.601128 0.777638 0.296188 -0.392344
C92   C     C_3   0.555971 0.707735 0.318346 -0.843245
H36   H     H_    0.587547 0.665763 0.352829 0.254403
H37   H     H_    0.500186 0.716092 0.382224 0.247512
H38   H     H_    0.543351 0.688407 0.235703 0.254807
H39   H     H_    0.557116 0.819289 0.311412 0.240532
H40   H     H_    0.630455 0.782144 0.202512 0.203851
C93   C     C_3   0.101863 0.715748 0.295499 -0.339330
C94   C     C_3   0.075374 0.792223 0.284859 -0.800698
H41   H     H_    0.093587 0.828554 0.347819 0.261749
H42   H     H_    0.097991 0.811365 0.194416 0.243057
H43   H     H_    0.011744 0.794951 0.303036 0.242072
H44   H     H_    0.123631 0.690822 0.208147 0.188691
H45   H     H_    0.048499 0.687052 0.336560 0.228105
C95   C     C_3   0.911831 0.271591 0.682777 -0.401118
C96   C     C_3   0.966423 0.214112 0.619105 -0.839122
H46   H     H_    0.934745 0.164707 0.609231 0.252888
H47   H     H_    0.996808 0.232905 0.531008 0.246196
H48   H     H_    0.009750 0.201728 0.669184 0.254880
H49   H     H_    0.946843 0.319197 0.686113 0.245039
H50   H     H_    0.890253 0.257219 0.775582 0.207765
C97   C     C_3   0.897647 0.716570 0.706357 -0.341924
C98   C     C_3   0.925415 0.792808 0.717831 -0.803679
H51   H     H_    0.908877 0.828805 0.653946 0.261970
H52   H     H_    0.902146 0.812965 0.807989 0.242782
H53   H     H_    0.989011 0.794626 0.701572 0.243469
H54   H     H_    0.874727 0.692470 0.793457 0.188875
H55   H     H_    0.950764 0.687092 0.666421 0.228023
C99   C     C_3   0.120948 0.284960 0.287369 -0.380368
C100  C     C_3   0.112627 0.205459 0.267278 -0.827291
H56   H     H_    0.166713 0.182705 0.213621 0.265407
H57   H     H_    0.096699 0.177461 0.352235 0.255144
H58   H     H_    0.066699 0.196347 0.220207 0.255003
H59   H     H_    0.062278 0.303597 0.330279 0.228261
H60   H     H_    0.137504 0.312490 0.202605 0.214826
C101  C     C_3   0.766751 0.189769 0.745749 -0.351153
C102  C     C_3   0.727642 0.231216 0.856540 -0.808328
H61   H     H_    0.769566 0.264699 0.887764 0.231621
H62   H     H_    0.681821 0.266271 0.840318 0.259811
H63   H     H_    0.701663 0.193981 0.927491 0.256319
H64   H     H_    0.732207 0.143146 0.733674 0.227788
H65   H     H_    0.819621 0.164387 0.758683 0.216737
C103  C     C_3   0.258200 0.780173 0.222163 -0.379143
C104  C     C_3   0.254974 0.861293 0.217977 -0.766825
H66   H     H_    0.204812 0.879203 0.186462 0.235783
H67   H     H_    0.250459 0.885234 0.305507 0.268041
H68   H     H_    0.307176 0.881747 0.156009 0.243622
H69   H     H_    0.316177 0.759519 0.181763 0.198047
H70   H     H_    0.225935 0.759315 0.160149 0.200293
C105  C     C_3   0.293974 0.267012 0.211381 -0.390237
C106  C     C_3   0.364453 0.316101 0.184182 -0.811538
H71   H     H_    0.347101 0.372052 0.180520 0.239881
H72   H     H_    0.397896 0.313617 0.251543 0.248121
H73   H     H_    0.402291 0.301458 0.098045 0.255470
H74   H     H_    0.307798 0.211682 0.182700 0.220256
H75   H     H_    0.258389 0.284154 0.152065 0.203489
C107  C     C_3   0.742592 0.783211 0.776864 -0.381189
C108  C     C_3   0.746804 0.864336 0.780767 -0.766122
H76   H     H_    0.750524 0.887466 0.693529 0.268649
H77   H     H_    0.695324 0.885438 0.843888 0.243478
H78   H     H_    0.797797 0.882408 0.810543 0.236634
H79   H     H_    0.684398 0.763076 0.817057 0.197303
H80   H     H_    0.774270 0.762956 0.839425 0.200831
C109  C     C_3   0.261482 0.691055 0.749639 -0.355048
C110  C     C_3   0.218493 0.731394 0.859540 -0.806332
H81   H     H_    0.258219 0.763437 0.897920 0.228282
H82   H     H_    0.175024 0.767875 0.839687 0.261725
H83   H     H_    0.189085 0.693170 0.926771 0.252592
H84   H     H_    0.228990 0.643317 0.735445 0.223661
H85   H     H_    0.314019 0.667029 0.766278 0.220099
C111  C     C_3   0.763350 0.275975 0.218675 -0.380974
C112  C     C_3   0.761081 0.357005 0.211285 -0.763397
H86   H     H_    0.712646 0.374531 0.175187 0.238672
H87   H     H_    0.754278 0.382190 0.298420 0.267635
H88   H     H_    0.814739 0.376473 0.151631 0.244672
H89   H     H_    0.821496 0.254799 0.180801 0.198581
H90   H     H_    0.731716 0.254296 0.156395 0.201895
C113  C     C_3   0.747976 0.700468 0.237787 -0.359857
C114  C     C_3   0.793767 0.747203 0.139381 -0.815959
H91   H     H_    0.755817 0.785789 0.110497 0.232644
H92   H     H_    0.838963 0.777743 0.168136 0.263231
H93   H     H_    0.821173 0.713502 0.063145 0.249037
H94   H     H_    0.779133 0.651159 0.245939 0.221346
H95   H     H_    0.698063 0.678961 0.209272 0.226320
C115  C     C_3   0.251335 0.287086 0.773783 -0.397983
C116  C     C_3   0.252424 0.368196 0.782949 -0.763202
H96   H     H_    0.267323 0.393219 0.695533 0.267806
H97   H     H_    0.195505 0.387520 0.832620 0.249823
H98   H     H_    0.294854 0.385967 0.832027 0.236170
H99   H     H_    0.193863 0.264944 0.812898 0.201710
H100  H     H_    0.283684 0.266967 0.835322 0.198967
C117  C     C_1   0.326349 0.043207 0.056931 0.200006
N17   N     N_1   0.267815 0.064776 0.109914 -0.302983
C118  C     C_1   0.675470 0.034759 0.943714 0.226683
N18   N     N_1   0.735169 0.052827 0.889950 -0.317358
C119  C     C_1   0.821676 0.525876 0.058988 0.189026
N19   N     N_1   0.760041 0.538592 0.112476 -0.306794
C120  C     C_1   0.177440 0.530314 0.941958 0.209860
N20   N     N_1   0.238980 0.543763 0.889170 -0.308116

loop_
_geom_bond_atom_site_label_1
_geom_bond_atom_site_label_2
_ccdc_geom_bond_type
C22   C73   S    
C6    C32   S    
C99   C100  S    
C7    C29   S    
C67   H10   S    
C36   C115  S    
C93   C94   S    
C14   C18   A    
C30   C45   A    
C113  C114  S    
C53   C82   S    
C1    O1    A    
C70   H12   S    
C68   H6    S    
Cu1   O10   S    
Cu1   O1    S    
C76   N8    T    
C115  H100  S    
C104  H66   S    
C10   C22   A    
C95   H50   S    
C15   N4    A    
C17   C117  S    
C59   C64   A    
C109  H85   S    
Cu1   O4    S    
C60   C63   A    
C52   C79   S    
C104  H68   S    
C7    O7    A    
C90   H31   S    
C92   H37   S    
C79   N11   T    
C33   C109  S    
C88   H27   S    
C117  N17   T    
C28   C51   A    
Cu1   O11   S    
C88   H26   S    
C107  H79   S    
C13   N2    A    
C39   C60   A    
C10   C17   A    
C1    O9    A    
Cu2   O2    S    
C113  H95   S    
C55   C84   S    
C98   H51   S    
C119  N19   T    
C65   H4    S    
C66   H1    S    
C25   C50   A    
C114  H91   S    
C52   C60   A    
C71   C72   S    
C53   C61   A    
C27   C44   A    
C7    O15   A    
C92   H36   S    
C34   C42   A    
C96   H47   S    
C55   C63   A    
C103  H69   S    
C29   C46   A    
C93   H44   S    
C56   C64   A    
C102  H61   S    
C37   C101  S    
C31   C56   A    
C36   C63   A    
C3    O3    A    
C112  H86   S    
C22   N1    A    
C37   C58   A    
C2    O2    A    
C36   C44   A    
C16   C20   A    
C5    O13   A    
Cu4   O7    S    
C116  H97   S    
C105  H74   S    
C40   C59   A    
C38   C103  S    
C67   H9    S    
C111  H90   S    
Cu4   O13   S    
C15   C71   S    
C101  C102  S    
C16   N3    A    
C87   H30   S    
C42   C85   S    
C49   C78   S    
C97   H55   S    
C70   H11   S    
C68   H7    S    
C115  H99   S    
C104  H67   S    
Cu4   O6    S    
C95   H49   S    
C105  H75   S    
C30   C53   A    
C11   C20   A    
C86   H23   S    
C110  H81   S    
Cu2   O9    S    
C13   C67   S    
Cu3   Cu4   S    
C50   C58   A    
C11   C12   A    
C82   N14   T    
C92   H38   S    
C35   C113  S    
C87   C88   S    
C26   C49   A    
C108  H76   S    
C51   C80   S    
C33   C62   A    
C23   C76   S    
C54   C62   A    
C57   C62   A    
C54   C81   S    
C114  H93   S    
C89   H35   S    
C100  H56   S    
C8    O16   A    
C65   H5    S    
C15   C19   A    
C97   C98   S    
C100  H57   S    
C14   C65   S    
Cu3   O5    S    
C108  H77   S    
C38   C57   A    
C16   C69   S    
C66   H2    S    
C105  C106  S    
C4    O12   A    
C106  H73   S    
C3    C25   S    
Cu4   N4    S    
C96   H48   S    
C67   C68   S    
C102  H63   S    
C114  H92   S    
C109  C110  S    
C93   H45   S    
C39   C105  S    
C101  H64   S    
C72   H17   S    
C50   C77   S    
C103  C104  S    
C74   N6    T    
C112  H87   S    
C48   C97   S    
C75   N7    T    
C113  H94   S    
C85   H24   S    
C91   H40   S    
C99   H59   S    
C95   C96   S    
C106  H72   S    
Cu1   Cu2   S    
C110  H82   S    
C31   C48   A    
C85   C86   S    
C3    O11   A    
C81   N13   T    
Cu4   O16   S    
C32   C47   A    
C86   H22   S    
C35   C64   A    
C88   H28   S    
C1    C27   S    
C51   C59   A    
C87   H29   S    
C5    O5    A    
C120  N20   T    
C2    O10   A    
C71   H20   S    
C69   C70   S    
C68   H8    S    
C35   C43   A    
C27   C52   A    
C84   N16   T    
C66   H3    S    
C39   C47   A    
C91   C92   S    
C9    C10   A    
C116  H98   S    
C40   C48   A    
C115  C116  S    
Cu3   O14   S    
C32   C55   A    
C72   H16   S    
C40   C107  S    
C89   H34   S    
C44   C89   S    
C23   N4    A    
C90   H33   S    
C34   C111  S    
Cu3   O8    S    
C45   C95   S    
C102  H62   S    
C25   C42   A    
C19   C119  S    
C49   C57   A    
C4    C26   S    
C116  H96   S    
C46   C93   S    
C107  H80   S    
C78   N10   T    
C99   H60   S    
C18   C118  S    
Cu2   N2    S    
C110  H83   S    
C83   N15   T    
C12   C24   A    
C28   C43   A    
Cu3   O15   S    
C109  H84   S    
C6    O14   A    
C98   H53   S    
C13   C17   A    
C21   N2    A    
C69   H15   S    
C29   C54   A    
C33   C41   A    
C47   C99   S    
C90   H32   S    
C100  H58   S    
C8    C30   S    
C21   C74   S    
C97   H54   S    
C108  H78   S    
C56   C83   S    
C9    C21   A    
C107  C108  S    
C77   N9    T    
C41   C87   S    
C94   H42   S    
C58   C61   A    
Cu1   N1    S    
Cu2   O3    S    
C12   C19   A    
C11   C23   A    
C24   C75   S    
C14   N1    A    
C98   H52   S    
C101  H65   S    
C72   H18   S    
Cu3   N3    S    
C34   C61   A    
C80   N12   T    
C4    O4    A    
C112  H88   S    
C38   C46   A    
C6    O6    A    
C111  H89   S    
C85   H25   S    
C20   C120  S    
Cu2   O12   S    
C91   H39   S    
C43   C91   S    
C9    C18   A    
C106  H71   S    
C26   C41   A    
C96   H46   S    
C94   H41   S    
C103  H70   S    
C89   C90   S    
C8    O8    A    
C86   H21   S    
C69   H14   S    
C2    C28   S    
C65   C66   S    
C73   N5    T    
C37   C45   A    
C71   H19   S    
C70   H13   S    
C118  N18   T    
C24   N3    A    
C111  C112  S    
C5    C31   S    
C94   H43   S    
