data_mof_unit_3444.cif
_audit_creation_date              2012-12-11T14:42:19-0500
_audit_creation_method            fapswitch 2.2
_symmetry_space_group_name_H-M    P1
_symmetry_Int_Tables_number       1
_space_group_crystal_system       triclinic
_cell_length_a                    18.991558
_cell_length_b                    10.903935
_cell_length_c                    18.760409
_cell_angle_alpha                 90.311966
_cell_angle_beta                  90.236106
_cell_angle_gamma                 90.045957
_cell_volume                      3884.86451837

loop_
_atom_site_label
_atom_site_type_symbol
_atom_type_description
_atom_site_fract_x
_atom_site_fract_y
_atom_site_fract_z
_atom_type_partial_charge
C1    C     C_R   0.727490 0.955695 0.853258 0.561186
C2    C     C_R   0.248328 0.415776 0.923576 0.027841
C3    C     C_R   0.261790 0.932663 0.070191 0.033104
C4    C     C_R   0.748326 0.915758 0.923574 0.027851
C5    C     C_R   0.819991 0.400596 0.028393 -0.130142
C6    C     C_R   0.209171 0.323551 0.955767 -0.139364
C7    C     C_R   0.320014 0.900719 0.028376 -0.130120
C8    C     C_R   0.709118 0.823613 0.955781 -0.139361
C9    C     C_R   0.814198 0.396328 0.955544 -0.132770
C10   C     C_R   0.212769 0.309370 0.028343 -0.124627
C11   C     C_R   0.314211 0.896441 0.955526 -0.132790
C12   C     C_R   0.274443 0.958936 0.144819 0.556966
C13   C     C_R   0.712708 0.809459 0.028358 -0.124635
C14   C     C_R   0.748771 0.415427 0.923144 0.030453
C15   C     C_R   0.257147 0.384920 0.069857 0.034461
C16   C     C_R   0.248767 0.915445 0.923140 0.030439
C17   C     C_R   0.757139 0.884939 0.069859 0.034462
C18   C     C_R   0.478178 0.277804 0.542227 0.110595
C19   C     C_R   0.491778 0.285171 0.469932 0.111678
C20   C     C_R   0.978178 0.777804 0.542227 0.110595
C21   C     C_R   0.991778 0.785171 0.469932 0.111678
C22   C     C_R   0.494779 0.174849 0.429456 0.016012
C23   C     C_R   0.227489 0.455700 0.853260 0.561181
C24   C     C_R   0.492999 0.167229 0.577153 0.015363
C25   C     C_R   0.994779 0.674849 0.429456 0.016012
C26   C     C_R   0.992999 0.667229 0.577153 0.015364
C27   C     C_R   0.498895 0.061808 0.464181 -0.179143
C28   C     C_R   0.499992 0.058294 0.537944 -0.176028
C29   C     C_R   0.998895 0.561808 0.464181 -0.179143
C30   C     C_R   0.999992 0.558294 0.537944 -0.176028
C31   C     C_R   0.821998 0.401724 0.547659 -0.130937
C32   C     C_R   0.178665 0.392345 0.454026 -0.131111
C33   C     C_R   0.321997 0.901723 0.547659 -0.130937
C34   C     C_R   0.774441 0.458931 0.144821 0.556975
C35   C     C_R   0.678665 0.892345 0.454026 -0.131111
C36   C     C_R   0.832766 0.429305 0.476738 -0.128991
C37   C     C_R   0.167669 0.420901 0.524779 -0.129029
C38   C     C_R   0.332766 0.929305 0.476738 -0.128991
C39   C     C_R   0.667669 0.920901 0.524779 -0.129029
C40   C     C_R   0.530071 0.177591 0.851083 0.556826
C41   C     C_R   0.470746 0.177457 0.149468 0.555754
C42   C     C_R   0.030069 0.677591 0.851082 0.556821
C43   C     C_R   0.970743 0.677457 0.149466 0.555759
C44   C     C_R   0.779201 0.483781 0.436547 0.022830
C45   C     C_R   0.697333 0.461356 0.037783 -0.148143
C46   C     C_R   0.218064 0.487857 0.563103 0.026395
C47   C     C_R   0.279201 0.983781 0.436547 0.022829
C48   C     C_R   0.718064 0.987856 0.563103 0.026396
C49   C     C_R   0.716361 0.519509 0.470086 -0.114064
C50   C     C_R   0.276185 0.537466 0.527018 -0.106756
C51   C     C_R   0.216361 0.019509 0.470086 -0.114064
C52   C     C_R   0.776185 0.037466 0.527018 -0.106756
C53   C     C_R   0.704605 0.488584 0.541141 -0.116753
C54   C     C_R   0.289084 0.504062 0.456165 -0.110846
C55   C     C_R   0.204605 0.988584 0.541141 -0.116753
C56   C     C_R   0.296316 0.486505 0.963923 -0.132791
C57   C     C_R   0.789084 0.004062 0.456165 -0.110846
C58   C     C_R   0.756494 0.424885 0.579407 0.023585
C59   C     C_R   0.241673 0.426394 0.420372 0.024191
C60   C     C_R   0.256494 0.924885 0.579407 0.023585
C61   C     C_R   0.741673 0.926394 0.420372 0.024191
C62   C     C_R   0.738463 0.365700 0.852216 0.546388
C63   C     C_R   0.263222 0.357796 0.145032 0.549095
C64   C     C_R   0.238462 0.865701 0.852216 0.546381
C65   C     C_R   0.763220 0.857801 0.145034 0.549101
C66   C     C_R   0.708623 0.003705 0.640138 0.569580
C67   C     C_R   0.197324 0.961294 0.037789 -0.148196
C68   C     C_R   0.290488 0.002211 0.360210 0.564140
C69   C     C_R   0.208623 0.503705 0.640138 0.569580
C70   C     C_R   0.790488 0.502211 0.360210 0.564139
C71   C     C_R   0.526740 0.175705 0.646431 0.559173
C72   C     C_R   0.470563 0.177429 0.355917 0.555456
C73   C     C_R   0.026740 0.675705 0.646431 0.559173
C74   C     C_R   0.970563 0.677429 0.355917 0.555457
C75   C     C_R   0.740183 0.364534 0.646896 0.535339
C76   C     C_R   0.259561 0.365175 0.353054 0.540664
C77   C     C_R   0.240183 0.864534 0.646896 0.535339
C78   C     C_R   0.796359 0.986420 0.963907 -0.132794
C79   C     C_R   0.759561 0.865175 0.353054 0.540663
C80   C     C_2   0.498922 0.167741 0.921899 -0.111343
C81   C     C_2   0.504251 0.168941 0.079727 -0.105361
C82   C     C_2   0.998913 0.667745 0.921894 -0.111344
C83   C     C_2   0.004242 0.668934 0.079723 -0.105366
C84   C     C_2   0.497181 0.067892 0.039261 -0.160584
C85   C     C_2   0.512285 0.069071 0.962611 -0.163329
C86   C     C_2   0.997149 0.567894 0.039253 -0.160558
C87   C     C_2   0.012259 0.569067 0.962604 -0.163321
C88   C     C_R   0.690597 0.451705 0.964163 -0.142217
C89   C     C_R   0.761781 0.432639 0.070197 0.033111
C90   C     C_R   0.300912 0.470593 0.037179 -0.140721
C91   C     C_R   0.190582 0.951644 0.964170 -0.142235
C92   C     C_R   0.800954 0.970524 0.037165 -0.140709
Cr1   Cr    Cr6+3 0.769270 0.163730 0.750710 1.037409
Cr2   Cr    Cr6+3 0.385840 0.322500 0.252290 1.050326
Cr3   Cr    Cr6+3 0.114160 0.822500 0.747710 1.045347
Cr4   Cr    Cr6+3 0.885840 0.822500 0.252290 1.050322
Cr5   Cr    Cr6+3 0.230730 0.163730 0.249290 1.030376
Cr6   Cr    Cr6+3 0.269270 0.663730 0.750710 1.037411
Cr7   Cr    Cr6+3 0.730730 0.663730 0.249290 1.030373
Cr8   Cr    Cr6+3 0.612620 0.009790 0.748780 1.017082
Cr9   Cr    Cr6+3 0.387380 0.009790 0.251220 1.018986
Cr10  Cr    Cr6+3 0.112620 0.509790 0.748780 1.017088
Cr11  Cr    Cr6+3 0.887380 0.509790 0.251220 1.018992
Cr12  Cr    Cr6+3 0.614160 0.322500 0.747710 1.045356
H1    H     H_    0.479198 0.982450 0.062266 0.142670
H2    H     H_    0.313342 0.596529 0.554484 0.163051
H3    H     H_    0.175252 0.066100 0.440721 0.163289
H4    H     H_    0.813342 0.096529 0.554484 0.163051
H5    H     H_    0.653930 0.508695 0.564747 0.161843
H6    H     H_    0.337105 0.534220 0.430722 0.163470
H7    H     H_    0.153930 0.008695 0.564747 0.161843
H8    H     H_    0.837105 0.034220 0.430722 0.163470
H9    H     H_    0.525692 0.252571 0.057164 0.108611
H10   H     H_    0.473613 0.248370 0.944413 0.110838
H11   H     H_    0.025700 0.752553 0.057162 0.108589
H12   H     H_    0.535970 0.987124 0.939910 0.157044
H13   H     H_    0.973612 0.748381 0.944408 0.110834
H14   H     H_    0.639396 0.466195 0.940002 0.131696
H15   H     H_    0.337124 0.526352 0.068200 0.126485
H16   H     H_    0.139367 0.966060 0.940020 0.131717
H17   H     H_    0.837207 0.026224 0.068175 0.126488
H18   H     H_    0.652489 0.489959 0.069244 0.121104
H19   H     H_    0.327152 0.558669 0.939736 0.138650
H20   H     H_    0.152468 0.989823 0.069260 0.121099
H21   H     H_    0.827237 0.058519 0.939707 0.138608
H22   H     H_    0.870882 0.380803 0.051690 0.128369
H23   H     H_    0.979141 0.482464 0.062253 0.142699
H24   H     H_    0.172644 0.267063 0.925519 0.130822
H25   H     H_    0.370919 0.881000 0.051666 0.128374
H26   H     H_    0.672554 0.767174 0.925546 0.130819
H27   H     H_    0.860035 0.369338 0.925011 0.132556
H28   H     H_    0.180635 0.238119 0.051703 0.140882
H29   H     H_    0.360056 0.869517 0.924982 0.132544
H30   H     H_    0.680530 0.738275 0.051727 0.140853
H31   H     H_    0.501381 0.976635 0.434317 0.133571
H32   H     H_    0.508614 0.971495 0.564264 0.133056
H33   H     H_    0.001381 0.476635 0.434317 0.133571
H34   H     H_    0.035933 0.487112 0.939903 0.157046
H35   H     H_    0.008614 0.471495 0.564264 0.133056
H36   H     H_    0.863653 0.354675 0.576088 0.142650
H37   H     H_    0.139675 0.335396 0.427547 0.143956
H38   H     H_    0.363653 0.854676 0.576088 0.142650
H39   H     H_    0.639675 0.835396 0.427547 0.143956
H40   H     H_    0.882186 0.403258 0.452574 0.137285
H41   H     H_    0.121033 0.385120 0.550245 0.134971
H42   H     H_    0.382185 0.903258 0.452574 0.137285
H43   H     H_    0.621033 0.885120 0.550245 0.134971
H44   H     H_    0.675252 0.566100 0.440721 0.163289
I1    I     I_    0.436265 0.433713 0.598480 -0.342054
I2    I     I_    0.516557 0.463893 0.427961 -0.376852
I3    I     I_    0.936265 0.933713 0.598480 -0.342057
I4    I     I_    0.016556 0.963893 0.427961 -0.376851
O1    O     O_R   0.784320 0.290430 0.830510 -0.523647
O2    O     O_R   0.456080 0.282180 0.333210 -0.474032
O3    O     O_R   0.043920 0.782180 0.666790 -0.474941
O4    O     O_R   0.956080 0.782180 0.333210 -0.474031
O5    O     O_R   0.679040 0.374160 0.674430 -0.496770
O6    O     O_R   0.320960 0.374160 0.325570 -0.489706
O7    O     O_R   0.179040 0.874160 0.674430 -0.496769
O8    O     O_R   0.820960 0.874160 0.325570 -0.489706
O9    O     O_3   0.665350 0.165340 0.749070 -0.275349
O10   O     O_3   0.334650 0.165340 0.250930 -0.275693
O11   O     O_3   0.165350 0.665340 0.749070 -0.275351
O12   O     O_R   0.215680 0.290430 0.169490 -0.525575
O13   O     O_3   0.834650 0.665340 0.250930 -0.275688
O14   O     O_R   0.762640 0.040960 0.825200 -0.496493
O15   O     O_R   0.237360 0.040960 0.174800 -0.499647
O16   O     O_R   0.262640 0.540960 0.825200 -0.496500
O17   O     O_R   0.737360 0.540960 0.174800 -0.499641
O18   O     O_R   0.667400 0.923970 0.829950 -0.520411
O19   O     O_R   0.332600 0.923970 0.170050 -0.520977
O20   O     O_R   0.167400 0.423970 0.829950 -0.520393
O21   O     O_R   0.832600 0.423970 0.170050 -0.520985
O22   O     O_R   0.553960 0.081340 0.821780 -0.498503
O23   O     O_R   0.284320 0.790430 0.830510 -0.523641
O24   O     O_R   0.446040 0.081340 0.178220 -0.498933
O25   O     O_R   0.053960 0.581340 0.821780 -0.498497
O26   O     O_R   0.946040 0.581340 0.178220 -0.498926
O27   O     O_R   0.543180 0.283240 0.826740 -0.508232
O28   O     O_R   0.456820 0.283240 0.173260 -0.509127
O29   O     O_R   0.043180 0.783240 0.826740 -0.508247
O30   O     O_R   0.956820 0.783240 0.173260 -0.509133
O31   O     O_R   0.678360 0.375140 0.822710 -0.503432
O32   O     O_R   0.321640 0.375140 0.177290 -0.500096
O33   O     O_R   0.178360 0.875140 0.822710 -0.503439
O34   O     O_R   0.715680 0.790430 0.169490 -0.525585
O35   O     O_R   0.821640 0.875140 0.177290 -0.500102
O36   O     O_R   0.785050 0.289380 0.670560 -0.531190
O37   O     O_R   0.214950 0.289380 0.329440 -0.530323
O38   O     O_R   0.285050 0.789380 0.670560 -0.531190
O39   O     O_R   0.714950 0.789380 0.329440 -0.530324
O40   O     O_R   0.763320 0.039990 0.676930 -0.476633
O41   O     O_R   0.236680 0.039990 0.323070 -0.488972
O42   O     O_R   0.263320 0.539990 0.676930 -0.476630
O43   O     O_R   0.736680 0.539990 0.323070 -0.488974
O44   O     O_R   0.668130 0.922920 0.670000 -0.512814
O45   O     O_R   0.554640 0.080370 0.673500 -0.530999
O46   O     O_R   0.331870 0.922920 0.330000 -0.509607
O47   O     O_R   0.168130 0.422920 0.670000 -0.512815
O48   O     O_R   0.831870 0.422920 0.330000 -0.509608
O49   O     O_R   0.445360 0.080370 0.326500 -0.527366
O50   O     O_R   0.054640 0.580370 0.673500 -0.530999
O51   O     O_R   0.945360 0.580370 0.326500 -0.527365
O52   O     O_R   0.543920 0.282180 0.666790 -0.474942

loop_
_geom_bond_atom_site_label_1
_geom_bond_atom_site_label_2
_ccdc_geom_bond_type
C44   C49   A    
Cr7   O39   S    
C65   O35   A    
C43   O26   A    
C8    C13   A    
C30   H35   S    
C43   C83   S    
C13   H30   S    
C41   O28   A    
C75   O36   A    
C42   C82   S    
Cr12  O5    S    
C4    C8    A    
C67   H20   S    
C26   C73   S    
C12   O15   A    
Cr6   O11   S    
C7    C11   A    
C76   O6    A    
C29   C30   A    
C18   C24   A    
C77   O38   A    
Cr12  O52   S    
C31   C58   A    
C27   C28   A    
Cr9   O10   S    
C61   C79   S    
C18   C19   A    
C3    C7    A    
C10   C15   A    
C11   H29   S    
C57   H8    S    
C74   O51   A    
C42   O25   A    
C39   H43   S    
C82   C87   D    
C14   C62   S    
Cr3   O33   S    
Cr7   O43   S    
C1    O18   A    
Cr11  O21   S    
C19   I2    S    
Cr6   O42   S    
C68   O46   A    
C25   C74   S    
C21   I4    S    
Cr5   O41   S    
C48   C66   S    
C38   H42   S    
C46   C69   S    
C76   O37   A    
C62   O31   A    
C23   O20   A    
Cr10  O11   S    
C66   O40   A    
C5    H22   S    
C40   C80   S    
C44   C70   S    
C68   O41   A    
C3    C12   S    
C5    C89   A    
C18   I1    S    
C45   C89   A    
Cr2   O10   S    
C51   C55   A    
C64   O33   A    
Cr6   O38   S    
Cr8   O45   S    
C75   O5    A    
C46   C50   A    
C56   C90   A    
Cr2   O6    S    
C79   O39   A    
C55   C60   A    
C25   C29   A    
Cr4   O35   S    
C2    C6    A    
C17   C92   A    
Cr2   O32   S    
C22   C72   S    
C58   C75   S    
C71   O45   A    
C12   O19   A    
C10   H28   S    
C54   C59   A    
Cr8   O44   S    
C42   O29   A    
Cr10  O20   S    
C71   O52   A    
C3    C67   A    
C60   C77   S    
C72   O2    A    
Cr8   O18   S    
C56   H19   S    
C83   H11   S    
C82   H13   S    
C19   C22   A    
C84   C85   S    
C8    H26   S    
Cr12  O9    S    
Cr9   O46   S    
C70   O43   A    
C47   C51   A    
C78   C92   A    
Cr5   O15   S    
C49   H44   S    
C54   H6    S    
C35   C39   A    
C9    C14   A    
C5    C9    A    
C80   C85   D    
Cr3   O11   S    
C40   O27   A    
C11   C16   A    
Cr1   O9    S    
Cr2   O2    S    
Cr5   O12   S    
C41   C81   S    
C63   O12   A    
C73   O3    A    
C67   C91   A    
C84   H1    S    
C38   C47   A    
C74   O4    A    
C35   C61   A    
C50   C54   A    
C32   C37   A    
C64   O23   A    
C57   C61   A    
C32   H37   S    
Cr8   O9    S    
C34   O17   A    
C77   O7    A    
C45   C88   A    
Cr4   O8    S    
C41   O24   A    
C80   H10   S    
Cr1   O14   S    
Cr11  O13   S    
C33   C60   A    
C22   C27   A    
Cr8   O22   S    
C45   H18   S    
Cr3   O7    S    
C36   C44   A    
C87   H34   S    
C88   H14   S    
C47   C68   S    
C79   O8    A    
C81   C84   D    
C86   C87   S    
C50   H2    S    
Cr12  O31   S    
Cr1   O40   S    
C53   H5    S    
C21   C25   A    
C65   O34   A    
C70   O48   A    
C63   O32   A    
C55   H7    S    
C86   H23   S    
C31   C36   A    
C85   H12   S    
Cr3   O29   S    
C24   C28   A    
Cr4   O30   S    
C6    C10   A    
C66   O44   A    
C53   C58   A    
C62   O1    A    
C26   C30   A    
Cr7   O17   S    
C33   H38   S    
C4    C78   A    
C29   H33   S    
C73   O50   A    
Cr2   O28   S    
C43   O30   A    
C17   C65   S    
C33   C38   A    
Cr4   O13   S    
C20   I3    S    
C13   C17   A    
C28   H32   S    
Cr11  O26   S    
C27   H31   S    
C90   H15   S    
C1    C4    S    
Cr1   O1    S    
C36   H40   S    
C34   C89   S    
C14   C88   A    
C34   O21   A    
Cr9   O49   S    
Cr10  O47   S    
C15   C90   A    
C40   O22   A    
Cr6   O23   S    
Cr4   O4    S    
C20   C26   A    
C1    O14   A    
C9    H27   S    
C49   C53   A    
Cr5   O37   S    
C69   O42   A    
Cr9   O19   S    
Cr3   O3    S    
Cr11  O48   S    
Cr10  O50   S    
Cr11  O51   S    
C31   H36   S    
C7    H25   S    
C52   C57   A    
C6    H24   S    
C23   O16   A    
Cr12  O27   S    
Cr1   O36   S    
C48   C52   A    
C83   C86   D    
C20   C21   A    
C52   H4    S    
C16   C91   A    
C51   H3    S    
Cr5   O10   S    
C81   H9    S    
C2    C23   S    
C69   O47   A    
Cr10  O25   S    
C15   C63   S    
C91   H16   S    
C72   O49   A    
Cr9   O24   S    
C2    C56   A    
C16   C64   S    
C32   C59   A    
C37   H41   S    
C37   C46   A    
C92   H17   S    
C78   H21   S    
C59   C76   S    
Cr7   O34   S    
Cr6   O16   S    
C24   C71   S    
C35   H39   S    
C39   C48   A    
Cr7   O13   S    
