data_mof_unit_4930.cif
_audit_creation_date              2012-12-10T19:47:43-0500
_audit_creation_method            fapswitch 2.2
_symmetry_space_group_name_H-M    P1
_symmetry_Int_Tables_number       1
_space_group_crystal_system       triclinic
_cell_length_a                    18.531846
_cell_length_b                    18.344965
_cell_length_c                    18.32464
_cell_angle_alpha                 119.540984
_cell_angle_beta                  90.370427
_cell_angle_gamma                 120.177793
_cell_volume                      4409.36014614

loop_
_atom_site_label
_atom_site_type_symbol
_atom_type_description
_atom_site_fract_x
_atom_site_fract_y
_atom_site_fract_z
_atom_type_partial_charge
C1    C     C_R   0.640100 0.779649 0.640359 0.521448
C2    C     C_R   0.179207 0.944259 0.161999 0.068315
C3    C     C_R   0.183934 0.890979 0.195279 0.038897
C4    C     C_R   0.358078 0.219951 0.359704 0.498798
C5    C     C_R   0.230068 0.946510 0.285017 -0.021880
C6    C     C_3   0.285129 0.936995 0.335599 0.234558
C7    C     C_3   0.351323 0.057127 0.392052 0.173140
C8    C     C_R   0.781216 0.546547 0.332578 -0.045988
C9    C     C_R   0.690709 0.497383 0.298698 -0.006693
C10   C     C_R   0.653719 0.450781 0.205096 -0.004069
C11   C     C_R   0.711213 0.458418 0.153447 0.081092
C12   C     C_3   0.632726 0.400498 0.707599 0.144238
C13   C     C_R   0.803011 0.508674 0.193064 0.030636
C14   C     C_R   0.835163 0.558466 0.284037 -0.040054
C15   C     C_3   0.918007 0.618835 0.359138 0.179047
C16   C     C_R   0.362469 0.501521 0.642500 0.503395
C17   C     C_3   0.854840 0.599525 0.414634 0.150860
C18   C     C_R   0.785165 0.949861 0.707581 -0.059609
C19   C     C_R   0.696681 0.891529 0.701452 0.027380
C20   C     C_R   0.663790 0.945461 0.757386 0.076999
C21   C     C_R   0.717861 0.054690 0.812185 0.074230
C22   C     C_R   0.804485 0.109688 0.810147 0.026190
C23   C     C_3   0.694793 0.497163 0.699714 0.082542
C24   C     C_R   0.835592 0.053693 0.758454 -0.037134
C25   C     C_3   0.910577 0.066238 0.722504 0.087653
C26   C     C_3   0.851444 0.942810 0.661551 0.080475
C27   C     C_R   0.291355 0.577969 0.340012 -0.051368
C28   C     C_R   0.638949 0.498883 0.358940 0.496566
C29   C     C_R   0.326695 0.522137 0.303752 0.004228
C30   C     C_R   0.325091 0.486791 0.214181 0.000618
C31   C     C_R   0.263994 0.480129 0.158981 0.074941
C32   C     C_R   0.208806 0.511089 0.194798 0.032234
C33   C     C_R   0.228802 0.564720 0.286212 -0.006061
C34   C     C_3   0.799549 0.498051 0.799959 0.077419
C35   C     C_3   0.180523 0.580014 0.351442 0.144973
C36   C     C_3   0.257518 0.605531 0.416205 -0.068475
C37   C     C_R   0.282027 0.565507 0.730294 -0.052728
C38   C     C_R   0.313510 0.504907 0.705368 -0.001854
C39   C     C_R   0.294349 0.447164 0.743416 -0.004744
C40   C     C_R   0.365049 0.505479 0.358976 0.499421
C41   C     C_R   0.241880 0.451479 0.800080 0.076644
C42   C     C_R   0.201647 0.503378 0.811507 0.037695
C43   C     C_R   0.224110 0.558647 0.775120 -0.008410
C44   C     C_3   0.209987 0.629053 0.769587 0.157430
C45   C     C_3   0.794361 0.594457 0.858279 -0.077278
C46   C     C_3   0.279422 0.640765 0.720299 -0.075388
C47   C     C_R   0.860199 0.503036 0.139511 0.523623
C48   C     C_R   0.141147 0.501131 0.861707 0.529262
C49   C     C_R   0.137851 0.779738 0.139678 0.550209
C50   C     C_R   0.860270 0.220763 0.861223 0.509346
C51   C     C_R   0.142025 0.500823 0.140718 0.527978
C52   C     C_R   0.640177 0.499459 0.641379 0.517628
C53   C     C_R   0.858721 0.499665 0.858354 0.535731
C54   C     C_3   0.770289 0.492679 0.659887 -0.008080
C55   C     C_3   0.840141 0.507088 0.724845 0.219152
C56   C     C_3   0.698218 0.392794 0.757372 0.150828
C57   C     C_3   0.745834 0.604744 0.796165 0.177226
C58   C     C_3   0.221784 0.110892 0.182531 -0.248847
C59   C     C_3   0.181564 0.166133 0.236344 -0.414320
C60   C     C_3   0.444236 0.106616 0.382152 -0.223297
C61   C     C_3   0.506278 0.091895 0.419541 -0.440726
C62   C     C_3   0.554562 0.388807 0.157066 -0.247432
C63   C     C_3   0.505423 0.277989 0.129588 -0.408103
C64   C     C_3   0.980330 0.730959 0.386262 -0.192451
C65   C     C_3   0.058377 0.801618 0.472584 -0.436453
C66   C     C_3   0.840743 0.523894 0.438532 -0.227655
C67   C     C_R   0.286178 0.051629 0.335801 -0.027458
C68   C     C_3   0.912605 0.574682 0.523032 -0.430797
C69   C     C_3   0.919615 0.118657 0.673643 -0.255121
C70   C     C_3   0.001174 0.147330 0.643907 -0.461363
C71   C     C_3   0.000872 0.129086 0.797254 -0.216350
C72   C     C_3   0.997395 0.125510 0.879394 -0.414038
C73   C     C_3   0.803405 0.882222 0.559133 -0.247736
C74   C     C_3   0.861698 0.891980 0.500947 -0.454560
C75   C     C_3   0.881124 0.887266 0.683121 -0.219006
C76   C     C_3   0.973936 0.913622 0.682898 -0.445693
C77   C     C_3   0.392865 0.467463 0.180775 -0.262525
C78   C     C_R   0.292925 0.108274 0.302961 -0.004353
C79   C     C_3   0.486506 0.567667 0.232919 -0.435625
C80   C     C_3   0.090020 0.478916 0.320396 -0.230951
C81   C     C_3   0.059795 0.478344 0.397963 -0.453999
C82   C     C_3   0.327419 0.719606 0.493304 -0.264720
C83   C     C_3   0.301526 0.750655 0.576426 -0.460677
C84   C     C_3   0.324563 0.377661 0.723233 -0.241449
C85   C     C_3   0.258393 0.270486 0.637351 -0.409727
C86   C     C_3   0.114701 0.571673 0.710111 -0.235890
C87   C     C_3   0.105838 0.632999 0.681425 -0.467038
C88   C     C_3   0.371198 0.745815 0.768519 -0.266545
C89   C     C_R   0.231894 0.054223 0.216732 -0.005578
C90   C     C_3   0.366670 0.835783 0.792011 -0.464634
C91   C     C_3   0.879146 0.698823 0.938379 -0.282326
C92   C     C_3   0.886096 0.706242 0.025790 -0.440336
C93   C     C_3   0.567250 0.415644 0.760845 -0.208912
C94   C     C_3   0.481088 0.317884 0.742130 -0.466351
C95   C     C_3   0.695655 0.293048 0.692549 -0.168878
C96   C     C_3   0.621955 0.192347 0.679643 -0.420359
H1    H     H_    0.806014 0.561464 0.658271 0.203827
H2    H     H_    0.174264 0.205080 0.208856 0.130366
H3    H     H_    0.293541 0.443370 0.892195 0.219935
H4    H     H_    0.202488 0.327648 0.804207 0.214917
H5    H     H_    0.117380 0.704138 0.739628 0.146556
H6    H     H_    0.152769 0.653249 0.646243 0.138774
H7    H     H_    0.037838 0.585249 0.634684 0.122709
H8    H     H_    0.093952 0.496693 0.648938 0.112132
H9    H     H_    0.068010 0.554580 0.746434 0.188531
H10   H     H_    0.940652 0.624633 0.717910 0.199974
H11   H     H_    0.977102 0.619185 0.795079 0.276138
H12   H     H_    0.299569 0.753676 0.898431 0.226688
H13   H     H_    0.114963 0.109491 0.231807 0.131888
H14   H     H_    0.234022 0.772218 0.855093 0.225832
H15   H     H_    0.302689 0.808830 0.752023 0.154892
H16   H     H_    0.375795 0.881873 0.863810 0.136219
H17   H     H_    0.420798 0.888559 0.780166 0.127684
H18   H     H_    0.408139 0.764148 0.830041 0.142671
H19   H     H_    0.410341 0.738782 0.723157 0.201413
H20   H     H_    0.873304 0.716861 0.807536 0.244219
H21   H     H_    0.808096 0.755929 0.830719 0.219932
H22   H     H_    0.826917 0.697503 0.044856 0.125964
H23   H     H_    0.892303 0.646960 0.020379 0.164463
H24   H     H_    0.285513 0.164677 0.181031 0.175506
H25   H     H_    0.945261 0.782843 0.080437 0.142760
H26   H     H_    0.941146 0.714039 0.924066 0.210769
H27   H     H_    0.876958 0.763844 0.952778 0.134494
H28   H     H_    0.425921 0.291204 0.689872 0.149229
H29   H     H_    0.485142 0.252119 0.717460 0.155133
H30   H     H_    0.462664 0.335249 0.803220 0.117592
H31   H     H_    0.601352 0.468803 0.833668 0.140925
H32   H     H_    0.544011 0.453812 0.747064 0.190106
H33   H     H_    0.510068 0.278052 0.600645 0.285501
H34   H     H_    0.592730 0.310148 0.566703 0.220771
H35   H     H_    0.178255 0.058959 0.112246 0.114668
H36   H     H_    0.623467 0.127964 0.627139 0.110854
H37   H     H_    0.632503 0.196427 0.741656 0.173138
H38   H     H_    0.555584 0.173696 0.657736 0.156808
H39   H     H_    0.686807 0.273509 0.624726 0.130842
H40   H     H_    0.758612 0.305666 0.716510 0.156210
H41   H     H_    0.075071 0.902463 0.074448 0.211780
H42   H     H_    0.159515 0.905729 0.035278 0.227731
H43   H     H_    0.199751 0.922025 0.408807 0.205614
H44   H     H_    0.194982 0.816068 0.341330 0.279570
H45   H     H_    0.356898 0.876307 0.317241 0.235911
H46   H     H_    0.351112 0.907222 0.244440 0.209731
H47   H     H_    0.748653 0.575052 0.893583 0.132659
H48   H     H_    0.373417 0.082029 0.515395 0.237389
H49   H     H_    0.296042 0.097325 0.491490 0.221873
H50   H     H_    0.500075 0.099080 0.482492 0.176816
H51   H     H_    0.493569 0.016364 0.370615 0.130998
H52   H     H_    0.575981 0.151546 0.433261 0.122517
H53   H     H_    0.438682 0.078204 0.311577 0.104570
H54   H     H_    0.476783 0.190726 0.419019 0.163581
H55   H     H_    0.527485 0.236625 0.078643 0.129994
H56   H     H_    0.517748 0.275387 0.187298 0.180517
H57   H     H_    0.433003 0.237286 0.100552 0.118173
H58   H     H_    0.238011 0.551610 0.435948 0.147309
H59   H     H_    0.524812 0.426561 0.196961 0.175962
H60   H     H_    0.540578 0.385488 0.096325 0.109941
H61   H     H_    0.699083 0.408308 0.525309 0.224444
H62   H     H_    0.711982 0.337720 0.550665 0.221844
H63   H     H_    0.627021 0.338205 0.025653 0.235887
H64   H     H_    0.653940 0.456051 0.056057 0.206595
H65   H     H_    0.917038 0.487579 0.302450 0.208752
H66   H     H_    0.004169 0.595109 0.396462 0.235142
H67   H     H_    0.036620 0.794102 0.526148 0.177838
H68   H     H_    0.107507 0.783492 0.460849 0.156008
H69   H     H_    0.250912 0.605923 0.648766 0.121568
H70   H     H_    0.091637 0.882912 0.495714 0.113695
H71   H     H_    0.007393 0.730885 0.332333 0.174079
H72   H     H_    0.942631 0.764519 0.393929 0.115708
H73   H     H_    0.980050 0.616465 0.520570 0.133275
H74   H     H_    0.907850 0.629903 0.582811 0.148873
H75   H     H_    0.902964 0.514329 0.530662 0.150328
H76   H     H_    0.776194 0.492916 0.449894 0.161518
H77   H     H_    0.835415 0.455991 0.382600 0.113311
H78   H     H_    0.840870 0.719201 0.467140 0.233499
H79   H     H_    0.834779 0.676638 0.530494 0.256662
H80   H     H_    0.605323 0.320420 0.810401 0.236172
H81   H     H_    0.577621 0.911025 0.822583 0.216725
H82   H     H_    0.539658 0.908484 0.735664 0.220022
H83   H     H_    0.669919 0.088969 0.914693 0.216464
H84   H     H_    0.627771 0.088572 0.831574 0.221055
H85   H     H_    0.060258 0.222616 0.699923 0.151278
H86   H     H_    0.015191 0.088926 0.621003 0.146372
H87   H     H_    0.990595 0.154996 0.589060 0.131276
H88   H     H_    0.859052 0.071400 0.616255 0.129595
H89   H     H_    0.925882 0.191311 0.719062 0.151903
H90   H     H_    0.955687 0.148689 0.912415 0.171964
H91   H     H_    0.686223 0.446319 0.890385 0.216260
H92   H     H_    0.973192 0.049183 0.863519 0.126216
H93   H     H_    0.065555 0.180754 0.928664 0.130321
H94   H     H_    0.045712 0.109686 0.768004 0.117961
H95   H     H_    0.037024 0.211752 0.823905 0.194981
H96   H     H_    0.881843 0.958660 0.498976 0.149381
H97   H     H_    0.920654 0.896882 0.522159 0.156622
H98   H     H_    0.822386 0.823055 0.431071 0.119051
H99   H     H_    0.757760 0.798959 0.530720 0.159805
H100  H     H_    0.759100 0.902609 0.548028 0.118382
H101  H     H_    0.909391 0.459489 0.648001 0.233187
H102  H     H_    0.655253 0.640773 0.798303 0.241849
H103  H     H_    0.814855 0.360517 0.628546 0.209844
H104  H     H_    0.000083 0.946960 0.644916 0.150344
H105  H     H_    0.021400 0.968324 0.751947 0.128423
H106  H     H_    0.972763 0.843718 0.654466 0.151505
H107  H     H_    0.874587 0.897590 0.747057 0.135451
H108  H     H_    0.833032 0.803538 0.634142 0.175705
H109  H     H_    0.487695 0.630471 0.236352 0.147815
H110  H     H_    0.509589 0.590726 0.301601 0.155018
H111  H     H_    0.533459 0.557704 0.199033 0.115791
H112  H     H_    0.388300 0.406590 0.183715 0.170633
H113  H     H_    0.716287 0.690863 0.899692 0.220949
H114  H     H_    0.381465 0.437634 0.109578 0.117118
H115  H     H_    0.318715 0.493281 0.066376 0.222491
H116  H     H_    0.242329 0.369220 0.033443 0.216270
H117  H     H_    0.228824 0.722947 0.375659 0.237709
H118  H     H_    0.167367 0.694940 0.437743 0.215149
H119  H     H_    0.091100 0.455593 0.426238 0.132136
H120  H     H_    0.077580 0.555077 0.452256 0.142779
H121  H     H_    0.986761 0.421454 0.373604 0.131449
H122  H     H_    0.039402 0.467058 0.274758 0.182254
H123  H     H_    0.093273 0.411762 0.281485 0.108813
H124  H     H_    0.223963 0.225215 0.307476 0.163539
H125  H     H_    0.235132 0.734816 0.563417 0.134663
H126  H     H_    0.301281 0.707007 0.601588 0.158679
H127  H     H_    0.351080 0.834203 0.628124 0.134495
H128  H     H_    0.391488 0.731104 0.511169 0.180084
H129  H     H_    0.340847 0.772768 0.474208 0.141441
H130  H     H_    0.251211 0.274209 0.579390 0.183279
H131  H     H_    0.280465 0.220333 0.623426 0.121995
H132  H     H_    0.192252 0.234185 0.644560 0.124589
H133  H     H_    0.393216 0.413126 0.722478 0.172452
H134  H     H_    0.331015 0.367555 0.777074 0.111775
N1    N     N_3   0.670185 0.381466 0.829530 -0.592568
N2    N     N_3   0.868608 0.693627 0.489769 -0.644030
N3    N     N_3   0.575447 0.889562 0.757711 -0.616605
N4    N     N_3   0.685266 0.109398 0.869968 -0.595206
N5    N     N_3   0.865527 0.435078 0.679626 -0.636051
N6    N     N_3   0.258051 0.443581 0.067990 -0.588930
N7    N     N_3   0.173044 0.664193 0.374716 -0.579439
N8    N     N_3   0.231507 0.406354 0.848396 -0.591811
N9    N     N_3   0.922865 0.611713 0.766590 -0.660158
N10   N     N_3   0.235830 0.718429 0.859214 -0.576811
N11   N     N_3   0.807637 0.691010 0.789045 -0.625133
N12   N     N_3   0.682742 0.625189 0.833968 -0.688131
N13   N     N_3   0.575632 0.302626 0.617350 -0.640502
N14   N     N_3   0.121606 0.885911 0.072752 -0.613024
N15   N     N_3   0.239100 0.896092 0.385364 -0.632355
N16   N     N_3   0.316298 0.877034 0.278217 -0.603489
N17   N     N_3   0.356913 0.110428 0.485912 -0.622387
N18   N     N_3   0.741934 0.410679 0.565131 -0.697211
N19   N     N_3   0.677452 0.416971 0.061176 -0.592988
N20   N     N_3   0.962457 0.567399 0.337415 -0.581902
O1    O     O_3   0.500000 0.500000 0.500000 -0.427792
O2    O     O_R   0.945140 0.268320 0.884430 -0.580013
O3    O     O_R   0.116800 0.560590 0.177500 -0.520463
O4    O     O_R   0.676800 0.731580 0.616070 -0.578888
O5    O     O_R   0.822390 0.439230 0.883130 -0.524175
O6    O     O_R   0.116800 0.439160 0.056060 -0.507507
O7    O     O_R   0.943840 0.560660 0.883130 -0.547187
O8    O     O_R   0.115490 0.731510 0.054770 -0.503939
O9    O     O_R   0.823160 0.268340 0.883890 -0.503275
O10   O     O_R   0.945140 0.560620 0.176740 -0.541438
O11   O     O_R   0.116030 0.439190 0.884430 -0.511455
O12   O     O_R   0.384470 0.439280 0.616070 -0.560395
O13   O     O_R   0.384470 0.268410 0.445190 -0.530640
O14   O     O_R   0.383920 0.560720 0.615530 -0.549575
O15   O     O_R   0.554810 0.439290 0.323210 -0.560329
O16   O     O_R   0.383160 0.560750 0.443890 -0.558359
O17   O     O_R   0.677560 0.560680 0.616830 -0.535007
O18   O     O_R   0.383160 0.439320 0.322450 -0.559519
O19   O     O_R   0.556120 0.439250 0.616830 -0.571013
O20   O     O_R   0.676800 0.560710 0.445190 -0.568194
O21   O     O_R   0.554810 0.731590 0.615530 -0.510337
O22   O     O_R   0.383920 0.268420 0.323210 -0.560150
O23   O     O_3   0.999960 0.499910 0.999960 -0.461107
O24   O     O_R   0.823160 0.439210 0.054770 -0.498355
O25   O     O_R   0.115490 0.560640 0.883890 -0.532016
O26   O     O_R   0.116030 0.731490 0.176740 -0.547655
Zn1   Zn    Zn3+2 0.457010 0.413240 0.543760 0.895741
Zn2   Zn    Zn3+2 0.456230 0.586760 0.542990 0.909111
Zn3   Zn    Zn3+2 0.456230 0.413270 0.369490 0.878897
Zn4   Zn    Zn3+2 0.630520 0.586730 0.543760 0.882003
Zn5   Zn    Zn3+2 0.042950 0.586670 0.956190 0.931932
Zn6   Zn    Zn3+2 0.043720 0.586650 0.130470 0.932829
Zn7   Zn    Zn3+2 0.043720 0.413150 0.956960 0.922316
Zn8   Zn    Zn3+2 0.869430 0.413180 0.956190 0.939563

loop_
_geom_bond_atom_site_label_1
_geom_bond_atom_site_label_2
_ccdc_geom_bond_type
C4    O22   A    
C56   C95   S    
C66   C68   S    
C74   H98   S    
C34   C56   S    
C93   C94   S    
C46   H69   S    
C27   C29   A    
C11   C13   A    
C73   C74   S    
O17   Zn4   S    
C6    N15   S    
C35   C36   S    
C35   N7    S    
C90   H16   S    
C61   H50   S    
H102  N12   S    
C86   H8    S    
C80   H123  S    
C93   H31   S    
H101  N5    S    
C47   O24   A    
C36   H58   S    
C39   C41   A    
C81   H119  S    
C27   C33   A    
O18   Zn3   S    
C45   C57   S    
C17   C66   S    
C37   C38   A    
C18   C24   A    
O23   Zn6   S    
C50   O2    A    
C66   H76   S    
O9    Zn8   S    
C92   H23   S    
C39   C84   S    
C64   H71   S    
H117  N7    S    
C59   H124  S    
C80   H122  S    
C5    C6    S    
C68   H75   S    
C76   H106  S    
C81   H120  S    
C82   H128  S    
C50   O9    A    
C7    N17   S    
C48   O11   A    
H66   N20   S    
C26   C73   S    
H115  N6    S    
C65   H68   S    
C23   C57   S    
C18   C19   A    
C41   C42   A    
C90   H17   S    
O20   Zn4   S    
C92   H22   S    
O1    Zn4   S    
C72   H92   S    
C57   N11   S    
C33   C35   S    
C87   H5    S    
H41   N14   S    
O4    Zn4   S    
C70   H86   S    
O21   Zn2   S    
C95   C96   S    
C49   O26   A    
C36   C82   S    
C8    C9    A    
H46   N16   S    
C91   H26   S    
C18   C26   S    
O5    Zn8   S    
C45   C91   S    
O14   Zn2   S    
C15   C64   S    
H20   N11   S    
C66   H77   S    
H4    N8    S    
C85   H131  S    
C54   N18   S    
C29   C30   A    
C84   H134  S    
C9    C10   A    
C58   H35   S    
C96   H38   S    
C5    C67   A    
C22   C50   S    
H91   N1    S    
C49   O8    A    
C94   H30   S    
C74   H97   S    
H84   N4    S    
C34   C55   S    
C91   H27   S    
C13   C14   A    
O7    Zn5   S    
H3    N8    S    
C10   C62   S    
C67   C78   A    
H62   N18   S    
C90   H15   S    
H83   N4    S    
C44   C86   S    
C51   O6    A    
C44   N10   S    
C95   H39   S    
H116  N6    S    
C17   N2    S    
C44   C46   S    
H45   N16   S    
C46   C88   S    
C41   N8    S    
C77   C79   S    
C78   C89   A    
C3    C49   S    
C38   C39   A    
C82   H129  S    
C1    C19   S    
C28   O20   A    
H49   N17   S    
O19   Zn1   S    
H44   N15   S    
O23   Zn7   S    
H12   N10   S    
H118  N7    S    
C53   O7    A    
C84   C85   S    
C63   H57   S    
C52   O19   A    
C76   H104  S    
O2    Zn7   S    
C68   H74   S    
C91   C92   S    
C13   C47   S    
C75   H107  S    
C76   H105  S    
O15   Zn3   S    
H81   N3    S    
C96   H37   S    
H33   N13   S    
C25   C26   S    
O13   Zn1   S    
H80   N1    S    
H11   N9    S    
C65   H70   S    
O16   Zn2   S    
C28   O15   A    
C56   N1    S    
C60   C61   S    
C16   O14   A    
C37   C43   A    
C2    C89   A    
C75   C76   S    
O1    Zn1   S    
C32   C51   S    
C4    C78   S    
C62   C63   S    
C83   H126  S    
H103  N5    S    
H82   N3    S    
C87   H6    S    
C68   H73   S    
C70   H87   S    
C70   H85   S    
C21   N4    S    
C12   C23   S    
C47   O10   A    
C12   N13   S    
C63   H55   S    
C65   H67   S    
H34   N13   S    
C58   H24   S    
C26   C75   S    
O24   Zn8   S    
C54   H1    S    
C85   H132  S    
C42   C48   S    
C24   C25   S    
C84   H133  S    
C72   H90   S    
C12   C56   S    
C34   C45   S    
C77   H114  S    
C1    O4    A    
C25   C71   S    
C40   O18   A    
C60   H54   S    
C88   C90   S    
C7    C60   S    
C20   N3    S    
O22   Zn3   S    
H10   N9    S    
C73   H99   S    
C43   C44   S    
C87   H7    S    
C12   C93   S    
C77   H112  S    
C86   H9    S    
C25   C69   S    
C42   C43   A    
C51   O3    A    
C69   H89   S    
C72   H93   S    
H42   N14   S    
O3    Zn6   S    
O11   Zn7   S    
C23   C54   S    
C62   H59   S    
C94   H29   S    
C11   N19   S    
C15   C17   S    
C94   H28   S    
C54   C55   S    
C71   H95   S    
C8    C14   A    
H79   N2    S    
C74   H96   S    
O6    Zn7   S    
C61   H51   S    
C86   C87   S    
O23   Zn8   S    
H64   N19   S    
C6    N16   S    
C31   C32   A    
C55   N5    S    
C80   C81   S    
C3    C5    A    
C81   H121  S    
H63   N19   S    
H113  N12   S    
O10   Zn6   S    
C75   H108  S    
C6    C7    S    
C1    O21   A    
C15   N20   S    
C27   C36   S    
C79   H110  S    
C31   N6    S    
C8    C17   S    
C96   H36   S    
C61   H52   S    
C57   N12   S    
O23   Zn5   S    
C64   C65   S    
C19   C20   A    
C2    C3    A    
C58   C59   S    
O1    Zn2   S    
C16   O12   A    
C71   C72   S    
H43   N15   S    
C79   H109  S    
C92   H25   S    
C32   C33   A    
C2    N14   S    
O12   Zn1   S    
C30   C31   A    
C23   C52   S    
H65   N20   S    
O26   Zn6   S    
C83   H127  S    
C88   H19   S    
C4    O13   A    
C79   H111  S    
C29   C40   S    
C95   H40   S    
C59   H13   S    
C62   H60   S    
C58   C89   S    
O8    Zn5   S    
C22   C24   A    
C60   H53   S    
C71   H94   S    
C88   H18   S    
C69   C70   S    
O25   Zn5   S    
H61   N18   S    
O1    Zn3   S    
C63   H56   S    
C93   H32   S    
C10   C11   A    
C69   H88   S    
C7    C67   S    
C83   H125  S    
C48   O25   A    
C35   C80   S    
C52   O17   A    
H21   N11   S    
C20   C21   A    
C34   C53   S    
C64   H72   S    
C82   C83   S    
H48   N17   S    
C73   H100  S    
H14   N10   S    
C45   H47   S    
C59   H2    S    
C14   C15   S    
C85   H130  S    
C53   O5    A    
C55   N9    S    
C37   C46   S    
C21   C22   A    
H78   N2    S    
C30   C77   S    
C9    C28   S    
C16   C38   S    
C40   O16   A    
