data_mof_unit_2470.cif
_audit_creation_date              2012-12-11T20:00:43-0500
_audit_creation_method            fapswitch 2.2
_symmetry_space_group_name_H-M    P1
_symmetry_Int_Tables_number       1
_space_group_crystal_system       triclinic
_cell_length_a                    8.433429
_cell_length_b                    16.11876
_cell_length_c                    27.233251
_cell_angle_alpha                 71.384386
_cell_angle_beta                  97.634845
_cell_angle_gamma                 96.863399
_cell_volume                      3465.4747877

loop_
_atom_site_label
_atom_site_type_symbol
_atom_type_description
_atom_site_fract_x
_atom_site_fract_y
_atom_site_fract_z
_atom_type_partial_charge
Ba1   Ba    Ba6+2 0.337820 0.939830 0.518500 1.675518
Ba2   Ba    Ba6+2 0.851970 0.060110 0.481480 1.687128
C1    C     C_3   0.976059 0.526213 0.653146 -0.424816
C2    C     C_R   0.422500 0.393937 0.182917 0.580223
C3    C     C_2   0.283693 0.275857 0.278873 -0.083429
C4    C     C_3   0.561565 0.623436 0.627762 0.354294
C5    C     C_3   0.280129 0.247232 0.337298 -0.072803
C6    C     C_1   0.479105 0.145381 0.342027 0.030432
C7    C     C_2   0.516499 0.190623 0.294129 -0.102970
C8    C     C_2   0.408372 0.257607 0.258267 0.189854
C9    C     C_R   0.504827 0.395801 0.099997 -0.084185
C10   C     C_R   0.526762 0.305613 0.121621 -0.034264
C11   C     C_R   0.584124 0.262625 0.090982 -0.059892
C12   C     C_3   0.058190 0.607835 0.617054 0.326025
C13   C     C_R   0.450157 0.439686 0.130775 -0.023798
C14   C     C_2   0.367975 0.166916 0.364785 -0.284234
C15   C     C_2   0.825297 0.831013 0.633630 -0.238421
C16   C     C_3   0.538902 0.541838 0.674201 -0.382302
C17   C     C_R   0.645568 0.447687 0.966733 0.036066
C18   C     C_R   0.528666 0.576741 0.972286 -0.038557
C19   C     C_R   0.606365 0.536245 0.943982 0.043568
C20   C     C_R   0.726675 0.411158 0.937320 -0.105530
C21   C     C_R   0.764216 0.459136 0.887212 -0.062870
C22   C     C_R   0.723753 0.546039 0.864072 -0.006937
C23   C     C_3   0.108506 0.147996 0.659149 0.850162
C24   C     C_R   0.644340 0.584719 0.892341 -0.139660
C25   C     C_R   0.599360 0.671041 0.868515 -0.095908
C26   C     C_R   0.651289 0.720670 0.819284 0.605264
C27   C     C_R   0.758812 0.594067 0.812801 0.569898
C28   C     C_3   0.601782 0.883891 0.390273 0.312275
C29   C     C_2   0.902112 0.718574 0.719341 -0.111527
C30   C     C_3   0.911761 0.749310 0.661250 -0.071242
C31   C     C_1   0.709351 0.851208 0.655337 -0.003771
C32   C     C_2   0.663777 0.800568 0.701315 -0.155390
C33   C     C_2   0.769688 0.732780 0.738085 0.193218
C34   C     C_3   0.192898 0.142480 0.715573 0.349270
C35   C     C_R   0.602936 0.399016 0.017844 0.018314
C36   C     C_R   0.537816 0.442347 0.047589 0.052485
C37   C     C_R   0.505027 0.531875 0.025425 0.038461
C38   C     C_R   0.622590 0.308186 0.040521 -0.104597
C39   C     C_R   0.426336 0.529267 0.109163 -0.062962
C40   C     C_3   0.573830 0.810701 0.365275 -0.379353
C41   C     C_R   0.470836 0.659701 0.945653 -0.151699
C42   C     C_R   0.499407 0.704650 0.894054 0.441839
C43   C     C_R   0.452189 0.574251 0.057658 -0.105566
C44   C     C_2   0.389951 0.255778 0.493256 -0.297292
C45   C     C_3   0.632126 0.376355 0.360637 0.353147
C46   C     C_R   0.804130 0.759556 0.492146 -0.289410
C47   C     C_2   0.214993 0.350309 0.510868 0.142161
C48   C     C_2   0.249301 0.266019 0.517441 0.005406
C49   C     C_2   0.497251 0.324457 0.475169 0.003807
C50   C     C_3   0.458918 0.417051 0.464117 -0.043966
C51   C     C_3   0.283890 0.424820 0.468038 -0.070518
C52   C     C_3   0.573047 0.038274 0.685279 0.762387
C53   C     C_2   0.576382 0.468647 0.491696 -0.092372
C54   C     C_2   0.561900 0.554129 0.481060 -0.068247
C55   C     C_R   0.837064 0.613337 0.461922 -0.018017
C56   C     C_3   0.655046 0.456946 0.313623 -0.375230
C57   C     C_R   0.700704 0.616321 0.485516 -0.037109
C58   C     C_R   0.953318 0.684040 0.451833 -0.138804
C59   C     C_R   0.932480 0.759256 0.464424 0.078448
C60   C     C_R   0.685028 0.689550 0.501306 -0.012552
C61   C     C_3   0.684658 0.030038 0.735697 -0.377116
C62   C     C_3   0.124523 0.989371 0.356528 0.301148
C63   C     C_3   0.108164 0.028382 0.297533 -0.342001
C64   C     C_3   0.562506 0.194371 0.661721 0.289226
C65   C     C_3   0.626104 0.224304 0.608413 -0.276003
C66   C     C_3   0.978988 0.276963 0.664234 -0.329676
C67   C     C_3   0.098052 0.390214 0.367167 0.365530
C68   C     C_3   0.993084 0.001488 0.691900 0.209581
C69   C     C_3   0.103094 0.955388 0.671228 -0.230660
C70   C     C_3   0.311581 0.053969 0.794347 0.231315
C71   C     C_3   0.416007 0.129002 0.808887 -0.393342
C72   C     C_3   0.270202 0.751243 0.844831 0.294246
C73   C     C_3   0.181467 0.830864 0.813017 -0.310255
C74   C     C_3   0.216914 0.432176 0.570272 -0.267923
C75   C     C_3   0.081318 0.487757 0.340423 -0.367151
C76   C     C_R   0.489604 0.260045 0.173234 0.595969
H1    H     H_    0.122416 0.588238 0.590082 0.072917
H2    H     H_    0.078021 0.034745 0.373422 0.070013
H3    H     H_    0.066462 0.479936 0.675631 0.124086
H4    H     H_    0.156523 0.984695 0.279801 0.126589
H5    H     H_    0.175956 0.093715 0.285884 0.071709
H6    H     H_    0.979826 0.036075 0.282708 0.140055
H7    H     H_    0.964448 0.650169 0.592181 -0.043111
H8    H     H_    0.887710 0.493162 0.629935 0.070896
H9    H     H_    0.274953 0.202628 0.712952 -0.015098
H10   H     H_    0.097647 0.143410 0.740066 -0.058680
H11   H     H_    0.912462 0.544746 0.680784 0.143773
H12   H     H_    0.637858 0.829487 0.329718 0.132386
H13   H     H_    0.613946 0.550979 0.708953 0.132789
H14   H     H_    0.638351 0.316507 0.349367 0.046841
H15   H     H_    0.510227 0.376659 0.371786 -0.062096
H16   H     H_    0.757650 0.451381 0.293568 0.140890
H17   H     H_    0.545423 0.462761 0.285952 0.146129
H18   H     H_    0.675469 0.517217 0.325792 0.111027
H19   H     H_    0.227557 0.380636 0.369439 -0.067140
H20   H     H_    0.061188 0.371791 0.407066 0.072944
H21   H     H_    0.179102 0.526785 0.356857 0.072101
H22   H     H_    0.965736 0.506249 0.347136 0.131261
H23   H     H_    0.619086 0.749327 0.392596 0.055216
H24   H     H_    0.529358 0.680758 0.637602 0.069142
H25   H     H_    0.089625 0.504295 0.297960 0.132244
H26   H     H_    0.628310 0.181677 0.281544 0.133695
H27   H     H_    0.601052 0.193098 0.106140 0.121412
H28   H     H_    0.990832 0.676165 0.744082 0.118053
H29   H     H_    0.826491 0.427561 0.866609 0.115743
H30   H     H_    0.765852 0.345750 0.952294 0.066050
H31   H     H_    0.664400 0.269562 0.019799 0.068555
H32   H     H_    0.196114 0.319747 0.254752 0.125628
H33   H     H_    0.386667 0.565367 0.132086 0.121877
H34   H     H_    0.443400 0.798410 0.354559 0.123874
H35   H     H_    0.393832 0.689211 0.962842 0.087437
H36   H     H_    0.689709 0.632613 0.620088 -0.065605
H37   H     H_    0.546111 0.805412 0.711445 0.142706
H38   H     H_    0.434918 0.643436 0.044568 0.072753
H39   H     H_    0.361434 0.139802 0.406472 0.080362
H40   H     H_    0.837134 0.861000 0.592398 0.081325
H41   H     H_    0.053338 0.682209 0.431200 0.092640
H42   H     H_    0.418067 0.189749 0.497452 0.079442
H43   H     H_    0.789210 0.817439 0.502479 0.063510
H44   H     H_    0.688884 0.442115 0.510972 0.086830
H45   H     H_    0.489842 0.978266 0.695750 0.008171
H46   H     H_    0.411202 0.529905 0.682373 0.144169
H47   H     H_    0.451245 0.581453 0.460618 0.101084
H48   H     H_    0.575008 0.483823 0.666079 0.104332
H49   H     H_    0.731878 0.894656 0.401109 0.010713
H50   H     H_    0.535696 0.863979 0.425455 0.055100
H51   H     H_    0.652360 0.200503 0.693842 -0.002136
H52   H     H_    0.474469 0.241485 0.659669 0.033120
H53   H     H_    0.633943 0.297075 0.592298 0.026737
H54   H     H_    0.746179 0.201707 0.610665 0.194711
H55   H     H_    0.544498 0.195624 0.581914 0.098642
H56   H     H_    0.727523 0.963387 0.751680 0.097146
H57   H     H_    0.172266 0.276315 0.627305 0.161477
H58   H     H_    0.906180 0.327853 0.636173 0.140579
H59   H     H_    0.063034 0.308966 0.689129 0.084026
H60   H     H_    0.901215 0.226574 0.689723 0.108251
H61   H     H_    0.878161 0.962677 0.692020 0.029597
H62   H     H_    0.025344 0.994316 0.733704 0.051617
H63   H     H_    0.068321 0.963467 0.629340 0.110233
H64   H     H_    0.229394 0.979023 0.677326 0.167321
H65   H     H_    0.092142 0.885225 0.694157 0.037363
H66   H     H_    0.377054 0.993905 0.811306 0.106640
H67   H     H_    0.617765 0.038263 0.765838 0.114705
H68   H     H_    0.197274 0.040328 0.812841 0.033541
H69   H     H_    0.343517 0.184978 0.803480 0.099485
H70   H     H_    0.464260 0.105796 0.850499 0.093004
H71   H     H_    0.517813 0.152105 0.784603 0.129745
H72   H     H_    0.193463 0.709543 0.875312 0.016869
H73   H     H_    0.287274 0.713763 0.818112 0.034833
H74   H     H_    0.253127 0.872399 0.781314 0.138669
H75   H     H_    0.063642 0.809379 0.795497 0.059601
H76   H     H_    0.160387 0.869529 0.838396 0.107647
H77   H     H_    0.025321 0.405468 0.523122 0.232089
H78   H     H_    0.788257 0.079843 0.729975 0.099571
H79   H     H_    0.241407 0.498749 0.542495 0.147037
H80   H     H_    0.332877 0.405310 0.589469 0.111355
H81   H     H_    0.148027 0.438235 0.600661 0.111176
H82   H     H_    0.252938 0.981995 0.370331 0.018780
N1    N     N_R   0.439697 0.304221 0.203978 -0.420198
N2    N     N_R   0.728236 0.682200 0.791009 -0.425117
N3    N     N_2   0.067389 0.238241 0.636029 -0.413462
N4    N     N_2   0.124237 0.374353 0.543665 -0.414035
O1    O     O_2   0.431310 0.922990 0.623550 -0.481067
O2    O     O_2   0.823712 0.307716 0.503041 -0.493990
O3    O     O_3   0.753207 0.379627 0.401060 -0.594077
O4    O     O_3   0.663280 0.983100 0.563360 -0.452511
O5    O     O_3   0.016420 0.932050 0.462720 -0.491882
O6    O     O_2   0.959730 0.164640 0.549160 -0.407146
O7    O     O_3   0.212450 0.130416 0.627022 -0.627328
O8    O     O_2   0.957402 0.184570 0.327539 -0.486623
O9    O     O_3   0.999125 0.339832 0.339595 -0.580603
O10   O     O_2   0.499941 0.180797 0.190401 -0.597931
O11   O     O_2   0.814284 0.556300 0.787400 -0.628761
O12   O     O_3   0.036997 0.907272 0.370031 -0.636554
O13   O     O_2   0.384572 0.434867 0.209705 -0.628869
O14   O     O_2   0.631545 0.798916 0.802432 -0.587290
O15   O     O_3   0.126250 0.812630 0.574830 -0.461102
O16   O     O_2   0.253420 0.790966 0.672456 -0.495075
O17   O     O_3   0.654313 0.044946 0.641849 -0.623800
O18   O     O_3   0.172282 0.648470 0.646803 -0.576239
O19   O     O_2   0.229950 0.835370 0.450810 -0.460039
O20   O     O_3   0.517580 0.797570 0.545130 -0.486176
O21   O     O_2   0.354160 0.697718 0.491040 -0.489577
O22   O     O_3   0.478715 0.110046 0.672979 -0.609298
O23   O     O_3   0.460797 0.611923 0.584757 -0.593630
O24   O     O_3   0.968017 0.089583 0.660922 -0.651068
O25   O     O_3   0.282305 0.068702 0.739767 -0.644368
O26   O     O_3   0.419388 0.778796 0.867772 -0.609568
O27   O     O_2   0.758370 0.077020 0.376420 -0.448686
O28   O     O_3   0.526390 0.016840 0.436620 -0.503368
O29   O     O_3   0.063420 0.187310 0.425160 -0.484298
O30   O     O_3   0.546142 0.960191 0.353918 -0.624408
O31   O     O_3   0.173250 0.067890 0.537260 -0.462793
O32   O     O_3   0.672100 0.202370 0.454860 -0.468381
P1    P     P_3+3 0.610630 0.953360 0.619150 1.011692
P2    P     P_3+3 0.057260 0.861390 0.437850 0.982953
P3    P     P_3+3 0.504680 0.699728 0.529784 0.944936
P4    P     P_3+3 0.579040 0.046590 0.380840 0.991101
P5    P     P_3+3 0.689843 0.306379 0.458946 0.962409
P6    P     P_3+3 0.116539 0.752708 0.640267 0.966413
P7    P     P_3+3 0.148690 0.160268 0.558779 1.031949
P8    P     P_3+3 0.074340 0.236645 0.357804 0.955359

loop_
_geom_bond_atom_site_label_1
_geom_bond_atom_site_label_2
_ccdc_geom_bond_type
C39   H33   S    
C53   C54   D    
C74   H81   S    
C68   H62   S    
C45   H14   S    
C67   C75   S    
Ba1   P2    S    
C73   H76   S    
C2    O13   D    
C52   H45   S    
O17   P1    S    
Ba1   O19   S    
C26   N2    Am   
C48   P7    S    
C34   H10   S    
C10   C11   A    
C74   H80   S    
C24   C25   A    
C35   C36   A    
O29   P8    S    
C67   O9    S    
C75   H22   S    
O9    P8    S    
Ba2   P4    S    
C16   H13   S    
C65   H55   S    
Ba2   O28   S    
C61   H78   S    
C32   C33   S    
C35   C38   A    
O16   P6    D    
C36   C37   A    
C47   C51   S    
C55   C57   A    
O31   P7    S    
C52   C61   S    
C58   H41   S    
Ba1   Ba2   S    
O8    P8    D    
C56   H18   S    
C22   C27   A    
C4    H36   S    
C11   C38   A    
C40   H34   S    
C17   C35   A    
C42   O26   S    
C72   O26   S    
C66   H60   S    
C25   C42   A    
Ba1   O20   S    
O30   P4    S    
C65   H54   S    
C6    C7    D    
C47   N4    S    
C10   C76   A    
C1    H3    S    
C21   C22   A    
C68   C69   S    
Ba1   O1    S    
C62   O12   S    
C7    C8    S    
C50   C53   S    
C68   O24   S    
C37   C43   A    
C64   H51   S    
C71   H71   S    
C67   H20   S    
C23   O7    S    
O28   P4    S    
C64   C65   S    
C53   H44   S    
C68   H61   S    
C6    C14   D    
C1    H8    S    
O7    P7    S    
C62   H2    S    
C66   H59   S    
C15   C31   D    
C27   O11   D    
C12   O18   S    
C19   C24   A    
C34   H9    S    
C4    C16   S    
C28   H50   S    
C74   H79   S    
C33   N2    S    
O4    P1    S    
C71   H70   S    
C72   H72   S    
C49   C50   S    
O19   P2    D    
C61   H56   S    
C66   H58   S    
C17   C20   A    
C76   O10   D    
O27   P4    D    
C13   C39   A    
C11   H27   S    
C72   C73   S    
C46   H43   S    
C3    C5    S    
C18   C37   A    
C63   H6    S    
C23   C34   S    
Ba1   O4    S    
C32   H37   S    
C12   H1    S    
C44   C49   D    
C34   O25   S    
O23   P3    S    
C58   C59   A    
Ba1   O31   S    
O2    P5    D    
C9    C36   A    
C56   H17   S    
C5    P8    S    
C23   O24   S    
O1    P1    D    
C45   O3    S    
C73   H75   S    
C46   C60   A    
C29   C30   S    
O15   P6    S    
C31   P1    S    
C73   H74   S    
O20   P3    S    
C21   H29   S    
C62   H82   S    
C31   C32   D    
C45   H15   S    
C52   O17   S    
C44   H42   S    
C54   H47   S    
O21   P3    D    
O6    P7    D    
C1    C12   S    
C65   H53   S    
C15   H40   S    
Ba2   O6    S    
C69   H64   S    
C5    C14   S    
C2    N1    Am   
C71   H69   S    
C8    N1    S    
C9    C13   A    
C64   O22   S    
C41   C42   A    
C52   O22   S    
C29   H28   S    
C29   C33   D    
C72   H73   S    
C75   H25   S    
C40   H23   S    
Ba2   O4    S    
C70   O25   S    
C18   C41   A    
C50   C51   S    
C69   H65   S    
C66   N3    S    
C70   H66   S    
C28   H49   S    
C57   C60   A    
C17   C19   A    
O18   P6    S    
H57   N3    S    
C27   N2    Am   
Ba1   P1    S    
C22   C24   A    
C12   H7    S    
O12   P2    S    
C70   C71   S    
C55   C58   A    
C59   P2    S    
C60   P3    S    
C9    C10   A    
C38   H31   S    
Ba2   O31   S    
H77   N4    S    
C44   C48   S    
C54   C57   S    
C69   H63   S    
C1    H11   S    
Ba2   O29   S    
C62   C63   S    
C2    C13   A    
C56   H16   S    
C3    C8    D    
C14   H39   S    
C41   H35   S    
C45   C56   S    
Ba1   O15   S    
C43   H38   S    
C63   H4    S    
C28   O30   S    
C23   N3    S    
C7    H26   S    
C20   H30   S    
C4    O23   S    
Ba1   O5    S    
C75   H21   S    
Ba2   O32   S    
O3    P5    S    
C30   P6    S    
C74   N4    S    
Ba2   O5    S    
Ba1   O28   S    
C6    P4    S    
C18   C19   A    
C76   N1    Am   
C4    H24   S    
C47   C48   D    
C3    H32   S    
C46   C59   A    
C25   C26   A    
C70   H68   S    
C15   C30   S    
C39   C43   A    
C20   C21   A    
C28   C40   S    
C40   H12   S    
O32   P5    S    
C26   O14   D    
Ba2   O27   S    
C61   H67   S    
C63   H5    S    
C16   H48   S    
C49   P5    S    
C16   H46   S    
O5    P2    S    
C64   H52   S    
C67   H19   S    
