data_mof_unit_598.cif
_audit_creation_date              2013-03-05T16:47:20-0500
_audit_creation_method            fapswitch 2.2
_symmetry_space_group_name_H-M    P1
_symmetry_Int_Tables_number       1
_space_group_crystal_system       triclinic
_cell_length_a                    10.88566
_cell_length_b                    10.931851
_cell_length_c                    9.700057
_cell_angle_alpha                 90.041634
_cell_angle_beta                  90.912171
_cell_angle_gamma                 90.219319
_cell_volume                      1154.155695

loop_
_atom_site_label
_atom_site_type_symbol
_atom_site_description
_atom_site_fract_x
_atom_site_fract_y
_atom_site_fract_z
_atom_type_partial_charge
O1    O     O_R   0.500020 0.321960 0.617040 -0.582851
O2    O     O_R   0.499980 0.321920 0.382900 -0.582556
C1    C     C_R   0.501457 0.265392 0.500037 0.847607
O3    O     O_R   0.319660 0.500030 0.617070 -0.591918
O4    O     O_R   0.319620 0.499990 0.382930 -0.561102
C2    C     C_R   0.262230 0.502324 0.498619 0.788871
Cu1   Cu    Cu3+1 0.500020 0.500020 0.638630 0.935609
Cu2   Cu    Cu3+1 0.499980 0.499980 0.361370 0.933114
O5    O     O_R   0.500020 0.678080 0.617100 -0.589118
O6    O     O_R   0.499980 0.678040 0.382960 -0.578801
O7    O     O_R   0.680380 0.500010 0.617070 -0.561346
O8    O     O_R   0.680340 0.499970 0.382930 -0.595383
C3    C     C_R   0.498274 0.734617 0.500092 0.848625
C4    C     C_R   0.737720 0.498905 0.501447 0.794505
H1    H     H_    0.244520 0.612683 0.876374 0.148093
C5    C     C_R   0.208125 0.687513 0.076912 -0.146710
H2    H     H_    0.245400 0.776781 0.052880 0.117992
C6    C     C_R   0.160698 0.664732 0.207591 -0.107202
H3    H     H_    0.161085 0.736943 0.284119 0.110677
C7    C     C_R   0.112595 0.548883 0.238776 0.134681
C8    C     C_R   0.112098 0.456475 0.138543 -0.125937
H4    H     H_    0.074874 0.366826 0.161304 0.121069
C9    C     C_R   0.160101 0.479345 0.008614 -0.131757
H5    H     H_    0.161520 0.406574 0.933221 0.115724
C10   C     C_R   0.207405 0.595019 0.977279 -0.114173
C11   C     C_R   0.931378 0.521138 0.379982 -0.244332
H6    H     H_    0.879040 0.537303 0.286015 0.158107
C12   C     C_R   0.871634 0.499222 0.504116 -0.083846
C13   C     C_R   0.941283 0.480468 0.626496 -0.006053
C14   C     C_R   0.068290 0.483666 0.620661 -0.246795
H7    H     H_    0.120651 0.467361 0.714149 0.154969
C15   C     C_R   0.128173 0.504710 0.496397 -0.084775
C16   C     C_R   0.058402 0.524739 0.374432 -0.005355
C17   C     C_R   0.874615 0.551523 0.857866 -0.106815
H8    H     H_    0.905236 0.643139 0.832847 0.118497
C18   C     C_R   0.822325 0.528906 0.986039 -0.155395
H9    H     H_    0.812203 0.602979 0.058960 0.119795
C19   C     C_R   0.783243 0.410847 0.019899 -0.122527
H10   H     H_    0.743451 0.393235 0.119473 0.153375
C20   C     C_R   0.795161 0.315494 0.924976 -0.133789
H11   H     H_    0.764324 0.224285 0.951125 0.118812
C21   C     C_R   0.846658 0.337903 0.796213 -0.122158
H12   H     H_    0.855328 0.263578 0.723143 0.110265
C22   C     C_R   0.886471 0.456181 0.762109 0.133517
C23   C     C_2   0.500638 0.932962 0.386757 -0.163743
C24   C     C_2   0.491676 0.866587 0.502274 -0.323306
H13   H     H_    0.510491 0.888247 0.287502 0.160897
H14   H     H_    0.476641 0.907593 0.602080 0.143001
C25   C     C_2   0.495336 0.066932 0.386768 -0.163534
C26   C     C_2   0.507523 0.133427 0.502315 -0.323518
H15   H     H_    0.482927 0.111566 0.287500 0.155912
H16   H     H_    0.524718 0.092542 0.602251 0.142385
C27   C     C_2   0.452867 0.412058 0.921314 -0.069660
N1    N     N_2   0.498640 0.498660 0.846910 -0.277940
H17   H     H_    0.410440 0.334423 0.869494 0.144760
H18   H     H_    0.539004 0.572575 0.894662 0.195479
C28   C     C_2   0.452332 0.412310 0.076867 -0.054155
N2    N     N_2   0.498610 0.498630 0.153040 -0.283651
H19   H     H_    0.409110 0.335105 0.127049 0.145029
H20   H     H_    0.540298 0.571828 0.106892 0.188835

loop_
_geom_bond_atom_site_label_1
_geom_bond_atom_site_label_2
_geom_bond_distance
_ccdc_geom_bond_type
O4    Cu2   1.977753 S    
C19   C20   1.398087 A    
C9    H5    1.080520 S    
C20   H11   1.082450 S    
C13   C14   1.384925 A    
C11   C16   1.385061 A    
C11   C12   1.397986 A    
C26   H16   1.081669 S    
C23   C25   1.465897 S    
Cu2   O8    1.971131 S    
Cu2   N2    2.020673 S    
C15   C16   1.413314 A    
C25   H15   1.086542 S    
C20   C21   1.398559 A    
O2    C1    1.293707 A    
C11   H6    1.082169 S    
Cu1   Cu2   2.689432 S    
C13   C22   1.476893 S    
C5    C6    1.398455 A    
O1    Cu1   1.957608 S    
C27   N1    1.293939 D    
C14   C15   1.398226 A    
C28   N2    1.293702 D    
C14   H7    1.078680 S    
C21   C22   1.403565 A    
O3    Cu1   1.971132 S    
C7    C16   1.474181 S    
C18   C19   1.398358 A    
C12   C13   1.413835 A    
C1    C26   1.444557 S    
O8    C4    1.299662 A    
C25   C26   1.339984 D    
C17   C18   1.397426 A    
C23   H13   1.086462 S    
C8    C9    1.394414 A    
O4    C2    1.293306 A    
O7    C4    1.292268 A    
N1    H18   1.025081 S    
C28   H19   1.084197 S    
H1    C10   1.082030 S    
C21   H12   1.083208 S    
C27   H17   1.084075 S    
N2    H20   1.025105 S    
C24   H14   1.081650 S    
C9    C10   1.398982 A    
C17   C22   1.403270 A    
C7    C8    1.401496 A    
C6    C7    1.403609 A    
O3    C2    1.299584 A    
C17   H8    1.083251 S    
C5    C10   1.398121 A    
Cu1   O5    1.957848 S    
C6    H3    1.083161 S    
O5    C3    1.292657 A    
C3    C24   1.444896 S    
C18   H9    1.081890 S    
Cu1   O7    1.977752 S    
C27   C28   1.508985 S    
Cu1   N1    2.020687 S    
C4    C12   1.457557 S    
C8    H4    1.083288 S    
C23   C24   1.340046 D    
Cu2   O6    1.957608 S    
O2    Cu2   1.957846 S    
C2    C15   1.459451 S    
C5    H2    1.082402 S    
O1    C1    1.292418 A    
O6    C3    1.293650 A    
C19   H10   1.081926 S    
