data_mof_unit_1237.cif
_audit_creation_date              2012-12-10T17:50:41-0500
_audit_creation_method            fapswitch 2.2
_symmetry_space_group_name_H-M    P1
_symmetry_Int_Tables_number       1
_space_group_crystal_system       triclinic
_cell_length_a                    15.69766
_cell_length_b                    10.594057
_cell_length_c                    9.946607
_cell_angle_alpha                 91.289295
_cell_angle_beta                  89.493757
_cell_angle_gamma                 92.581827
_cell_volume                      1651.99156647

loop_
_atom_site_label
_atom_site_type_symbol
_atom_type_description
_atom_site_fract_x
_atom_site_fract_y
_atom_site_fract_z
_atom_type_partial_charge
C1    C     C_R   0.507495 0.259327 0.499597 0.847031
C2    C     C_R   0.537486 0.049184 0.865652 0.182690
C3    C     C_R   0.481926 0.942451 0.871884 -0.201917
C4    C     C_R   0.338267 0.501756 0.500870 0.831681
C5    C     C_R   0.444437 0.888889 0.755451 0.193345
C6    C     C_R   0.470177 0.937126 0.628396 0.021551
C7    C     C_R   0.509774 0.057763 0.624074 0.020147
C8    C     C_R   0.509133 0.122302 0.501154 -0.122434
C9    C     C_R   0.487714 0.057086 0.382477 -0.255073
C10   C     C_R   0.458166 0.932702 0.383234 0.190863
C11   C     C_R   0.462065 0.868364 0.505357 -0.168355
C12   C     C_3   0.083887 0.509894 0.505184 -0.085684
C13   C     C_R   0.354346 0.392826 0.131819 0.207141
C14   C     C_R   0.278244 0.400193 0.057024 -0.012462
C15   C     C_R   0.284316 0.378914 0.917865 0.606310
C16   C     C_R   0.485462 0.737039 0.501439 0.870671
C17   C     C_R   0.364451 0.382672 0.857805 -0.216646
C18   C     C_R   0.432920 0.442487 0.926530 -0.111792
C19   C     C_R   0.429802 0.447756 0.070445 -0.098299
C20   C     C_R   0.564931 0.555389 0.071933 0.542301
C21   C     C_R   0.564279 0.556994 0.929130 0.546396
C22   C     C_R   0.661949 0.501129 0.499567 0.911268
C23   C     C_3   0.976342 0.624482 0.550611 -0.015260
C24   C     C_3   0.968591 0.420394 0.581282 0.635620
C25   C     C_3   0.025526 0.397795 0.456796 -0.343220
C26   C     C_1   0.249652 0.504598 0.503606 -0.158878
C27   C     C_1   0.751058 0.505335 0.498965 -0.118313
C28   C     C_3   0.027759 0.530724 0.629577 0.605286
C29   C     C_3   0.372283 0.789667 0.770805 -0.348506
C30   C     C_3   0.295682 0.843684 0.844247 -0.894757
C31   C     C_3   0.419333 0.875489 0.254571 -0.382403
C32   C     C_3   0.330189 0.815628 0.278706 -0.873987
C33   C     C_3   0.363532 0.259719 0.181253 -0.339566
C34   C     C_3   0.917576 0.512750 0.502048 -0.094824
C35   C     C_3   0.314412 0.225317 0.310307 -0.796313
C36   C     C_3   0.192811 0.417974 0.124071 -0.360404
C37   C     C_3   0.130801 0.303174 0.105982 -0.727219
C38   C     C_3   0.076390 0.700768 0.332588 -0.393842
C39   C     C_3   0.011747 0.776027 0.258339 -0.790150
C40   C     C_3   0.942512 0.747205 0.609970 -0.348792
C41   C     C_3   0.014236 0.840884 0.653410 -0.784480
C42   C     C_3   0.578090 0.098360 0.995280 -0.435623
C43   C     C_3   0.639187 0.214050 0.983008 -0.789692
C44   C     C_3   0.033175 0.603177 0.425104 0.163171
C45   C     C_3   0.973495 0.491337 0.376043 -0.235932
C46   C     C_1   0.174527 0.507154 0.505825 0.056926
C47   C     C_1   0.826515 0.509309 0.499916 0.058672
C48   C     C_R   0.549239 0.108692 0.741540 -0.135084
F1    F     F_    0.631048 0.613472 0.138862 -0.613272
F2    F     F_    0.214339 0.355069 0.840779 -0.635230
F3    F     F_    0.629499 0.617454 0.863286 -0.607140
F4    F     F_    0.933329 0.327110 0.662337 -0.630255
F5    F     F_    0.057822 0.547969 0.759286 -0.626377
H1    H     H_    0.047428 0.304602 0.421087 0.185384
H2    H     H_    0.349131 0.753469 0.671516 0.203498
H3    H     H_    0.394974 0.708806 0.827684 0.223599
H4    H     H_    0.331963 0.738098 0.351338 0.257027
H5    H     H_    0.286723 0.887691 0.318472 0.249968
H6    H     H_    0.304131 0.775846 0.182520 0.247530
H7    H     H_    0.412137 0.950354 0.179545 0.177063
H8    H     H_    0.461310 0.806349 0.205855 0.236874
H9    H     H_    0.313488 0.121399 0.321931 0.235117
H10   H     H_    0.247580 0.253080 0.308616 0.248757
H11   H     H_    0.344846 0.267965 0.400662 0.265425
H12   H     H_    0.467618 0.900463 0.967980 0.127177
H13   H     H_    0.341921 0.190329 0.101433 0.167795
H14   H     H_    0.431333 0.242982 0.190593 0.207360
H15   H     H_    0.103363 0.299738 0.003543 0.324484
H16   H     H_    0.162709 0.213570 0.122859 0.241461
H17   H     H_    0.077110 0.310722 0.178498 0.223792
H18   H     H_    0.201569 0.439235 0.232748 0.194605
H19   H     H_    0.163899 0.501696 0.080880 0.231718
H20   H     H_    0.967785 0.711599 0.199336 0.273765
H21   H     H_    0.974314 0.833236 0.330176 0.258510
H22   H     H_    0.045875 0.841138 0.188084 0.247514
H23   H     H_    0.371032 0.343790 0.758128 0.224162
H24   H     H_    0.119478 0.765904 0.392114 0.201025
H25   H     H_    0.116091 0.650700 0.257532 0.203142
H26   H     H_    0.057564 0.796859 0.724538 0.287040
H27   H     H_    0.051335 0.874681 0.564971 0.247733
H28   H     H_    0.986523 0.923946 0.704539 0.264500
H29   H     H_    0.901886 0.791239 0.534995 0.213978
H30   H     H_    0.902054 0.723909 0.698997 0.237894
H31   H     H_    0.693389 0.192577 0.914998 0.274073
H32   H     H_    0.605073 0.295267 0.944989 0.241024
H33   H     H_    0.664999 0.241025 0.083730 0.258900
H34   H     H_    0.949234 0.475394 0.272255 0.193944
H35   H     H_    0.526291 0.123086 0.065816 0.181300
H36   H     H_    0.613395 0.021218 0.040154 0.237214
H37   H     H_    0.492749 0.103447 0.288380 0.150355
H38   H     H_    0.591215 0.191873 0.734807 0.177127
H39   H     H_    0.312692 0.874651 0.948317 0.253714
H40   H     H_    0.272496 0.925360 0.789172 0.272903
H41   H     H_    0.243297 0.769869 0.849740 0.277470
N1    N     N_R   0.499210 0.498800 0.142780 -0.178230
N2    N     N_R   0.499180 0.498720 0.857170 -0.181405
O1    O     O_R   0.500000 0.316780 0.614690 -0.640461
O2    O     O_R   0.499990 0.316750 0.385360 -0.621088
O3    O     O_R   0.376780 0.500000 0.614650 -0.627069
O4    O     O_R   0.376770 0.499980 0.385310 -0.614182
O5    O     O_R   0.500010 0.683250 0.614640 -0.596271
O6    O     O_R   0.500000 0.683220 0.385310 -0.580860
O7    O     O_R   0.623230 0.500020 0.614690 -0.550316
O8    O     O_R   0.623220 0.500000 0.385350 -0.552603
Zn1   Zn    Zn3+2 0.500010 0.500020 0.653130 0.983297
Zn2   Zn    Zn3+2 0.499990 0.499980 0.346870 0.994375

loop_
_geom_bond_atom_site_label_1
_geom_bond_atom_site_label_2
_ccdc_geom_bond_type
C24   F4    S    
N2    Zn1   S    
C37   H16   S    
C1    C8    S    
C18   N2    A    
C31   H8    S    
C32   H5    S    
C41   H27   S    
O8    Zn2   S    
C7    C8    A    
C38   C44   S    
C29   C30   S    
C12   C28   S    
C36   C37   S    
C45   H34   S    
C30   H40   S    
C14   C36   S    
C38   C39   S    
C15   F2    S    
C23   C40   S    
C37   H15   S    
C22   O8    A    
C18   C19   A    
C39   H21   S    
C10   C31   S    
C8    C9    A    
C48   H38   S    
C17   H23   S    
C35   H11   S    
C39   H22   S    
C9    C10   A    
C36   H18   S    
O1    Zn1   S    
C29   H3    S    
C37   H17   S    
C43   H31   S    
C40   H30   S    
C3    H12   S    
C32   H4    S    
C33   H13   S    
C5    C29   S    
O5    Zn1   S    
O3    Zn1   S    
C13   C19   A    
C43   H32   S    
C40   H29   S    
C24   C25   S    
C12   C46   S    
C1    O1    A    
C6    C11   A    
C26   C46   T    
C38   H25   S    
C2    C48   A    
C24   C34   S    
C22   O7    A    
C31   H7    S    
C9    H37   S    
C13   C33   S    
C20   F1    S    
N1    Zn2   S    
C11   C16   S    
C31   C32   S    
C23   C34   S    
C41   H28   S    
C17   C18   A    
O7    Zn1   S    
C34   C45   S    
C23   C28   S    
C25   H1    S    
C16   O6    A    
C40   C41   S    
C38   H24   S    
C20   N1    A    
C22   C27   S    
C4    O4    A    
C42   H35   S    
C42   C43   S    
C25   C45   S    
C21   F3    S    
C19   N1    A    
C44   C45   S    
C33   H14   S    
C27   C47   T    
C15   C17   A    
C43   H33   S    
C24   C28   S    
C3    C5    A    
C1    O2    A    
C41   H26   S    
C4    C26   S    
C28   F5    S    
C6    C7    A    
C21   N2    A    
C29   H2    S    
O4    Zn2   S    
O2    Zn2   S    
C12   C25   S    
C42   H36   S    
C7    C48   A    
C2    C3    A    
C30   H41   S    
C5    C6    A    
C2    C42   S    
C33   C35   S    
O6    Zn2   S    
C35   H9    S    
C39   H20   S    
C10   C11   A    
C23   C44   S    
C16   O5    A    
C20   C21   A    
C12   C44   S    
C4    O3    A    
C14   C15   A    
C35   H10   S    
C34   C47   S    
C32   H6    S    
C13   C14   A    
C36   H19   S    
C30   H39   S    
