data_mof_unit_4523.cif
_audit_creation_date              2012-10-26T19:45:13-0400
_audit_creation_method            fapswitch 2.2
_symmetry_space_group_name_H-M    P1
_symmetry_Int_Tables_number       1
_space_group_crystal_system       triclinic
_cell_length_a                    9.723886
_cell_length_b                    10.887084
_cell_length_c                    14.091061
_cell_angle_alpha                 93.130148
_cell_angle_beta                  85.967502
_cell_angle_gamma                 89.367918
_cell_volume                      1485.66807328

loop_
_atom_site_label
_atom_site_type_symbol
_atom_type_description
_atom_site_fract_x
_atom_site_fract_y
_atom_site_fract_z
_atom_type_partial_charge
C1    C     C_R   0.500053 0.736993 0.497140 0.540390
C2    C     C_R   0.937329 0.422368 0.438038 0.098132
C3    C     C_1   0.531824 0.499937 0.215491 -0.036998
C4    C     C_1   0.468178 0.500065 0.784509 -0.036998
C5    C     C_2   0.555336 0.496625 0.026073 -0.013904
C6    C     C_2   0.444671 0.503381 0.973926 -0.013904
C7    C     C_1   0.458045 0.501203 0.870486 -0.067314
C8    C     C_1   0.541960 0.498801 0.129514 -0.067315
C9    C     C_R   0.616187 0.934893 0.457702 -0.028675
C10   C     C_R   0.383817 0.065107 0.542298 -0.028678
C11   C     C_R   0.614859 0.062712 0.465771 -0.158645
C12   C     C_R   0.499948 0.263007 0.502860 0.540394
C13   C     C_R   0.385143 0.937288 0.534228 -0.158647
C14   C     C_R   0.113213 0.662174 0.637160 0.066569
C15   C     C_R   0.149424 0.615673 0.722448 -0.061280
C16   C     C_R   0.186557 0.694404 0.797615 -0.133595
C17   C     C_R   0.169568 0.821074 0.793680 -0.118438
C18   C     C_R   0.115671 0.868313 0.714076 -0.131177
C19   C     C_R   0.087866 0.789403 0.636140 -0.132420
C20   C     C_R   0.886785 0.337828 0.362839 0.066573
C21   C     C_R   0.850579 0.384337 0.277551 -0.061279
C22   C     C_R   0.813451 0.305610 0.202379 -0.133598
C23   C     C_R   0.499643 0.128854 0.505830 -0.004404
C24   C     C_R   0.830443 0.178941 0.206308 -0.118443
C25   C     C_R   0.884335 0.131695 0.285912 -0.131172
C26   C     C_R   0.912134 0.210598 0.363853 -0.132423
C27   C     C_R   0.305667 0.510895 0.020685 0.040299
C28   C     C_R   0.241168 0.625686 0.041888 -0.106780
C29   C     C_R   0.106071 0.631802 0.081789 -0.126972
C30   C     C_R   0.037946 0.523725 0.103938 -0.090419
C31   C     C_R   0.105217 0.409572 0.087735 -0.108033
C32   C     C_R   0.238693 0.402948 0.045254 -0.099412
C33   C     C_R   0.694341 0.489112 0.979315 0.040300
C34   C     C_R   0.500359 0.871146 0.494169 -0.004406
C35   C     C_R   0.761316 0.597061 0.954751 -0.099411
C36   C     C_R   0.894793 0.590437 0.912270 -0.108031
C37   C     C_R   0.962063 0.476283 0.896065 -0.090424
C38   C     C_R   0.893937 0.368204 0.918211 -0.126974
C39   C     C_R   0.758838 0.374320 0.958109 -0.106779
C40   C     C_R   0.735729 0.871986 0.405077 0.058020
C41   C     C_R   0.717972 0.801723 0.320523 -0.058620
C42   C     C_R   0.830951 0.742595 0.270536 -0.117401
C43   C     C_R   0.962013 0.752196 0.305041 -0.113298
C44   C     C_R   0.980908 0.824556 0.387718 -0.127316
C45   C     C_R   0.478702 0.499828 0.682172 0.541848
C46   C     C_R   0.868024 0.884654 0.437788 -0.111633
C47   C     C_R   0.264279 0.128016 0.594927 0.058014
C48   C     C_R   0.131986 0.115372 0.562210 -0.111622
C49   C     C_R   0.019109 0.175483 0.612278 -0.127306
C50   C     C_R   0.038007 0.247833 0.694960 -0.113297
C51   C     C_R   0.169066 0.257409 0.729471 -0.117399
C52   C     C_R   0.282040 0.198268 0.679486 -0.058633
C53   C     C_R   0.521298 0.500172 0.317828 0.541844
C54   C     C_R   0.916187 0.576443 0.560938 0.011068
C55   C     C_R   0.083813 0.423556 0.439063 0.011070
C56   C     C_R   0.062671 0.577631 0.561962 0.098137
Cu1   Cu    Cu3+1 0.359340 0.499980 0.500000 0.959808
Cu2   Cu    Cu3+1 0.640660 0.500020 0.500000 0.959801
H1    H     H_    0.853107 0.636744 0.610406 0.123434
H2    H     H_    0.848993 0.482420 0.270445 0.124591
H3    H     H_    0.777690 0.343302 0.139520 0.115699
H4    H     H_    0.806445 0.118095 0.146595 0.104678
H5    H     H_    0.904658 0.034191 0.286913 0.134197
H6    H     H_    0.954415 0.172313 0.424309 0.091808
H7    H     H_    0.293725 0.709597 0.024410 0.096772
H8    H     H_    0.053004 0.719828 0.093087 0.099204
H9    H     H_    0.930670 0.528202 0.127895 0.103886
H10   H     H_    0.052645 0.325585 0.103533 0.119846
H11   H     H_    0.289007 0.314069 0.030096 0.099053
H12   H     H_    0.146893 0.363255 0.389594 0.123433
H13   H     H_    0.711003 0.685941 0.969911 0.099051
H14   H     H_    0.947366 0.674425 0.896475 0.119841
H15   H     H_    0.069340 0.471807 0.872109 0.103888
H16   H     H_    0.947003 0.280178 0.906912 0.099207
H17   H     H_    0.706279 0.290406 0.975582 0.096772
H18   H     H_    0.616821 0.793036 0.293385 0.093184
H19   H     H_    0.815921 0.689801 0.205119 0.090819
H20   H     H_    0.049560 0.704716 0.267825 0.124555
H21   H     H_    0.083360 0.834496 0.412250 0.110390
H22   H     H_    0.883042 0.941371 0.501603 0.089558
H23   H     H_    0.702236 0.111044 0.437321 0.145109
H24   H     H_    0.116966 0.058662 0.498391 0.089554
H25   H     H_    0.916659 0.165565 0.587740 0.110393
H26   H     H_    0.950467 0.295327 0.732173 0.124552
H27   H     H_    0.184099 0.310199 0.794890 0.090822
H28   H     H_    0.383189 0.206940 0.706627 0.093184
H29   H     H_    0.297766 0.888957 0.562678 0.145112
H30   H     H_    0.151008 0.517592 0.729559 0.124589
H31   H     H_    0.222318 0.656717 0.860476 0.115693
H32   H     H_    0.193571 0.881925 0.853389 0.104678
H33   H     H_    0.095347 0.965818 0.713071 0.134195
H34   H     H_    0.045578 0.827684 0.575684 0.091820
N1    N     N_R   0.147930 0.499970 0.499980 -0.239307
N2    N     N_R   0.852070 0.500030 0.500020 -0.239311
O1    O     O_R   0.381260 0.680340 0.500000 -0.504162
O2    O     O_R   0.618740 0.319660 0.500000 -0.504166
O3    O     O_R   0.618830 0.680370 0.500010 -0.492486
O4    O     O_R   0.381170 0.319630 0.499990 -0.492482
O5    O     O_R   0.364420 0.499960 0.637840 -0.501640
O6    O     O_R   0.635580 0.500040 0.362160 -0.501644
O7    O     O_R   0.601990 0.499990 0.637850 -0.498582
O8    O     O_R   0.398010 0.500010 0.362150 -0.498580

loop_
_geom_bond_atom_site_label_1
_geom_bond_atom_site_label_2
_ccdc_geom_bond_type
C14   C56   S    
C40   C41   A    
C41   C42   A    
C35   C36   A    
C55   N1    A    
C51   H27   S    
C50   H26   S    
C31   C32   A    
C11   H23   S    
C43   H20   S    
C40   C46   A    
Cu1   O8    S    
C12   C23   S    
C37   C38   A    
C18   H33   S    
C28   C29   A    
C2    C55   A    
C38   C39   A    
C15   C16   A    
Cu1   O5    S    
C18   C19   A    
C25   H5    S    
C26   H6    S    
Cu2   O2    S    
C19   H34   S    
C47   C48   A    
C16   C17   A    
C5    C33   S    
C39   H17   S    
C12   O4    A    
C30   H9    S    
C54   H1    S    
C35   H13   S    
C16   H31   S    
Cu1   N1    S    
C21   C22   A    
C31   H10   S    
Cu2   O3    S    
C4    C7    T    
C44   C46   A    
C1    C34   S    
C50   C51   A    
C6    C7    S    
C4    C45   S    
C53   O6    A    
C56   N1    A    
C54   C56   A    
C2    C20   S    
C51   C52   A    
C2    N2    A    
Cu2   O6    S    
C24   C25   A    
C21   H2    S    
C3    C8    T    
C45   O5    A    
C1    O3    A    
C25   C26   A    
C9    C40   S    
C43   C44   A    
C29   C30   A    
C6    C27   S    
C53   O8    A    
C1    O1    A    
C13   H29   S    
C17   C18   A    
Cu2   O7    S    
C33   C39   A    
C9    C11   A    
C32   H11   S    
C45   O7    A    
C48   C49   A    
C9    C34   A    
C22   C24   A    
C42   C43   A    
C10   C47   S    
C38   H16   S    
C37   H15   S    
C36   C37   A    
C24   H4    S    
C27   C32   A    
C14   C19   A    
C44   H21   S    
C17   H32   S    
C10   C13   A    
C5    C8    S    
C47   C52   A    
C10   C23   A    
C49   H25   S    
C52   H28   S    
C28   H7    S    
Cu2   N2    S    
C13   C34   A    
C22   H3    S    
C46   H22   S    
C3    C53   S    
C30   C31   A    
Cu1   Cu2   S    
C5    C6    D    
C20   C26   A    
Cu1   O4    S    
C11   C23   A    
C33   C35   A    
C48   H24   S    
C54   N2    A    
C55   H12   S    
C29   H8    S    
C20   C21   A    
C42   H19   S    
C49   C50   A    
Cu1   O1    S    
C27   C28   A    
C14   C15   A    
C12   O2    A    
C36   H14   S    
C15   H30   S    
C41   H18   S    
