data_mof_unit_3500.cif
_audit_creation_date              2012-12-11T15:33:48-0500
_audit_creation_method            fapswitch 2.2
_symmetry_space_group_name_H-M    P1
_symmetry_Int_Tables_number       1
_space_group_crystal_system       triclinic
_cell_length_a                    27.220417
_cell_length_b                    7.197715
_cell_length_c                    22.60359
_cell_angle_alpha                 89.999989
_cell_angle_beta                  101.271082
_cell_angle_gamma                 90.00056
_cell_volume                      4343.19135679

loop_
_atom_site_label
_atom_site_type_symbol
_atom_type_description
_atom_site_fract_x
_atom_site_fract_y
_atom_site_fract_z
_atom_type_partial_charge
O1    O     O_R   0.207310 0.594030 0.676830 -0.544332
O2    O     O_R   0.792690 0.405970 0.323170 -0.544332
O3    O     O_R   0.292690 0.094030 0.823170 -0.544344
O4    O     O_R   0.707310 0.905970 0.176830 -0.544344
O5    O     O_R   0.197320 0.262370 0.795700 -0.503853
O6    O     O_R   0.802680 0.737630 0.204300 -0.503853
O7    O     O_R   0.302680 0.762370 0.704300 -0.503852
O8    O     O_R   0.697320 0.237630 0.295700 -0.503852
C1    C     C_R   0.184869 0.432465 0.812310 0.817126
C2    C     C_R   0.815131 0.567535 0.187690 0.817126
C3    C     C_R   0.315132 0.932466 0.687691 0.817141
C4    C     C_R   0.684868 0.067534 0.312308 0.817141
O9    O     O_R   0.201410 0.264250 0.675590 -0.532557
O10   O     O_R   0.798590 0.735750 0.324410 -0.532558
O11   O     O_R   0.298590 0.764250 0.824410 -0.532559
O12   O     O_R   0.701410 0.235750 0.175590 -0.532558
O13   O     O_R   0.296810 0.094940 0.702210 -0.505515
O14   O     O_R   0.703190 0.905060 0.297790 -0.505515
O15   O     O_R   0.203190 0.594940 0.797790 -0.505520
O16   O     O_R   0.796810 0.405060 0.202210 -0.505521
C5    C     C_R   0.189984 0.433732 0.652889 0.749133
C6    C     C_R   0.810016 0.566268 0.347111 0.749132
C7    C     C_R   0.310013 0.933734 0.847113 0.749132
C8    C     C_R   0.689987 0.066266 0.152887 0.749131
O17   O     O_3   0.281300 0.427390 0.758870 -0.371515
O18   O     O_3   0.718700 0.572610 0.241130 -0.371515
O19   O     O_3   0.218700 0.927390 0.741130 -0.371517
O20   O     O_3   0.781300 0.072610 0.258870 -0.371517
V1    V     V_3+5 0.244190 0.152150 0.748350 1.644224
V2    V     V_3+5 0.755810 0.847850 0.251650 1.644225
V3    V     V_3+5 0.255810 0.652150 0.751650 1.644223
V4    V     V_3+5 0.744190 0.347850 0.248350 1.644223
C9    C     C_R   0.656143 0.048929 0.093023 -0.194848
C10   C     C_R   0.343856 0.951072 0.906977 -0.194846
C11   C     C_R   0.843863 0.548948 0.406973 -0.194840
C12   C     C_R   0.156136 0.451052 0.593027 -0.194841
C13   C     C_R   0.642843 0.947256 0.988651 0.635673
C14   C     C_R   0.357156 0.052750 0.011348 0.635671
C15   C     C_R   0.857162 0.447582 0.511379 0.635691
C16   C     C_R   0.142838 0.552416 0.488621 0.635691
C17   C     C_R   0.674993 0.982269 0.043626 0.090905
C18   C     C_R   0.325007 0.017734 0.956374 0.090906
C19   C     C_R   0.825014 0.482401 0.456386 0.090871
C20   C     C_R   0.174986 0.517599 0.543613 0.090872
C21   C     C_R   0.604078 0.068999 0.087430 -0.231763
C22   C     C_R   0.395922 0.931001 0.912570 -0.231764
C23   C     C_R   0.895931 0.568950 0.412557 -0.231795
C24   C     C_R   0.104069 0.431047 0.587443 -0.231794
C25   C     C_R   0.569873 0.020887 0.033065 0.008079
C26   C     C_R   0.430127 0.979118 0.966935 0.008079
C27   C     C_R   0.930131 0.520922 0.466933 0.008050
C28   C     C_R   0.069869 0.479072 0.533066 0.008050
C29   C     C_R   0.590307 0.966498 0.982194 -0.115371
C30   C     C_R   0.409692 0.033510 0.017806 -0.115370
C31   C     C_R   0.909695 0.466903 0.517838 -0.115361
C32   C     C_R   0.090304 0.533089 0.482161 -0.115361
C33   C     C_R   0.516214 0.022433 0.027988 0.064929
C34   C     C_R   0.483785 0.977574 0.972012 0.064929
C35   C     C_R   0.983787 0.522246 0.471995 0.064909
C36   C     C_R   0.016213 0.477745 0.528005 0.064909
C37   C     C_R   0.505960 0.936781 0.922312 -0.219533
C38   C     C_R   0.494040 0.063231 0.077687 -0.219533
C39   C     C_R   0.994041 0.437604 0.577755 -0.219515
C40   C     C_R   0.005958 0.562382 0.422244 -0.219515
C41   C     C_R   0.557586 0.929856 0.926649 0.236986
C42   C     C_R   0.442413 0.070159 0.073350 0.236986
C43   C     C_R   0.942413 0.430748 0.573422 0.237026
C44   C     C_R   0.057587 0.569238 0.426577 0.237028
H1    H     H_    0.408270 0.882922 0.872820 0.139144
H2    H     H_    0.591729 0.117073 0.127181 0.139143
H3    H     H_    0.091710 0.383012 0.627193 0.139173
H4    H     H_    0.908290 0.616988 0.372807 0.139174
H5    H     H_    0.483957 0.910322 0.878242 0.148833
H6    H     H_    0.516042 0.089696 0.121758 0.148833
H7    H     H_    0.016050 0.411697 0.621863 0.148817
H8    H     H_    0.983950 0.588283 0.378136 0.148817
C45   C     C_R   0.645086 0.898871 0.388917 0.566098
C46   C     C_R   0.354913 0.101129 0.611082 0.566098
C47   C     C_R   0.854909 0.398883 0.111075 0.566113
C48   C     C_R   0.145091 0.601116 0.888925 0.566113
C49   C     C_R   0.609637 0.884108 0.426243 0.115393
C50   C     C_R   0.390363 0.115892 0.573756 0.115392
C51   C     C_R   0.890356 0.384128 0.073746 0.115377
C52   C     C_R   0.109643 0.615871 0.926253 0.115377
C53   C     C_R   0.574005 0.026342 0.426720 -0.359437
C54   C     C_R   0.425994 0.973658 0.573280 -0.359436
C55   C     C_R   0.925988 0.526363 0.073271 -0.359430
C56   C     C_R   0.074011 0.473637 0.926729 -0.359430
C57   C     C_R   0.575765 0.184121 0.390273 0.588815
C58   C     C_R   0.424234 0.815879 0.609726 0.588815
C59   C     C_R   0.924229 0.684141 0.109717 0.588817
C60   C     C_R   0.075771 0.315858 0.890283 0.588818
C61   C     C_R   0.611640 0.199162 0.353477 0.514447
C62   C     C_R   0.388359 0.800839 0.646522 0.514446
C63   C     C_R   0.888355 0.699176 0.146514 0.514442
C64   C     C_R   0.111645 0.300824 0.853485 0.514441
C65   C     C_R   0.646639 0.055762 0.351812 -0.431369
C66   C     C_R   0.353361 0.944238 0.648187 -0.431368
C67   C     C_R   0.853358 0.555770 0.148182 -0.431368
C68   C     C_R   0.146642 0.444230 0.851818 -0.431366
N1    N     N_R   0.525328 0.159854 0.498260 -0.175935
N2    N     N_R   0.474671 0.840147 0.501739 -0.175935
N3    N     N_R   0.974661 0.659837 0.001719 -0.175950
N4    N     N_R   0.025339 0.340162 0.998281 -0.175950
N5    N     N_R   0.490914 0.147150 0.532780 -0.208480
N6    N     N_R   0.509085 0.852850 0.467219 -0.208480
N7    N     N_R   0.009079 0.647123 0.967204 -0.208479
N8    N     N_R   0.990921 0.352876 0.032796 -0.208479
C69   C     C_R   0.464702 0.987360 0.535113 0.639500
C70   C     C_R   0.535298 0.012641 0.464886 0.639500
C71   C     C_R   0.035301 0.487348 0.964891 0.639521
C72   C     C_R   0.964699 0.512651 0.035109 0.639521
I1    I     I_    0.579739 0.867150 0.843191 -0.082591
I2    I     I_    0.420261 0.132879 0.156808 -0.082592
I3    I     I_    0.920243 0.369257 0.656954 -0.082559
I4    I     I_    0.079757 0.630713 0.343044 -0.082558
I5    I     I_    0.247633 0.078898 0.949979 -0.090439
I6    I     I_    0.752366 0.921103 0.050020 -0.090439
I7    I     I_    0.252354 0.578833 0.550002 -0.090466
I8    I     I_    0.747645 0.421171 0.449998 -0.090464
F1    F     F_    0.663949 0.884720 0.942914 -0.604830
F2    F     F_    0.336050 0.115285 0.057086 -0.604829
F3    F     F_    0.836065 0.385062 0.557126 -0.604832
F4    F     F_    0.163934 0.614937 0.442874 -0.604832
F5    F     F_    0.679121 0.760685 0.390424 -0.611549
F6    F     F_    0.320878 0.239314 0.609575 -0.611550
F7    F     F_    0.820873 0.260695 0.109568 -0.611548
F8    F     F_    0.179126 0.739305 0.890432 -0.611548
I9    I     I_    0.615231 0.649407 0.484715 -0.003871
I10   I     I_    0.384768 0.350593 0.515284 -0.003871
I11   I     I_    0.884761 0.149444 0.015268 -0.003868
I12   I     I_    0.115239 0.850556 0.984732 -0.003867
F9    F     F_    0.541694 0.322572 0.389027 -0.574860
F10   F     F_    0.458306 0.677428 0.610973 -0.574860
F11   F     F_    0.958300 0.822595 0.110962 -0.574867
F12   F     F_    0.041700 0.177405 0.889038 -0.574867
F13   F     F_    0.611107 0.352538 0.318400 -0.596637
F14   F     F_    0.388893 0.647463 0.681600 -0.596637
F15   F     F_    0.888888 0.852553 0.181592 -0.596636
F16   F     F_    0.111112 0.147447 0.818408 -0.596636

loop_
_geom_bond_atom_site_label_1
_geom_bond_atom_site_label_2
_ccdc_geom_bond_type
O17   V3    S    
C51   C55   A    
C25   C29   A    
O1    C5    A    
C55   C59   A    
O19   V1    S    
C9    C21   A    
O3    C7    A    
C10   C18   A    
C60   C64   A    
C48   C52   A    
O15   V3    S    
C15   F3    S    
C33   C38   A    
C5    C12   S    
O7    C3    A    
C6    C11   S    
O5    C1    A    
C26   C30   A    
C3    C66   S    
C40   C44   A    
C47   C67   A    
C14   C18   A    
O16   V4    S    
C58   F10   S    
C63   C67   A    
C62   C66   A    
O1    V3    S    
O13   V1    S    
C31   C43   A    
O2    V4    S    
O3    V1    S    
C43   I3    S    
C22   H1    S    
N5    C69   A    
C28   C36   A    
C56   C71   S    
C1    O15   A    
C15   C31   A    
C56   C60   A    
C2    O16   A    
C16   C32   A    
C46   C66   A    
C45   C65   A    
C10   C22   A    
C21   C25   A    
C17   I6    S    
C50   I10   S    
C11   C19   A    
C16   C20   A    
C19   I8    S    
C13   C29   A    
C34   C37   A    
O11   C7    A    
C11   C23   A    
C35   C36   A    
O12   C8    A    
C48   C68   A    
C57   C61   A    
C60   F12   S    
N7    C71   A    
O10   V2    S    
C45   F5    S    
C58   C62   A    
O5    V1    S    
N1    N5    A    
C16   F4    S    
C39   C43   A    
O7    V3    S    
C38   C42   A    
C26   C34   A    
C54   C69   S    
C57   F9    S    
C53   C70   S    
C54   C58   A    
C53   C57   A    
O18   V4    S    
C15   C19   A    
C55   C72   S    
C48   F8    S    
C20   I7    S    
C37   H5    S    
N1    C70   A    
C50   C54   A    
C52   I12   S    
N8    C72   A    
N3    C72   A    
O8    V4    S    
O2    C6    A    
C37   C41   A    
C46   C50   A    
C49   I9    S    
C14   C30   A    
C45   C49   A    
O8    C4    A    
C7    C10   S    
C40   H8    S    
O9    C5    A    
C4    C65   S    
C14   F2    S    
C44   I4    S    
C13   F1    S    
O6    V2    S    
C1    C68   S    
C36   C39   A    
O14   V2    S    
C62   F14   S    
C12   C20   A    
C27   C35   A    
C24   H3    S    
C46   F6    S    
C61   C65   A    
N4    N8    A    
C29   C41   A    
N6    C70   A    
O9    V1    S    
C47   F7    S    
C3    O13   A    
C42   I2    S    
C21   H2    S    
C41   I1    S    
C52   C56   A    
C64   F16   S    
N4    C71   A    
C23   C27   A    
C18   I5    S    
O11   V3    S    
C30   C42   A    
O12   V4    S    
C22   C26   A    
C63   F15   S    
C8    C9    S    
C9    C17   A    
O10   C6    A    
O20   V2    S    
C51   I11   S    
C32   C44   A    
C47   C51   A    
C33   C34   A    
C25   C33   A    
C39   H7    S    
O4    C8    A    
C64   C68   A    
C12   C24   A    
C27   C31   A    
C13   C17   A    
C2    C67   S    
O4    V2    S    
C23   H4    S    
C61   F13   S    
O6    C2    A    
C59   C63   A    
C35   C40   A    
C24   C28   A    
C59   F11   S    
N2    N6    A    
C4    O14   A    
C38   H6    S    
N2    C69   A    
N3    N7    A    
C49   C53   A    
C28   C32   A    
