data_mof_unit_3843.cif
_audit_creation_date              2013-03-05T16:03:50-0500
_audit_creation_method            fapswitch 2.2
_symmetry_space_group_name_H-M    P1
_symmetry_Int_Tables_number       1
_space_group_crystal_system       triclinic
_cell_length_a                    6.936712
_cell_length_b                    17.682095
_cell_length_c                    19.463296
_cell_angle_alpha                 109.045647
_cell_angle_beta                  90.224564
_cell_angle_gamma                 90.776756
_cell_volume                      2256.30452269

loop_
_atom_site_label
_atom_site_type_symbol
_atom_site_description
_atom_site_fract_x
_atom_site_fract_y
_atom_site_fract_z
_atom_type_partial_charge
O1    O     O_R   0.505700 0.440210 0.561730 -0.603621
O2    O     O_R   0.169350 0.406300 0.412660 -0.589472
O3    O     O_R   0.005650 0.559790 0.438270 -0.594697
C1    C     C_R   0.338062 0.383071 0.384930 0.945998
O4    O     O_R   0.175560 0.430650 0.559600 -0.598683
O5    O     O_R   0.011900 0.584320 0.586250 -0.588472
C2    C     C_R   0.344408 0.415450 0.580987 0.912132
O6    O     O_R   0.499450 0.415680 0.413750 -0.586316
O7    O     O_3   0.341370 0.550390 0.508570 -0.265695
V1    V     V_3+5 0.063940 0.490650 0.498410 1.160108
O8    O     O_R   0.682570 0.593700 0.587340 -0.592483
C3    C     C_R   0.852600 0.616614 0.614920 0.940100
O9    O     O_R   0.676370 0.569350 0.440400 -0.584735
C4    C     C_R   0.845605 0.584704 0.419431 0.914834
V2    V     V_3+5 0.564750 0.509350 0.501590 1.167052
O10   O     O_3   0.837190 0.449610 0.491430 -0.276113
C5    C     C_R   0.930927 0.644544 0.252027 -0.109522
H1    H     H_    0.976486 0.615955 0.196525 0.099231
C6    C     C_R   0.921421 0.599229 0.299125 -0.149268
H2    H     H_    0.959726 0.536803 0.279319 0.100758
C7    C     C_R   0.857384 0.633475 0.370690 -0.101431
C8    C     C_R   0.806828 0.714401 0.395186 -0.179821
H3    H     H_    0.759287 0.742200 0.450570 0.107643
C9    C     C_R   0.819955 0.760317 0.348566 -0.000715
H4    H     H_    0.782489 0.822933 0.369007 0.111951
C10   C     C_R   0.877888 0.725457 0.275826 0.175740
C11   C     C_R   0.726181 0.820662 0.217070 0.360512
C12   C     C_R   0.744072 0.867001 0.170556 -0.283796
H5    H     H_    0.623461 0.902780 0.164796 0.170102
C13   C     C_R   0.913123 0.866656 0.130672 -0.184664
C14   C     C_R   0.065746 0.818417 0.137750 -0.111573
H6    H     H_    0.197320 0.816072 0.107391 0.135978
C15   C     C_R   0.049656 0.771659 0.183368 -0.092308
H7    H     H_    0.169405 0.734594 0.186877 0.177467
C16   C     C_R   0.882879 0.773000 0.224708 -0.096326
H8    H     H_    0.617338 0.651945 0.930582 0.116304
C17   C     C_R   0.058157 0.895949 0.748964 -0.169207
C18   C     C_R   0.122698 0.904451 0.684154 -0.118046
C19   C     C_R   0.103038 0.841292 0.619387 -0.109513
C20   C     C_R   0.019037 0.769122 0.618977 -0.156328
C21   C     C_R   0.953894 0.758365 0.684085 0.118786
C22   C     C_R   0.973520 0.823156 0.750425 0.120757
C23   C     C_R   0.866672 0.685163 0.683609 -0.316137
C24   C     C_R   0.798165 0.676842 0.749385 0.118914
C25   C     C_R   0.817482 0.741686 0.815708 0.118357
C26   C     C_R   0.905138 0.814836 0.816223 -0.317535
C27   C     C_R   0.713506 0.604031 0.750830 -0.171105
C28   C     C_R   0.648087 0.595675 0.815586 -0.117603
C29   C     C_R   0.667076 0.658931 0.880307 -0.113790
C30   C     C_R   0.751508 0.731039 0.880755 -0.153405
H9    H     H_    0.074329 0.947301 0.797602 0.112578
H10   H     H_    0.187067 0.960590 0.684163 0.122890
H11   H     H_    0.151979 0.848386 0.569057 0.124236
H12   H     H_    0.004230 0.722364 0.566951 0.105138
H13   H     H_    0.697868 0.552545 0.702235 0.118290
H14   H     H_    0.583498 0.539576 0.815578 0.120816
H15   H     H_    0.765872 0.777849 0.932766 0.106047
H16   H     H_    0.153829 0.463239 0.174889 0.114044
C31   C     C_R   0.471278 0.228344 0.384908 -0.149703
C32   C     C_R   0.546667 0.156406 0.386855 -0.123496
C33   C     C_R   0.581137 0.094663 0.322574 -0.063737
C34   C     C_R   0.540063 0.104267 0.255804 -0.160372
C35   C     C_R   0.464481 0.176708 0.251975 0.105990
C36   C     C_R   0.429479 0.240243 0.317978 0.122261
C37   C     C_R   0.421549 0.186049 0.183931 -0.314382
C38   C     C_R   0.346165 0.259621 0.182154 0.121807
C39   C     C_R   0.312451 0.323377 0.248106 0.116694
C40   C     C_R   0.352462 0.313667 0.316266 -0.316383
C41   C     C_R   0.306744 0.271680 0.115123 -0.147674
C42   C     C_R   0.237140 0.344386 0.112967 -0.112802
C43   C     C_R   0.205929 0.406675 0.177125 -0.110801
C44   C     C_R   0.242825 0.396628 0.244057 -0.172222
H17   H     H_    0.444901 0.274167 0.436435 0.097572
H18   H     H_    0.577921 0.148463 0.438593 0.122978
H19   H     H_    0.639591 0.038886 0.324421 0.147629
H20   H     H_    0.568704 0.054395 0.207367 0.115002
H21   H     H_    0.331847 0.225571 0.063652 0.096487
H22   H     H_    0.208751 0.352637 0.061158 0.116267
H23   H     H_    0.217372 0.446985 0.292457 0.114377
C45   C     C_R   0.540898 0.284676 0.685107 -0.154310
H24   H     H_    0.676481 0.256704 0.688998 0.103598
C46   C     C_R   0.529113 0.330339 0.638571 -0.169575
H25   H     H_    0.656573 0.337013 0.608961 0.132786
C47   C     C_R   0.354916 0.366004 0.629644 -0.126841
C48   C     C_R   0.192827 0.355102 0.668669 -0.149912
H26   H     H_    0.056929 0.382375 0.663615 0.123707
C49   C     C_R   0.205254 0.310342 0.716062 -0.153730
H27   H     H_    0.078530 0.305236 0.746611 0.098959
C50   C     C_R   0.379470 0.274244 0.724917 0.111771
C51   C     C_R   0.232863 0.180725 0.785205 -0.159325
H28   H     H_    0.098947 0.179102 0.755998 0.104854
C52   C     C_R   0.244371 0.135673 0.832233 -0.160825
H29   H     H_    0.118209 0.101789 0.838401 0.125539
C53   C     C_R   0.416737 0.133297 0.869761 -0.126311
C54   C     C_R   0.577166 0.177620 0.859358 -0.158305
H30   H     H_    0.711852 0.177500 0.887662 0.129568
C55   C     C_R   0.564879 0.223705 0.813056 -0.152620
H31   H     H_    0.690206 0.258536 0.807927 0.099794
C56   C     C_R   0.392591 0.225776 0.775047 0.113320
O11   O     O_R   0.273230 0.084330 0.086440 -0.583827
O12   O     O_R   0.596660 0.069390 0.940470 -0.598344
O13   O     O_R   0.760270 0.915710 0.913690 -0.587386
C57   C     C_R   0.427739 0.084400 0.918940 0.913560
O14   O     O_R   0.603330 0.093680 0.087390 -0.590854
O15   O     O_R   0.766990 0.940160 0.061660 -0.603335
C58   C     C_R   0.434893 0.116634 0.115350 0.947031
O16   O     O_R   0.266510 0.059870 0.938470 -0.601569
O17   O     O_3   0.431050 0.949630 0.991510 -0.271568
V3    V     V_3+5 0.708490 0.009340 0.001580 1.155910
O18   O     O_R   0.096270 0.930570 0.059390 -0.594820
C59   C     C_R   0.926919 0.915639 0.081258 0.946802
O19   O     O_R   0.089600 0.906290 0.912460 -0.593186
C60   C     C_R   0.919473 0.883377 0.884948 0.942550
V4    V     V_3+5 0.207670 0.990600 0.998190 1.160850
O20   O     O_3   0.935250 0.050360 0.008480 -0.272985
N1    N     N_R   0.545849 0.820467 0.253381 0.212515
O21   O     O_R   0.478747 0.755010 0.261814 -0.444522
O22   O     O_R   0.437057 0.883186 0.270451 -0.438833

loop_
_geom_bond_atom_site_label_1
_geom_bond_atom_site_label_2
_geom_bond_distance
_ccdc_geom_bond_type
C49   H27   1.082301 S    
C35   C37   1.418076 A    
C42   H22   1.082657 S    
C21   C22   1.423792 A    
C37   C58   1.493856 S    
C41   H21   1.082029 S    
C54   H30   1.083116 S    
C1    O6    1.291083 A    
O19   V4    2.002529 S    
V4    O20   2.155606 S    
C19   H11   1.082696 S    
C48   H26   1.083259 S    
C33   H19   1.082707 S    
C32   H18   1.082662 S    
C31   C36   1.415240 A    
C17   C18   1.393044 A    
C50   C56   1.497295 S    
C5    C10   1.407108 A    
C36   C40   1.420910 A    
C4    C7    1.477483 S    
C27   H13   1.081514 S    
C12   H5    1.082905 S    
C6    C7    1.402074 A    
C9    C10   1.409769 A    
C44   H23   1.081460 S    
O5    C3    1.293252 A    
C13   C14   1.402643 A    
C17   H9    1.081034 S    
H16   C43   1.082093 S    
C38   C41   1.415168 A    
C18   H10   1.082876 S    
O12   V3    1.995799 S    
V2    O10   2.155725 S    
C45   C50   1.408110 A    
O18   V4    1.988172 S    
O17   V3    2.159585 S    
C5    H1    1.083045 S    
C39   C44   1.414343 A    
C22   C26   1.418648 A    
O17   V4    1.706832 S    
C17   C22   1.416235 A    
C29   C30   1.393272 A    
O18   C59   1.303735 A    
C5    C6    1.401817 A    
O8    V2    2.002407 S    
C27   C28   1.393016 A    
C14   C15   1.400619 A    
C42   C43   1.389327 A    
O1    V2    1.989129 S    
O7    V1    2.159635 S    
C31   H17   1.082069 S    
C24   C27   1.416489 A    
C11   N1    1.439673 S    
C2    C47   1.485979 S    
O15   C59   1.296871 A    
C31   C32   1.393656 A    
O12   C57   1.302392 A    
O9    C4    1.298392 A    
C21   C23   1.418614 A    
C34   H20   1.081459 S    
C41   C42   1.392656 A    
O14   C58   1.303736 A    
O19   C60   1.297718 A    
C55   C56   1.410261 A    
C55   H31   1.082288 S    
C48   C49   1.400857 A    
C18   C19   1.389451 A    
C39   C40   1.418976 A    
O11   V4    2.004853 S    
C9    H4    1.082958 S    
C45   C46   1.399112 A    
C19   C20   1.393279 A    
O4    C2    1.301953 A    
C11   C16   1.420988 A    
C25   C26   1.418805 A    
C32   C33   1.390095 A    
O2    C1    1.304962 A    
C23   C24   1.418519 A    
O16   V4    1.984236 S    
C34   C35   1.414686 A    
C51   C52   1.398502 A    
C14   H6    1.083115 S    
C52   C53   1.406910 A    
C15   H7    1.080612 S    
C53   C54   1.405458 A    
C47   C48   1.405228 A    
O3    C4    1.294803 A    
C20   C21   1.416216 A    
C53   C57   1.486918 S    
C37   C38   1.419378 A    
O6    V2    1.999223 S    
C46   C47   1.406598 A    
O9    V2    1.988222 S    
C8    C9    1.403648 A    
O2    V1    1.989776 S    
C51   C56   1.407781 A    
C24   C25   1.423894 A    
C1    C40   1.495328 S    
C28   H14   1.082845 S    
O15   V3    1.992908 S    
C28   C29   1.389372 A    
C26   C60   1.485115 S    
O1    C2    1.296556 A    
C30   H15   1.081626 S    
O11   C58   1.291651 A    
C45   H24   1.082312 S    
O5    V1    1.992356 S    
O8    C3    1.297517 A    
C54   C55   1.401434 A    
C3    C23   1.484658 S    
C20   H12   1.081644 S    
C13   C59   1.492124 S    
C6    H2    1.081046 S    
C49   C50   1.410185 A    
O7    V2    1.707007 S    
C43   C44   1.394205 A    
O3    V1    1.992950 S    
V1    O10   1.709417 S    
C51   H28   1.082304 S    
O14   V3    1.989726 S    
C25   C30   1.416148 A    
C12   C13   1.407836 A    
C52   H29   1.082965 S    
C15   C16   1.407805 A    
N1    O22   1.301522 A    
N1    O21   1.301237 A    
C38   C39   1.427735 A    
C33   C34   1.393300 A    
V3    O20   1.709442 S    
C35   C36   1.428029 A    
C10   C16   1.497705 S    
O4    V1    1.995776 S    
C46   H25   1.083207 S    
C11   C12   1.410178 A    
O13   C60   1.293293 A    
C8    H3    1.083390 S    
O13   V3    1.992186 S    
C57   O16   1.296618 A    
C7    C8    1.402699 A    
H8    C29   1.082679 S    
