data_mof_unit_4719.cif
_audit_creation_date              2012-12-11T17:41:38-0500
_audit_creation_method            fapswitch 2.2
_symmetry_space_group_name_H-M    P1
_symmetry_Int_Tables_number       1
_space_group_crystal_system       monoclinic
_cell_length_a                    7.30369
_cell_length_b                    23.769762
_cell_length_c                    26.2039
_cell_angle_alpha                 90.0
_cell_angle_beta                  90.0
_cell_angle_gamma                 89.999962
_cell_volume                      4549.17976036

loop_
_atom_site_label
_atom_site_type_symbol
_atom_type_description
_atom_site_fract_x
_atom_site_fract_y
_atom_site_fract_z
_atom_type_partial_charge
O1    O     O_R   0.607880 0.800910 0.198150 -0.522885
O2    O     O_R   0.392120 0.199090 0.801850 -0.520825
O3    O     O_R   0.392120 0.199090 0.698150 -0.522886
O4    O     O_R   0.607880 0.800910 0.301850 -0.520825
O5    O     O_R   0.107880 0.699090 0.301850 -0.522888
O6    O     O_R   0.892120 0.300910 0.698150 -0.520825
O7    O     O_R   0.892120 0.300910 0.801850 -0.522887
O8    O     O_R   0.107880 0.699090 0.198150 -0.520826
O9    O     O_R   0.278160 0.807580 0.301500 -0.522661
O10   O     O_R   0.721840 0.192420 0.698500 -0.529040
O11   O     O_R   0.721840 0.192420 0.801500 -0.522661
O12   O     O_R   0.278160 0.807580 0.198500 -0.529039
O13   O     O_R   0.778160 0.692420 0.198500 -0.522659
O14   O     O_R   0.221840 0.307580 0.801500 -0.529041
O15   O     O_R   0.221840 0.307580 0.698500 -0.522660
O16   O     O_R   0.778160 0.692420 0.301500 -0.529042
C1    C     C_R   0.446047 0.820886 0.318834 0.717765
C2    C     C_R   0.553252 0.179437 0.681579 0.755986
C3    C     C_R   0.553953 0.179114 0.818834 0.717766
C4    C     C_R   0.446748 0.820562 0.181579 0.755985
C5    C     C_R   0.946047 0.679114 0.181166 0.717768
C6    C     C_R   0.053252 0.320562 0.818421 0.755989
C7    C     C_R   0.053953 0.320886 0.681166 0.717767
C8    C     C_R   0.946748 0.679438 0.318420 0.755992
O17   O     O_3   0.441370 0.714400 0.250000 -0.375114
O18   O     O_3   0.558630 0.285600 0.750000 -0.375113
O19   O     O_3   0.941370 0.785600 0.250000 -0.375112
O20   O     O_3   0.058630 0.214400 0.750000 -0.375112
V1    V     V_3+5 0.166530 0.756600 0.250000 1.510412
V2    V     V_3+5 0.833470 0.243400 0.750000 1.510412
V3    V     V_3+5 0.666530 0.743400 0.250000 1.510413
V4    V     V_3+5 0.333470 0.256600 0.750000 1.510413
C9    C     C_R   0.173319 0.440430 0.587079 -0.175376
C10   C     C_R   0.873465 0.546438 0.397017 -0.208094
C11   C     C_R   0.826681 0.559570 0.087079 -0.175376
C12   C     C_R   0.126539 0.453561 0.897018 -0.208094
C13   C     C_R   0.673319 0.059570 0.912921 -0.175374
C14   C     C_R   0.373452 0.953560 0.102981 -0.208095
C15   C     C_R   0.326682 0.940430 0.412922 -0.175374
C16   C     C_R   0.626546 0.046439 0.602982 -0.208094
H1    H     H_    0.283901 0.468919 0.577761 0.133391
H2    H     H_    0.803108 0.506458 0.393665 0.124057
H3    H     H_    0.716099 0.531080 0.077762 0.133391
H4    H     H_    0.196900 0.493541 0.893666 0.124057
H5    H     H_    0.783900 0.031081 0.922239 0.133390
H6    H     H_    0.303084 0.993539 0.106332 0.124058
H7    H     H_    0.216101 0.968919 0.422240 0.133391
H8    H     H_    0.696912 0.006460 0.606333 0.124057
C17   C     C_R   0.192099 0.401002 0.627245 0.221615
C18   C     C_R   0.866320 0.585164 0.356464 0.230175
C19   C     C_R   0.807901 0.598998 0.127246 0.221614
C20   C     C_R   0.133684 0.414835 0.856465 0.230174
C21   C     C_R   0.692100 0.098998 0.872755 0.221615
C22   C     C_R   0.366306 0.914834 0.143534 0.230176
C23   C     C_R   0.307900 0.901001 0.372755 0.221616
C24   C     C_R   0.633691 0.085165 0.643535 0.230176
C25   C     C_R   0.045785 0.362556 0.637698 -0.228813
C26   C     C_R   0.957326 0.637547 0.360577 -0.152219
C27   C     C_R   0.954215 0.637444 0.137699 -0.228813
C28   C     C_R   0.042674 0.362453 0.860578 -0.152221
C29   C     C_R   0.545786 0.137444 0.862302 -0.228815
C30   C     C_R   0.457325 0.862453 0.139422 -0.152225
C31   C     C_R   0.454214 0.862555 0.362302 -0.228814
C32   C     C_R   0.542674 0.137546 0.639422 -0.152226
C33   C     C_R   0.890227 0.363585 0.604905 0.385111
C34   C     C_R   0.058133 0.650255 0.405317 0.341923
C35   C     C_R   0.109773 0.636415 0.104906 0.385110
C36   C     C_R   0.941864 0.349745 0.905316 0.341925
C37   C     C_R   0.390228 0.136416 0.895095 0.385111
C38   C     C_R   0.558142 0.849746 0.094684 0.341928
C39   C     C_R   0.609771 0.863583 0.395095 0.385111
C40   C     C_R   0.441860 0.150254 0.594684 0.341928
C41   C     C_R   0.872708 0.405273 0.567302 -0.227750
C42   C     C_R   0.070547 0.608986 0.444449 -0.249744
C43   C     C_R   0.127293 0.594727 0.067303 -0.227749
C44   C     C_R   0.929449 0.391015 0.944449 -0.249744
C45   C     C_R   0.372708 0.094728 0.932698 -0.227752
C46   C     C_R   0.570558 0.891016 0.055552 -0.249743
C47   C     C_R   0.627292 0.905271 0.432698 -0.227752
C48   C     C_R   0.429445 0.108984 0.555552 -0.249744
H9    H     H_    0.750232 0.406387 0.543955 0.136315
H10   H     H_    0.153054 0.616077 0.478134 0.113706
H11   H     H_    0.249768 0.593612 0.043955 0.136315
H12   H     H_    0.846939 0.383923 0.978134 0.113706
H13   H     H_    0.250233 0.093614 0.956046 0.136315
H14   H     H_    0.653073 0.883926 0.021868 0.113708
H15   H     H_    0.749767 0.906385 0.456046 0.136315
H16   H     H_    0.346931 0.116075 0.521868 0.113707
C49   C     C_R   0.014009 0.443147 0.557791 0.008984
C50   C     C_R   0.976143 0.557996 0.440761 0.044282
C51   C     C_R   0.985991 0.556852 0.057791 0.008984
C52   C     C_R   0.023856 0.442004 0.940762 0.044281
C53   C     C_R   0.514009 0.056853 0.942209 0.008984
C54   C     C_R   0.476142 0.942004 0.059238 0.044280
C55   C     C_R   0.485992 0.943146 0.442210 0.008983
C56   C     C_R   0.523858 0.057995 0.559239 0.044281
C57   C     C_1   0.998829 0.483472 0.516427 -0.029426
C58   C     C_1   0.987603 0.517201 0.481852 -0.019547
C59   C     C_1   0.001171 0.516528 0.016427 -0.029426
C60   C     C_1   0.012397 0.482798 0.981853 -0.019547
C61   C     C_1   0.498828 0.016528 0.983573 -0.029427
C62   C     C_1   0.487602 0.982799 0.018148 -0.019547
C63   C     C_1   0.501173 0.983471 0.483574 -0.029427
C64   C     C_1   0.512399 0.017201 0.518148 -0.019547
N1    N     N_2   0.360121 0.397589 0.655167 -0.484608
H17   H     H_    0.433735 0.361582 0.647517 0.300382
C65   C     C_3   0.475166 0.447001 0.659523 -0.534313
H18   H     H_    0.551834 0.453995 0.623483 0.190020
H19   H     H_    0.575984 0.440438 0.690671 0.205092
H20   H     H_    0.392003 0.484752 0.668804 0.186056
N2    N     N_2   0.773636 0.570157 0.310683 -0.500537
H21   H     H_    0.663735 0.543605 0.316341 0.253705
C66   C     C_3   0.894204 0.549966 0.270863 -0.531013
H22   H     H_    0.964380 0.510811 0.283334 0.181689
H23   H     H_    0.998141 0.582250 0.260922 0.183086
H24   H     H_    0.813485 0.540585 0.236144 0.215014
N3    N     N_2   0.639880 0.602410 0.155167 -0.484608
H25   H     H_    0.566265 0.638417 0.147518 0.300382
C67   C     C_3   0.524836 0.552998 0.159524 -0.534311
H26   H     H_    0.448167 0.546003 0.123485 0.190019
H27   H     H_    0.424019 0.559561 0.190672 0.205091
H28   H     H_    0.608000 0.515247 0.168806 0.186057
N4    N     N_2   0.226374 0.429842 0.810685 -0.500535
H29   H     H_    0.336278 0.456393 0.816344 0.253704
C68   C     C_3   0.105813 0.450034 0.770864 -0.531009
H30   H     H_    0.035637 0.489189 0.783335 0.181688
H31   H     H_    0.001874 0.417751 0.760922 0.183085
H32   H     H_    0.186536 0.459415 0.736146 0.215014
N5    N     N_2   0.860123 0.102411 0.844834 -0.484609
H33   H     H_    0.933733 0.138420 0.852483 0.300382
C69   C     C_3   0.975174 0.053000 0.840480 -0.534314
H34   H     H_    0.051838 0.046007 0.876520 0.190021
H35   H     H_    0.075994 0.059564 0.809332 0.205091
H36   H     H_    0.892015 0.015248 0.831198 0.186055
N6    N     N_2   0.273607 0.929839 0.189313 -0.500533
H37   H     H_    0.163697 0.956388 0.183652 0.253704
C70   C     C_3   0.394159 0.950035 0.229134 -0.531007
H38   H     H_    0.464325 0.989192 0.216664 0.181687
H39   H     H_    0.498105 0.917753 0.239078 0.183084
H40   H     H_    0.313428 0.959414 0.263852 0.215018
N7    N     N_2   0.139877 0.897589 0.344834 -0.484610
H41   H     H_    0.066267 0.861580 0.352483 0.300382
C71   C     C_3   0.024827 0.947000 0.340480 -0.534319
H42   H     H_    0.948163 0.953993 0.376521 0.190022
H43   H     H_    0.924007 0.940437 0.309333 0.205092
H44   H     H_    0.107986 0.984752 0.331199 0.186056
N8    N     N_2   0.726386 0.070159 0.689315 -0.500531
H45   H     H_    0.836294 0.043609 0.683655 0.253702
C72   C     C_3   0.605827 0.049965 0.729136 -0.530998
H46   H     H_    0.535656 0.010809 0.716666 0.181684
H47   H     H_    0.501884 0.082248 0.739079 0.183082
H48   H     H_    0.686554 0.040585 0.763854 0.215014
O21   O     O_3   0.751074 0.324324 0.608933 -0.578506
C73   C     C_3   0.800858 0.274026 0.583278 0.088058
H49   H     H_    0.697422 0.242046 0.593687 0.156136
H50   H     H_    0.933571 0.256889 0.596949 0.108162
C74   C     C_3   0.799377 0.280999 0.524779 -0.352474
H51   H     H_    0.673873 0.303431 0.513378 0.204807
H52   H     H_    0.914004 0.308136 0.512438 0.196764
C75   C     C_3   0.809960 0.224842 0.496179 -0.824942
H53   H     H_    0.723656 0.226836 0.461331 0.221759
H54   H     H_    0.763019 0.188991 0.519994 0.227512
H55   H     H_    0.951457 0.216335 0.483499 0.223486
O22   O     O_3   0.144862 0.702654 0.407996 -0.573705
C76   C     C_3   0.168895 0.722042 0.458591 0.050048
H56   H     H_    0.292255 0.702036 0.474977 0.129468
H57   H     H_    0.049245 0.712164 0.483032 0.137604
C77   C     C_3   0.194651 0.785823 0.458617 -0.277089
H58   H     H_    0.320283 0.796517 0.437676 0.184143
H59   H     H_    0.080427 0.806447 0.438061 0.217753
C78   C     C_3   0.208223 0.809355 0.512818 -0.869706
H60   H     H_    0.081096 0.801121 0.534672 0.228839
H61   H     H_    0.231333 0.855494 0.511124 0.241033
H62   H     H_    0.323231 0.789610 0.533809 0.234041
O23   O     O_3   0.248927 0.675675 0.108934 -0.578507
C79   C     C_3   0.199144 0.725973 0.083278 0.088057
H63   H     H_    0.302580 0.757953 0.093687 0.156136
H64   H     H_    0.066430 0.743110 0.096949 0.108162
C80   C     C_3   0.200624 0.719000 0.024780 -0.352474
H65   H     H_    0.326128 0.696568 0.013378 0.204807
H66   H     H_    0.085997 0.691864 0.012438 0.196764
C81   C     C_3   0.190042 0.775157 0.996180 -0.824942
H67   H     H_    0.276348 0.773164 0.961332 0.221759
H68   H     H_    0.236980 0.811009 0.019995 0.227512
H69   H     H_    0.048545 0.783664 0.983499 0.223486
O24   O     O_3   0.855132 0.297346 0.907996 -0.573704
C82   C     C_3   0.831101 0.277959 0.958591 0.050047
H70   H     H_    0.707741 0.297964 0.974977 0.129468
H71   H     H_    0.950751 0.287836 0.983032 0.137604
C83   C     C_3   0.805346 0.214177 0.958616 -0.277090
H72   H     H_    0.679714 0.203483 0.937675 0.184143
H73   H     H_    0.919570 0.193554 0.938060 0.217753
C84   C     C_3   0.791775 0.190645 0.012817 -0.869705
H74   H     H_    0.918902 0.198879 0.034671 0.228839
H75   H     H_    0.768665 0.144505 0.011123 0.241033
H76   H     H_    0.676766 0.210389 0.033808 0.234041
O25   O     O_3   0.251077 0.175677 0.891067 -0.578506
C85   C     C_3   0.300864 0.225975 0.916722 0.088061
H77   H     H_    0.197430 0.257955 0.906314 0.156138
H78   H     H_    0.433578 0.243111 0.903052 0.108160
C86   C     C_3   0.299382 0.219002 0.975221 -0.352474
H79   H     H_    0.173877 0.196570 0.986623 0.204807
H80   H     H_    0.414008 0.191865 0.987563 0.196764
C87   C     C_3   0.309966 0.275159 0.003821 -0.824944
H81   H     H_    0.451463 0.283666 0.016501 0.223487
H82   H     H_    0.223664 0.273164 0.038670 0.221760
H83   H     H_    0.263022 0.311010 0.980007 0.227513
O26   O     O_3   0.644879 0.797348 0.092005 -0.573703
C88   C     C_3   0.668907 0.777960 0.041410 0.050047
H84   H     H_    0.792267 0.797965 0.025024 0.129469
H85   H     H_    0.549256 0.787838 0.016969 0.137602
C89   C     C_3   0.694659 0.714179 0.041385 -0.277089
H86   H     H_    0.820292 0.703484 0.062325 0.184142
H87   H     H_    0.580435 0.693556 0.061942 0.217751
C90   C     C_3   0.708229 0.690646 0.987185 -0.869704
H88   H     H_    0.581103 0.698882 0.965330 0.228839
H89   H     H_    0.731333 0.644506 0.988878 0.241032
H90   H     H_    0.823240 0.710389 0.966193 0.234040
O27   O     O_3   0.748922 0.824322 0.391068 -0.578506
C91   C     C_3   0.699133 0.774024 0.416723 0.088062
H91   H     H_    0.802565 0.742043 0.406314 0.156139
H92   H     H_    0.566417 0.756889 0.403052 0.108158
C92   C     C_3   0.700615 0.780997 0.475222 -0.352473
H93   H     H_    0.826121 0.803429 0.486623 0.204807
H94   H     H_    0.585989 0.808135 0.487564 0.196764
C93   C     C_3   0.690030 0.724840 0.503822 -0.824947
H95   H     H_    0.548532 0.716333 0.516501 0.223487
H96   H     H_    0.776331 0.726834 0.538670 0.221760
H97   H     H_    0.736974 0.688989 0.480007 0.227513
O28   O     O_3   0.355124 0.202652 0.592005 -0.573703
C94   C     C_3   0.331095 0.222040 0.541409 0.050045
H98   H     H_    0.207735 0.202034 0.525023 0.129469
H99   H     H_    0.450746 0.212162 0.516969 0.137603
C95   C     C_3   0.305342 0.285821 0.541385 -0.277088
H100  H     H_    0.179709 0.296515 0.562325 0.184142
H101  H     H_    0.419565 0.306444 0.561941 0.217751
C96   C     C_3   0.291771 0.309354 0.487184 -0.869703
H102  H     H_    0.418898 0.301119 0.465329 0.228839
H103  H     H_    0.268666 0.355493 0.488878 0.241032
H104  H     H_    0.176761 0.289610 0.466193 0.234040

loop_
_geom_bond_atom_site_label_1
_geom_bond_atom_site_label_2
_ccdc_geom_bond_type
O17   V3    S    
C71   H44   S    
C78   H60   S    
O18   V4    S    
C76   H56   S    
C23   N7    S    
O12   V1    S    
O19   V1    S    
C86   H80   S    
C86   H79   S    
O16   C8    A    
C37   C45   A    
N2    H21   S    
C10   H2    S    
N8    H45   S    
C69   H36   S    
C2    C32   S    
C44   H12   S    
C39   C47   A    
C57   C58   T    
C87   H82   S    
C92   C93   S    
C17   C25   A    
N6    H37   S    
O16   V3    S    
N5    C69   S    
C78   H61   S    
O11   C3    A    
C74   H51   S    
C40   O28   S    
O8    V1    S    
O22   C76   S    
N8    C72   S    
O10   C2    A    
C66   H22   S    
N3    C67   S    
C6    C28   S    
C3    C29   S    
C20   N4    S    
N4    C68   S    
C38   C46   A    
C22   N6    S    
C9    C17   A    
C71   H42   S    
C34   C42   A    
C71   H43   S    
O1    V3    S    
C88   C89   S    
C39   O27   S    
C30   C38   A    
O3    C2    A    
O2    V4    S    
C81   H67   S    
C82   C83   S    
C33   O21   S    
C20   C28   A    
C83   C84   S    
C27   C35   A    
C21   C29   A    
C26   C34   A    
C79   C80   S    
C15   C23   A    
C92   H93   S    
O11   V2    S    
C35   O23   S    
O26   C88   S    
C16   C24   A    
C23   C31   A    
C68   H32   S    
C65   H18   S    
C89   C90   S    
C95   C96   S    
C85   H77   S    
C48   C56   A    
C11   H3    S    
C73   H50   S    
C12   C20   A    
O9    V1    S    
O4    V3    S    
C80   C81   S    
C13   C21   A    
O15   C7    A    
C46   H14   S    
C77   H59   S    
C70   H38   S    
C45   H13   S    
C76   H57   S    
O7    V2    S    
N6    C70   S    
C96   H102  S    
C37   O25   S    
C65   H19   S    
C72   H47   S    
O12   C4    A    
O28   C94   S    
C95   H101  S    
C16   C56   A    
C13   C53   A    
C41   H9    S    
C91   H91   S    
C78   H62   S    
C55   C63   S    
O8    C5    A    
O5    V1    S    
C77   C78   S    
C70   H40   S    
C10   C18   A    
C82   H71   S    
O13   C5    A    
C18   C26   A    
C61   C62   T    
N4    H29   S    
C73   C74   S    
C94   H99   S    
C33   C41   A    
C53   C61   S    
O27   C91   S    
C17   N1    S    
C22   C30   A    
C84   H75   S    
C40   C48   A    
C49   C57   S    
C81   H69   S    
C75   H54   S    
C74   H52   S    
C90   H88   S    
C75   H55   S    
C83   H72   S    
C47   C55   A    
C9    C49   A    
N1    C65   S    
O10   V2    S    
C10   C50   A    
C14   C22   A    
C87   H83   S    
C84   H76   S    
C25   C33   A    
C14   C54   A    
C85   C86   S    
C24   C32   A    
C88   H84   S    
C35   C43   A    
C34   O22   S    
N2    C66   S    
C36   C44   A    
C87   H81   S    
C70   H39   S    
C15   C55   A    
C73   H49   S    
C47   H15   S    
C67   H27   S    
C44   C52   A    
C7    C25   S    
O4    C1    A    
C72   H48   S    
O9    C1    A    
C77   H58   S    
O6    V2    S    
C89   H87   S    
C93   H95   S    
C76   C77   S    
C93   H96   S    
C96   H103  S    
C11   C19   A    
O14   C6    A    
C86   C87   S    
C90   H90   S    
C21   N5    S    
C95   H100  S    
C13   H5    S    
C69   H34   S    
O7    C6    A    
C63   C64   T    
C52   C60   S    
C15   H7    S    
N5    H33   S    
C42   H10   S    
C67   H28   S    
C29   C37   A    
C16   H8    S    
C56   C64   S    
C79   H63   S    
O1    C4    A    
C83   H73   S    
O2    C3    A    
O13   V3    S    
O14   V4    S    
C69   H35   S    
O15   V4    S    
C67   H26   S    
C92   H94   S    
C66   H24   S    
C5    C27   S    
C43   C51   A    
C74   C75   S    
C93   H97   S    
N1    H17   S    
N3    H25   S    
C59   C60   T    
C91   H92   S    
C65   H20   S    
C9    H1    S    
C75   H53   S    
C42   C50   A    
C24   N8    S    
N7    C71   S    
O21   C73   S    
C41   C49   A    
C82   H70   S    
C48   H16   S    
O23   C79   S    
C51   C59   S    
C72   H46   S    
C1    C31   S    
C43   H11   S    
C68   H30   S    
O5    C8    A    
C46   C54   A    
O6    C7    A    
C45   C53   A    
C18   N2    S    
C19   N3    S    
O20   V2    S    
C94   C95   S    
O25   C85   S    
C32   C40   A    
C4    C30   S    
O3    V4    S    
C81   H68   S    
C14   H6    S    
C90   H89   S    
C12   H4    S    
C12   C52   A    
C36   O24   S    
C80   H65   S    
C19   C27   A    
C89   H86   S    
C28   C36   A    
C8    C26   S    
C84   H74   S    
C96   H104  S    
C94   H98   S    
C68   H31   S    
C88   H85   S    
C85   H78   S    
C80   H66   S    
O24   C82   S    
N7    H41   S    
C38   O26   S    
C31   C39   A    
C50   C58   S    
C91   C92   S    
C54   C62   S    
C79   H64   S    
C66   H23   S    
C11   C51   A    
