data_mof_unit_1435.cif
_audit_creation_date              2012-12-10T20:27:15-0500
_audit_creation_method            fapswitch 2.2
_symmetry_space_group_name_H-M    P1
_symmetry_Int_Tables_number       1
_space_group_crystal_system       triclinic
_cell_length_a                    10.517359
_cell_length_b                    10.652731
_cell_length_c                    9.964759
_cell_angle_alpha                 89.294728
_cell_angle_beta                  103.15952
_cell_angle_gamma                 93.311713
_cell_volume                      1085.30408198

loop_
_atom_site_label
_atom_site_type_symbol
_atom_type_description
_atom_site_fract_x
_atom_site_fract_y
_atom_site_fract_z
_atom_type_partial_charge
C1    C     C_R   0.497450 0.260686 0.499681 0.859105
C2    C     C_R   0.543537 0.604564 0.077121 0.476209
C3    C     C_R   0.535503 0.604652 0.932954 -0.079634
C4    C     C_R   0.257545 0.499015 0.442816 0.836623
C5    C     C_R   0.483661 0.390305 0.926703 0.124121
C6    C     C_3   0.376911 0.290108 0.891544 -0.485559
C7    C     C_3   0.369726 0.290222 0.043252 0.275625
C8    C     C_R   0.500665 0.739552 0.499751 0.903145
C9    C     C_R   0.742677 0.495110 0.556930 0.822372
C10   C     C_2   0.116093 0.489758 0.412141 0.309981
C11   C     C_2   0.059462 0.404723 0.483859 -0.236580
C12   C     C_R   0.499147 0.129134 0.497718 -0.069085
C13   C     C_2   0.882092 0.472318 0.584556 0.289896
C14   C     C_2   0.922744 0.407816 0.487894 -0.206822
C15   C     C_R   0.600256 0.070680 0.584883 0.038948
C16   C     C_R   0.409311 0.060682 0.395840 -0.192819
C17   C     C_R   0.409613 0.930884 0.396812 -0.065717
C18   C     C_R   0.501350 0.871855 0.497996 -0.124727
C19   C     C_R   0.600974 0.942314 0.586208 -0.020540
C20   C     C_3   0.648881 0.940516 0.739730 0.250247
C21   C     C_3   0.650705 0.083108 0.736525 -0.467542
C22   C     C_R   0.478818 0.390868 0.066192 0.016735
H1    H     H_    0.853102 0.367202 0.399276 0.179819
H2    H     H_    0.400246 0.200992 0.096728 0.108282
H3    H     H_    0.974652 0.576090 0.941037 0.433622
H4    H     H_    0.070279 0.738942 0.153082 0.407339
H5    H     H_    0.335859 0.876768 0.322907 0.203150
H6    H     H_    0.576680 0.896593 0.794468 0.121036
H7    H     H_    0.857706 0.865032 0.592822 0.364841
H8    H     H_    0.579306 0.121294 0.789226 0.182461
H9    H     H_    0.749679 0.131675 0.762557 0.255753
H10   H     H_    0.561291 0.688733 0.881566 0.187613
H11   H     H_    0.411693 0.200957 0.860948 0.168359
H12   H     H_    0.117832 0.338178 0.551456 0.175750
H13   H     H_    0.335782 0.106642 0.320825 0.206213
H14   H     H_    0.743404 0.803753 0.355061 0.369789
H15   H     H_    0.290384 0.323052 0.816909 0.266958
H16   H     H_    0.096148 0.285124 0.211068 0.385708
N1    N     N_R   0.499160 0.499140 0.142600 -0.137673
N2    N     N_R   0.499160 0.499180 0.856960 -0.109560
O1    O     O_R   0.500020 0.316790 0.614700 -0.628293
O2    O     O_2   0.515403 0.831574 0.172354 -0.330932
O3    O     O_3   0.717094 0.718913 0.315221 -0.471433
O4    O     O_2   0.207315 0.475928 0.056856 -0.204172
O5    O     O_2   0.107572 0.275402 0.953977 -0.228145
O6    O     O_3   0.191616 0.284134 0.218496 -0.603362
O7    O     O_2   0.119665 0.479927 0.761962 -0.270929
O8    O     O_2   0.012760 0.676895 0.708281 -0.215950
O9    O     O_3   0.922892 0.518003 0.869695 -0.453016
O10   O     O_2   0.909387 0.542594 0.210003 -0.258639
O11   O     O_2   0.989157 0.700307 0.391746 -0.260097
O12   O     O_R   0.500000 0.316760 0.385350 -0.618969
O13   O     O_3   0.124904 0.675267 0.207871 -0.523764
O14   O     O_2   0.878103 0.939088 0.926987 -0.183523
O15   O     O_2   0.794712 0.742598 0.805556 -0.255068
O16   O     O_3   0.895969 0.920267 0.672716 -0.479244
O17   O     O_R   0.317820 0.500020 0.571850 -0.607212
O18   O     O_R   0.317800 0.499980 0.342510 -0.508020
O19   O     O_R   0.500000 0.683240 0.614650 -0.625416
O20   O     O_R   0.499980 0.683210 0.385300 -0.531444
O21   O     O_R   0.682200 0.500020 0.657490 -0.542155
O22   O     O_R   0.682180 0.499980 0.428150 -0.580542
O23   O     O_2   0.703671 0.808988 0.073836 -0.256534
S1    S     S_3+6 0.619651 0.744704 0.160336 0.078992
S2    S     S_3+6 0.214077 0.335534 0.065142 0.093161
S3    S     S_3+6 0.990264 0.538929 0.732743 0.122781
S4    S     S_3+6 0.029124 0.603707 0.303194 0.081024
S5    S     S_3+6 0.808415 0.882650 0.790751 0.100201
Zn1   Zn    Zn3+2 0.500010 0.500020 0.653140 1.033399
Zn2   Zn    Zn3+2 0.499990 0.499980 0.346860 1.103862

loop_
_geom_bond_atom_site_label_1
_geom_bond_atom_site_label_2
_ccdc_geom_bond_type
C4    O17   A    
C3    N2    A    
O16   S5    S    
C6    H11   S    
C6    C7    S    
H7    O16   S    
C14   H1    S    
C7    S2    S    
C7    C22   S    
C20   H6    S    
O10   S4    D    
O7    S3    D    
C19   C20   S    
C12   C15   A    
O20   Zn2   S    
C10   C11   D    
O21   Zn1   S    
C2    C3    A    
C6    H15   S    
C8    O19   A    
O17   Zn1   S    
O11   S4    D    
C10   S4    S    
C8    O20   A    
C15   C19   A    
C21   H9    S    
O4    S2    D    
C5    C6    S    
C1    C12   S    
O19   Zn1   S    
C9    O21   A    
C22   N1    A    
C1    O1    A    
C11   C14   S    
N1    Zn2   S    
C2    S1    S    
O3    S1    S    
C17   C18   A    
C13   S3    S    
C16   H13   S    
O5    S2    D    
C3    H10   S    
O13   S4    S    
C1    O12   A    
H3    O9    S    
H16   O6    S    
O14   S5    D    
N2    Zn1   S    
O23   S1    D    
C4    C10   S    
C7    H2    S    
C17   H5    S    
H4    O13   S    
O2    S1    D    
C15   C21   S    
O12   Zn2   S    
C20   C21   S    
O22   Zn2   S    
O6    S2    S    
O1    Zn1   S    
C18   C19   A    
C21   H8    S    
C5    N2    A    
C4    O18   A    
C9    C13   S    
O18   Zn2   S    
H14   O3    S    
O9    S3    S    
C12   C16   A    
O8    S3    D    
C13   C14   D    
C2    N1    A    
C20   S5    S    
C11   H12   S    
C8    C18   S    
C5    C22   A    
C9    O22   A    
C16   C17   A    
O15   S5    D    
