data_mof_unit_2205.cif
_audit_creation_date              2012-12-11T14:10:57-0500
_audit_creation_method            fapswitch 2.2
_symmetry_space_group_name_H-M    P1
_symmetry_Int_Tables_number       1
_space_group_crystal_system       triclinic
_cell_length_a                    20.029368
_cell_length_b                    17.300871
_cell_length_c                    15.866814
_cell_angle_alpha                 90.167472
_cell_angle_beta                  53.345707
_cell_angle_gamma                 90.254558
_cell_volume                      4410.94371669

loop_
_atom_site_label
_atom_site_type_symbol
_atom_type_description
_atom_site_fract_x
_atom_site_fract_y
_atom_site_fract_z
_atom_type_partial_charge
C1    C     C_R   0.335449 0.165201 0.059100 -0.210169
C2    C     C_3   0.728433 0.757263 0.430501 0.028614
C3    C     C_3   0.006859 0.803239 0.879880 -0.675262
C4    C     C_3   0.107538 0.226851 0.833837 -0.396693
C5    C     C_3   0.088996 0.155030 0.796941 -0.709341
C6    C     C_3   0.909566 0.779335 0.171778 -0.450152
C7    C     C_3   0.000699 0.798934 0.112208 -0.677555
C8    C     C_3   0.593607 0.672540 0.582427 -0.275896
C9    C     C_3   0.515909 0.722318 0.650952 -0.846696
C10   C     C_3   0.405842 0.330861 0.403640 -0.290737
C11   C     C_3   0.482469 0.284573 0.371299 -0.797210
C12   C     C_3   0.393567 0.650933 0.406355 -0.231831
C13   C     C_3   0.722214 0.258331 0.440047 -0.002866
C14   C     C_3   0.476777 0.694530 0.342053 -0.841282
C15   C     C_3   0.603915 0.347542 0.603722 -0.228090
C16   C     C_3   0.523818 0.307728 0.634759 -0.875353
C17   C     C_3   0.093668 0.172504 0.582399 -0.275934
C18   C     C_3   0.015952 0.222258 0.650953 -0.846627
C19   C     C_3   0.905833 0.830786 0.403675 -0.290795
C20   C     C_3   0.982445 0.784475 0.371333 -0.797218
C21   C     C_3   0.893594 0.150926 0.406351 -0.231821
C22   C     C_3   0.976801 0.194527 0.342057 -0.841257
C23   C     C_3   0.103898 0.847565 0.603751 -0.228062
C24   C     C_3   0.274690 0.740206 0.558565 0.050829
C25   C     C_3   0.023810 0.807775 0.634717 -0.875142
C26   C     C_3   0.308972 0.220720 0.619549 -0.169903
C27   C     C_3   0.321801 0.290229 0.668209 -0.905131
C28   C     C_3   0.707124 0.762998 0.351572 -0.360445
C29   C     C_3   0.620379 0.792646 0.397075 -0.621832
C30   C     C_3   0.685420 0.263139 0.378208 -0.174770
C31   C     C_3   0.686183 0.344543 0.340168 -0.930016
C32   C     C_3   0.298941 0.731918 0.634154 -0.327228
C33   C     C_3   0.384709 0.762813 0.591628 -0.726950
C34   C     C_3   0.808921 0.720634 0.619574 -0.169834
C35   C     C_3   0.772891 0.741793 0.560054 0.018214
C36   C     C_3   0.821777 0.790121 0.668237 -0.905118
C37   C     C_3   0.207127 0.262951 0.351572 -0.360531
C38   C     C_3   0.120390 0.292635 0.397089 -0.621735
C39   C     C_3   0.185378 0.763178 0.378241 -0.174832
C40   C     C_3   0.186166 0.844582 0.340183 -0.930039
C41   C     C_3   0.798951 0.231921 0.634162 -0.327208
C42   C     C_3   0.884726 0.262797 0.591641 -0.726932
C43   C     C_3   0.228460 0.257254 0.430482 0.028630
C44   C     C_3   0.222187 0.758354 0.440061 -0.002793
C45   C     C_3   0.774712 0.240203 0.558559 0.050816
C46   C     C_2   0.283680 0.689658 0.944560 0.334859
C47   C     C_2   0.782069 0.267899 0.942059 0.334863
C48   C     C_2   0.719933 0.692937 0.048589 0.335618
C49   C     C_R   0.633398 0.806731 0.996185 -0.222759
C50   C     C_2   0.225654 0.271067 0.045506 0.326232
C51   C     C_2   0.783689 0.189651 0.944545 0.334878
C52   C     C_2   0.282064 0.767906 0.942064 0.334854
C53   C     C_2   0.219930 0.192931 0.048596 0.335609
C54   C     C_2   0.725656 0.771073 0.045504 0.326204
C55   C     C_R   0.390091 0.802640 0.210668 0.142203
C56   C     C_R   0.607271 0.195475 0.784514 0.119138
C57   C     C_R   0.610888 0.803618 0.786894 0.118721
C58   C     C_R   0.390919 0.197041 0.212388 0.106070
C59   C     C_R   0.890099 0.302636 0.210661 0.142241
C60   C     C_R   0.665886 0.162535 0.937946 -0.197921
C61   C     C_R   0.107270 0.695474 0.784514 0.119123
C62   C     C_R   0.110892 0.303620 0.786886 0.118706
C63   C     C_R   0.890894 0.697031 0.212403 0.106047
C64   C     C_R   0.363906 0.889421 0.900465 0.570152
C65   C     C_R   0.666586 0.093124 0.054369 0.558257
C66   C     C_R   0.642056 0.891837 0.091911 0.565817
C67   C     C_R   0.333263 0.092509 0.945938 0.531300
C68   C     C_R   0.863906 0.389419 0.900465 0.570160
C69   C     C_R   0.166579 0.593130 0.054380 0.558252
C70   C     C_R   0.142060 0.391837 0.091907 0.565830
C71   C     C_R   0.372237 0.804455 0.995443 -0.240238
C72   C     C_R   0.833264 0.592511 0.945936 0.531297
C73   C     C_R   0.400143 0.106578 0.305146 0.543611
C74   C     C_R   0.601784 0.894427 0.693723 0.547734
C75   C     C_R   0.624305 0.092838 0.685823 0.597083
C76   C     C_R   0.401429 0.891556 0.304196 0.491385
C77   C     C_R   0.900101 0.606558 0.305168 0.543575
C78   C     C_R   0.101783 0.394428 0.693722 0.547702
C79   C     C_R   0.124294 0.592842 0.685823 0.597046
C80   C     C_R   0.901445 0.391546 0.304186 0.491451
C81   C     C_R   0.288810 0.146442 0.025600 -0.041823
C82   C     C_R   0.835452 0.665205 0.059096 -0.210171
C83   C     C_R   0.665922 0.819541 0.049341 -0.054045
C84   C     C_R   0.712513 0.144480 0.971399 -0.051777
C85   C     C_R   0.342396 0.816049 0.939010 -0.064585
C86   C     C_R   0.788812 0.646446 0.025595 -0.041847
C87   C     C_R   0.165915 0.319537 0.049349 -0.054056
C88   C     C_R   0.212505 0.644489 0.971413 -0.051758
C89   C     C_R   0.842400 0.316045 0.939006 -0.064559
C90   C     C_R   0.372126 0.818684 0.308259 -0.056983
C91   C     C_R   0.634567 0.171583 0.684963 -0.084901
C92   C     C_R   0.631726 0.821503 0.687882 -0.062151
C93   C     C_R   0.133384 0.306725 0.996204 -0.222804
C94   C     C_R   0.371523 0.178844 0.308448 -0.071059
C95   C     C_R   0.872147 0.318672 0.308246 -0.056975
C96   C     C_R   0.134552 0.671587 0.684966 -0.084863
C97   C     C_R   0.131731 0.321507 0.687873 -0.062125
C98   C     C_R   0.871466 0.678817 0.308474 -0.071080
C99   C     C_3   0.254298 0.175546 0.511253 0.345678
C100  C     C_3   0.746393 0.824376 0.478483 0.440604
C101  C     C_3   0.731026 0.179820 0.478614 0.400638
C102  C     C_3   0.265152 0.817902 0.520305 0.416140
C103  C     C_3   0.754233 0.675521 0.511275 0.345789
C104  C     C_R   0.165880 0.662543 0.937955 -0.197939
C105  C     C_3   0.246397 0.324392 0.478459 0.440610
C106  C     C_3   0.230997 0.679837 0.478620 0.400599
C107  C     C_3   0.765172 0.317894 0.520290 0.416111
C108  C     C_3   0.675454 0.716593 0.538441 0.070840
C109  C     C_3   0.325060 0.283153 0.452556 0.057439
C110  C     C_3   0.317672 0.703743 0.448510 0.059118
C111  C     C_3   0.679347 0.292751 0.550656 0.029427
C112  C     C_3   0.175500 0.216584 0.538424 0.070769
C113  C     C_3   0.825037 0.783104 0.452585 0.057428
C114  C     C_3   0.817698 0.203734 0.448507 0.059101
C115  C     C_R   0.872242 0.304452 0.995438 -0.240262
C116  C     C_3   0.179326 0.792767 0.550672 0.029381
C117  C     C_3   0.693310 0.782849 0.587697 -0.083319
C118  C     C_3   0.307183 0.217120 0.404919 -0.135193
C119  C     C_3   0.309073 0.781600 0.408896 -0.098063
C120  C     C_3   0.689262 0.215305 0.588470 -0.123613
C121  C     C_3   0.193332 0.282865 0.587676 -0.083344
C122  C     C_3   0.807137 0.717096 0.404943 -0.135193
C123  C     C_3   0.809097 0.281584 0.408883 -0.098073
C124  C     C_3   0.189238 0.715315 0.588477 -0.123676
C125  C     C_3   0.390459 0.728153 0.160977 -0.386674
C126  C     C_3   0.272932 0.241844 0.560027 0.018253
C127  C     C_3   0.398598 0.651047 0.197914 -0.701543
C128  C     C_3   0.596197 0.278196 0.821054 -0.450307
C129  C     C_3   0.506878 0.303259 0.879935 -0.675330
C130  C     C_3   0.607501 0.726843 0.833858 -0.396722
C131  C     C_3   0.588894 0.655049 0.796998 -0.709413
C132  C     C_3   0.409579 0.279342 0.171746 -0.450152
C133  C     C_3   0.500709 0.298957 0.112172 -0.677634
C134  C     C_3   0.890491 0.228147 0.160954 -0.386713
C135  C     C_3   0.898629 0.151046 0.197901 -0.701530
C136  C     C_3   0.096178 0.778192 0.821059 -0.450306
Cl1   Cl    Cl    0.374295 0.915926 0.786824 -0.466092
Cl2   Cl    Cl    0.572003 0.930777 0.617654 -0.480362
Cl3   Cl    Cl    0.716442 0.037776 0.613442 -0.643553
Cl4   Cl    Cl    0.451187 0.909766 0.362513 -0.473266
Cl5   Cl    Cl    0.947251 0.586643 0.366820 -0.443713
Cl6   Cl    Cl    0.071987 0.430775 0.617668 -0.480374
Cl7   Cl    Cl    0.216432 0.537782 0.613415 -0.643581
Cl8   Cl    Cl    0.951232 0.409735 0.362472 -0.473327
Cl9   Cl    Cl    0.251321 0.074946 0.535177 -0.572878
Cl10  Cl    Cl    0.757483 0.919815 0.430114 -0.487876
Cl11  Cl    Cl    0.697654 0.096667 0.444892 -0.448197
Cl12  Cl    Cl    0.671079 0.096988 0.161468 -0.463822
Cl13  Cl    Cl    0.274554 0.904791 0.572466 -0.466172
Cl14  Cl    Cl    0.751205 0.574916 0.535191 -0.573037
Cl15  Cl    Cl    0.257448 0.419823 0.430078 -0.487829
Cl16  Cl    Cl    0.197615 0.596691 0.444898 -0.448202
Cl17  Cl    Cl    0.774587 0.404790 0.572426 -0.466112
Cl18  Cl    Cl    0.369244 0.635319 0.915016 -0.680915
Cl19  Cl    Cl    0.695967 0.322023 0.970905 -0.671840
Cl20  Cl    Cl    0.630982 0.641356 0.082079 -0.683738
Cl21  Cl    Cl    0.314597 0.323458 0.010720 -0.682817
Cl22  Cl    Cl    0.869261 0.135319 0.914990 -0.680939
Cl23  Cl    Cl    0.647247 0.924218 0.192234 -0.447084
Cl24  Cl    Cl    0.195965 0.822032 0.970903 -0.671805
Cl25  Cl    Cl    0.130978 0.141346 0.082097 -0.683766
Cl26  Cl    Cl    0.814588 0.823469 0.010745 -0.682846
Cl27  Cl    Cl    0.322425 0.083494 0.844661 -0.493930
Cl28  Cl    Cl    0.874285 0.415927 0.786832 -0.466057
Cl29  Cl    Cl    0.171056 0.597005 0.161493 -0.463883
Cl30  Cl    Cl    0.147278 0.424228 0.192206 -0.447037
Cl31  Cl    Cl    0.822431 0.583499 0.844655 -0.493987
Cl32  Cl    Cl    0.447361 0.086688 0.366723 -0.443655
H1    H     H_    0.316854 0.203965 0.122111 0.162199
H2    H     H_    0.399628 0.604884 0.148324 0.285707
H3    H     H_    0.738879 0.379742 0.324274 0.264477
H4    H     H_    0.691137 0.340657 0.266736 0.270392
H5    H     H_    0.718307 0.222756 0.311735 0.222527
H6    H     H_    0.620853 0.240651 0.427329 0.219756
H7    H     H_    0.431135 0.716021 0.550447 0.216376
H8    H     H_    0.402424 0.813012 0.539122 0.330020
H9    H     H_    0.384082 0.782670 0.658564 0.280530
H10   H     H_    0.255241 0.765455 0.705898 0.222921
H11   H     H_    0.293947 0.670474 0.657381 0.205460
H12   H     H_    0.876212 0.824755 0.606981 0.259466
H13   H     H_    0.457581 0.646660 0.188253 0.283742
H14   H     H_    0.766680 0.828209 0.711045 0.272907
H15   H     H_    0.833788 0.769409 0.724223 0.281553
H16   H     H_    0.770126 0.676038 0.679083 0.229545
H17   H     H_    0.869316 0.691196 0.564907 0.246079
H18   H     H_    0.073576 0.246816 0.442039 0.201161
H19   H     H_    0.105852 0.344875 0.445611 0.330431
H20   H     H_    0.116972 0.307761 0.331977 0.276873
H21   H     H_    0.250190 0.303475 0.287972 0.243114
H22   H     H_    0.214421 0.205051 0.316647 0.176201
H23   H     H_    0.127424 0.875021 0.399649 0.256487
H24   H     H_    0.333510 0.725745 0.165723 0.216492
H25   H     H_    0.238917 0.879743 0.324187 0.264477
H26   H     H_    0.191041 0.840693 0.266807 0.270380
H27   H     H_    0.218243 0.722786 0.311774 0.222554
H28   H     H_    0.120799 0.740716 0.427392 0.219762
H29   H     H_    0.931145 0.216001 0.550445 0.216368
H30   H     H_    0.902445 0.313011 0.539156 0.330035
H31   H     H_    0.884106 0.282624 0.658582 0.280477
H32   H     H_    0.755257 0.265476 0.705891 0.222932
H33   H     H_    0.793938 0.170481 0.657412 0.205461
H34   H     H_    0.445692 0.731189 0.078460 0.197733
H35   H     H_    0.484286 0.294101 0.831848 0.276896
H36   H     H_    0.468549 0.268525 0.951891 0.268292
H37   H     H_    0.500909 0.365303 0.901441 0.283310
H38   H     H_    0.616247 0.287897 0.871210 0.237937
H39   H     H_    0.635500 0.317169 0.753789 0.236036
H40   H     H_    0.641204 0.642013 0.716217 0.272053
H41   H     H_    0.631911 0.751690 0.968622 0.190373
H42   H     H_    0.530860 0.661409 0.805321 0.289846
H43   H     H_    0.581234 0.605175 0.846050 0.285444
H44   H     H_    0.666292 0.717784 0.823267 0.221365
H45   H     H_    0.556168 0.730313 0.918311 0.200347
H46   H     H_    0.536081 0.264410 0.040073 0.266529
H47   H     H_    0.510897 0.361152 0.090555 0.284802
H48   H     H_    0.523126 0.286529 0.159844 0.268868
H49   H     H_    0.389499 0.292018 0.122189 0.235021
H50   H     H_    0.375994 0.320457 0.238059 0.232771
H51   H     H_    0.843807 0.140224 0.277890 0.275306
H52   H     H_    0.685887 0.198262 0.871906 0.160789
H53   H     H_    0.957606 0.146667 0.188256 0.283758
H54   H     H_    0.899671 0.104878 0.148305 0.285708
H55   H     H_    0.833550 0.225728 0.165684 0.216480
H56   H     H_    0.945727 0.231188 0.078439 0.197728
H57   H     H_    0.984277 0.793976 0.831793 0.276825
H58   H     H_    0.968529 0.768564 0.951897 0.268303
H59   H     H_    0.000883 0.865309 0.901282 0.283327
H60   H     H_    0.116193 0.787897 0.871251 0.237918
H61   H     H_    0.135500 0.817165 0.753801 0.236030
H62   H     H_    0.141294 0.142080 0.716119 0.272037
H63   H     H_    0.381625 0.748272 0.012311 0.195016
H64   H     H_    0.081474 0.105134 0.845901 0.285448
H65   H     H_    0.030905 0.161304 0.805365 0.289849
H66   H     H_    0.166330 0.217835 0.823262 0.221344
H67   H     H_    0.056186 0.230300 0.918285 0.200346
H68   H     H_    0.036058 0.764417 0.040080 0.266479
H69   H     H_    0.010895 0.861141 0.090649 0.284825
H70   H     H_    0.023126 0.786445 0.159858 0.268821
H71   H     H_    0.889488 0.792028 0.122222 0.235026
H72   H     H_    0.875988 0.820443 0.238097 0.232757
H73   H     H_    0.506223 0.741733 0.723714 0.273516
H74   H     H_    0.816862 0.703973 0.122100 0.162221
H75   H     H_    0.519788 0.774908 0.609116 0.290942
H76   H     H_    0.460631 0.687525 0.674461 0.265657
H77   H     H_    0.595962 0.648136 0.515997 0.189767
H78   H     H_    0.587327 0.621862 0.628968 0.229920
H79   H     H_    0.476070 0.259778 0.439871 0.262947
H80   H     H_    0.495463 0.238314 0.315294 0.291843
H81   H     H_    0.537266 0.323785 0.331079 0.247672
H82   H     H_    0.420753 0.361176 0.332881 0.221784
H83   H     H_    0.394522 0.376525 0.460016 0.218439
H84   H     H_    0.490682 0.718663 0.268856 0.288279
H85   H     H_    0.131866 0.251675 0.968681 0.190388
H86   H     H_    0.477033 0.744027 0.385526 0.272973
H87   H     H_    0.527792 0.654801 0.321730 0.270146
H88   H     H_    0.386924 0.622713 0.473691 0.216297
H89   H     H_    0.394864 0.602333 0.360086 0.226062
H90   H     H_    0.521050 0.304461 0.567283 0.251135
H91   H     H_    0.518104 0.248697 0.665652 0.282221
H92   H     H_    0.469351 0.342231 0.696543 0.268077
H93   H     H_    0.592859 0.374292 0.674273 0.217278
H94   H     H_    0.618507 0.396410 0.550111 0.211212
H95   H     H_    0.006250 0.241630 0.723742 0.273568
H96   H     H_    0.185875 0.698279 0.871924 0.160811
H97   H     H_    0.019824 0.274871 0.609155 0.290912
H98   H     H_    0.960687 0.187459 0.674417 0.265654
H99   H     H_    0.096026 0.148113 0.515961 0.189758
H100  H     H_    0.087408 0.121817 0.628915 0.229907
H101  H     H_    0.976032 0.759661 0.439901 0.263006
H102  H     H_    0.995433 0.738232 0.315318 0.291841
H103  H     H_    0.037251 0.823670 0.331126 0.247662
H104  H     H_    0.920757 0.861114 0.332918 0.221806
H105  H     H_    0.894524 0.876440 0.460057 0.218441
H106  H     H_    0.990706 0.218665 0.268862 0.288277
H107  H     H_    0.881643 0.248270 0.012292 0.195010
H108  H     H_    0.977053 0.244023 0.385537 0.272983
H109  H     H_    0.027818 0.154799 0.321732 0.270143
H110  H     H_    0.886948 0.122702 0.473688 0.216303
H111  H     H_    0.894895 0.102330 0.360073 0.226068
H112  H     H_    0.021010 0.804709 0.567238 0.251032
H113  H     H_    0.018158 0.748650 0.665388 0.282214
H114  H     H_    0.969321 0.842199 0.696677 0.268074
H115  H     H_    0.092823 0.874276 0.674334 0.217237
H116  H     H_    0.118512 0.896464 0.550170 0.211173
H117  H     H_    0.376221 0.324879 0.606952 0.259483
H118  H     H_    0.343782 0.640227 0.277905 0.275325
H119  H     H_    0.266686 0.328297 0.711021 0.272924
H120  H     H_    0.333825 0.269539 0.724192 0.281524
H121  H     H_    0.270192 0.176122 0.679062 0.229552
H122  H     H_    0.369378 0.191297 0.564884 0.246029
H123  H     H_    0.573585 0.746809 0.441997 0.201162
H124  H     H_    0.605811 0.844881 0.445615 0.330425
H125  H     H_    0.616970 0.807770 0.331957 0.276884
H126  H     H_    0.750172 0.803557 0.288024 0.243174
H127  H     H_    0.714460 0.705120 0.316587 0.176211
H128  H     H_    0.627396 0.374938 0.399603 0.256490
N1    N     N_R   0.408680 0.130810 0.995780 -0.069415
N2    N     N_R   0.578590 0.132790 0.846380 -0.080786
N3    N     N_R   0.578590 0.867210 0.846380 -0.097849
N4    N     N_R   0.421410 0.132790 0.153620 -0.087473
N5    N     N_R   0.921410 0.367210 0.153620 -0.104995
N6    N     N_R   0.078590 0.632790 0.846380 -0.080781
N7    N     N_R   0.078590 0.367210 0.846380 -0.097854
N8    N     N_R   0.921410 0.632790 0.153620 -0.087453
N9    N     N_R   0.403840 0.921910 0.935760 -0.115868
N10   N     N_R   0.596160 0.078090 0.064240 -0.098719
N11   N     N_R   0.596160 0.921910 0.064240 -0.110114
N12   N     N_R   0.591320 0.869190 0.004220 -0.076743
N13   N     N_R   0.403840 0.078090 0.935760 -0.104270
N14   N     N_R   0.903840 0.421910 0.935760 -0.115865
N15   N     N_R   0.096160 0.578090 0.064240 -0.098729
N16   N     N_R   0.096160 0.421910 0.064240 -0.110112
N17   N     N_R   0.903840 0.578090 0.935760 -0.104268
N18   N     N_R   0.426250 0.076100 0.213650 -0.118522
N19   N     N_R   0.573750 0.923900 0.786350 -0.107786
N20   N     N_R   0.573750 0.076100 0.786350 -0.109206
N21   N     N_R   0.426250 0.923900 0.213650 -0.120531
N22   N     N_R   0.926250 0.576100 0.213650 -0.118507
N23   N     N_R   0.591320 0.130810 0.004220 -0.071971
N24   N     N_R   0.073750 0.423900 0.786350 -0.107788
N25   N     N_R   0.073750 0.576100 0.786350 -0.109204
N26   N     N_R   0.926250 0.423900 0.213650 -0.120534
N27   N     N_R   0.408680 0.869190 0.995780 -0.076876
N28   N     N_R   0.908680 0.630810 0.995780 -0.069406
N29   N     N_R   0.091320 0.369190 0.004220 -0.076740
N30   N     N_R   0.091320 0.630810 0.004220 -0.071975
N31   N     N_R   0.908680 0.369190 0.995780 -0.076875
N32   N     N_R   0.421410 0.867210 0.153620 -0.104999
Ni1   Ni    Ni4+2 0.500000 0.131570 0.000000 0.194919
Ni2   Ni    Ni4+2 0.500000 0.868430 0.000000 0.176728
Ni3   Ni    Ni4+2 0.000000 0.631570 0.000000 0.194915
Ni4   Ni    Ni4+2 1.000000 0.368430 0.000000 0.176719
Ni5   Ni    Ni4+2 0.488900 0.000000 0.862310 0.326045
Ni6   Ni    Ni4+2 0.511100 0.000000 0.137690 0.342417
Ni7   Ni    Ni4+2 0.988900 0.500000 0.862310 0.326042
Ni8   Ni    Ni4+2 0.011100 0.500000 0.137690 0.342408

loop_
_geom_bond_atom_site_label_1
_geom_bond_atom_site_label_2
_ccdc_geom_bond_type
C12   H88   S    
C3    H59   S    
N17   Ni7   S    
C82   N28   A    
C19   C20   S    
C22   H109  S    
C23   H116  S    
C127  H2    S    
C11   H81   S    
N5    Ni4   S    
C62   N7    A    
C63   C98   A    
C72   N17   A    
C31   H4    S    
C19   C113  S    
C82   H74   S    
C34   C35   S    
C26   C126  S    
C74   C92   A    
C27   H120  S    
C129  H36   S    
C113  C122  S    
C7    H69   S    
N4    N18   A    
C136  H60   S    
C21   C22   S    
N8    Ni3   S    
C32   H10   S    
C128  H38   S    
C41   H32   S    
N10   Ni6   S    
C54   C83   S    
C109  C118  S    
C68   Cl28  S    
C105  Cl15  S    
C125  H34   S    
C50   C53   D    
C106  Cl16  S    
C133  H47   S    
C13   C30   S    
C42   H30   S    
C24   C110  S    
C29   H124  S    
C18   H98   S    
C67   N13   A    
C44   C119  S    
C39   H27   S    
C6    C63   S    
N13   Ni5   S    
C24   C32   S    
C37   C38   S    
C16   H90   S    
C131  H42   S    
C69   C88   A    
C60   N23   A    
N21   N32   A    
C8    H77   S    
C134  H56   S    
C11   H80   S    
C29   H125  S    
C64   C85   A    
C39   C40   S    
C31   H128  S    
C1    N1    A    
C7    H68   S    
C42   H31   S    
N9    N27   A    
C4    H66   S    
C26   H122  S    
C4    C5    S    
C58   N4    A    
C6    C7    S    
C136  H61   S    
C71   N27   A    
C60   H52   S    
C130  C131  S    
C79   C96   A    
C38   H20   S    
C77   N22   A    
C2    C108  S    
C35   C113  S    
C132  H50   S    
C56   C128  S    
N4    Ni1   S    
C77   Cl5   S    
N15   N30   A    
N18   Ni6   S    
C102  Cl13  S    
C44   C116  S    
C106  C124  S    
C125  C127  S    
C71   H63   S    
C100  C117  S    
C104  H96   S    
C20   H101  S    
C30   H6    S    
C102  C119  S    
C52   Cl24  S    
C89   C115  A    
C57   C92   A    
C79   N25   A    
C28   H126  S    
C49   N12   A    
C9    H73   S    
C128  C129  S    
N19   Ni5   S    
C12   C110  S    
C61   C96   A    
N7    Ni4   S    
C55   C90   A    
C21   H111  S    
C16   H92   S    
C10   C109  S    
C3    C136  S    
C97   C121  S    
C103  Cl14  S    
C45   C114  S    
C79   Cl7   S    
C80   Cl8   S    
C75   C91   A    
N3    Ni2   S    
C37   H22   S    
C66   C83   A    
C63   N8    A    
N16   N29   A    
C70   C87   A    
C66   Cl23  S    
C88   C104  A    
C99   C126  S    
C40   H25   S    
C135  H53   S    
N20   Ni5   S    
C33   H9    S    
C57   C130  S    
N6    N25   A    
N2    N20   A    
N7    N24   A    
C65   C84   A    
C76   N21   A    
C43   C118  S    
C38   H18   S    
C10   H82   S    
C15   H93   S    
C62   C97   A    
C14   H86   S    
N21   Ni6   S    
C78   C97   A    
C17   C18   S    
C36   H15   S    
C80   C95   A    
C3    H58   S    
C107  Cl17  S    
C50   C87   S    
C114  C123  S    
C67   C81   A    
C131  H43   S    
N24   Ni7   S    
C48   C86   S    
C12   H89   S    
C9    H75   S    
N14   Ni7   S    
C95   C123  S    
C98   C122  S    
C105  C109  S    
C101  Cl11  S    
C41   C45   S    
C101  C120  S    
C107  C111  S    
C108  C117  S    
C57   N3    A    
C110  C119  S    
C39   C44   S    
C23   H115  S    
C6    H71   S    
C59   C134  S    
C55   N32   A    
C73   N18   A    
C112  C121  S    
C13   C111  S    
C75   Cl3   S    
N15   Ni8   S    
C94   C118  S    
C31   H3    S    
C87   C93   A    
C4    H67   S    
C34   C36   S    
C69   Cl29  S    
C10   C11   S    
C27   H119  S    
C129  H35   S    
C22   H106  S    
C109  C126  S    
N5    N26   A    
C5    H62   S    
C45   C107  S    
C59   N5    A    
N25   Ni7   S    
C41   C42   S    
C36   H12   S    
C107  C123  S    
N28   Ni3   S    
C74   Cl2   S    
C26   C27   S    
C133  H46   S    
N22   Ni8   S    
C28   C29   S    
C17   H100  S    
C35   C103  S    
C78   Cl6   S    
C30   C31   S    
C13   C123  S    
C93   H85   S    
C14   H84   S    
C1    C81   A    
C4    C62   S    
C53   C81   S    
C33   H8    S    
C23   C116  S    
C56   C91   A    
C55   C125  S    
C58   C132  S    
C48   Cl20  S    
C8    H78   S    
C101  C114  S    
C68   N14   A    
C73   C94   A    
C69   N15   A    
C25   H112  S    
C70   N16   A    
N6    Ni3   S    
C22   H108  S    
C104  N30   A    
C64   Cl1   S    
C2    C122  S    
C46   Cl18  S    
N11   N12   A    
C73   Cl32  S    
C74   N19   A    
C47   C51   D    
C82   C86   A    
C61   N6    A    
C37   C43   S    
C34   H17   S    
C27   H117  S    
C129  H37   S    
C66   N11   A    
N8    N22   A    
C7    H70   S    
C68   C89   A    
C5    H64   S    
N27   Ni2   S    
C65   Cl12  S    
C64   N9    A    
N1    N13   A    
C134  C135  S    
C36   H14   S    
N17   N28   A    
C41   H33   S    
C20   H102  S    
N2    Ni1   S    
C116  C124  S    
C133  H48   S    
C42   H29   S    
C18   H97   S    
C72   C86   A    
C19   H104  S    
C44   C106  S    
N26   Ni8   S    
C39   H28   S    
C51   Cl22  S    
N16   Ni8   S    
C32   C33   S    
C49   C83   A    
N11   Ni6   S    
C21   H110  S    
C40   H23   S    
N9    Ni5   S    
C125  H24   S    
C24   C102  S    
N1    Ni1   S    
C18   H95   S    
C134  H55   S    
C49   H41   S    
C25   H114  S    
C103  C122  S    
C51   C84   S    
C15   C16   S    
C61   C136  S    
C76   C90   A    
C37   H21   S    
C80   N26   A    
C26   H121  S    
C130  H44   S    
C40   H26   S    
C48   C54   D    
N29   Ni4   S    
C52   C85   S    
C10   H83   S    
N12   Ni2   S    
C70   Cl30  S    
N31   Ni4   S    
C38   H19   S    
C46   C52   D    
C24   C124  S    
C78   N24   A    
C130  H45   S    
C132  H49   S    
C43   C105  S    
C71   C85   A    
C115  N31   A    
N14   N31   A    
C100  Cl10  S    
C132  C133  S    
C32   H11   S    
C34   H16   S    
C103  C108  S    
C128  H39   S    
C29   H123  S    
C30   H5    S    
C75   N20   A    
N3    N19   A    
C2    C100  S    
C5    H65   S    
N10   N23   A    
C47   C89   S    
C127  H118  S    
C59   C95   A    
C131  H40   S    
C8    C108  S    
C46   C88   S    
C76   Cl4   S    
C50   Cl21  S    
C96   C124  S    
C15   C111  S    
N32   Ni2   S    
C65   N10   A    
C16   H91   S    
C8    C9    S    
N23   Ni1   S    
C56   N2    A    
C6    H72   S    
C111  C120  S    
C92   C117  S    
C14   H87   S    
C67   Cl27  S    
C135  H51   S    
C105  C121  S    
C77   C98   A    
C54   Cl26  S    
C12   C14   S    
C127  H13   S    
C72   Cl31  S    
C35   C117  S    
C43   C112  S    
C13   C101  S    
C17   C112  S    
C45   C120  S    
C106  C110  S    
C135  H54   S    
C3    H57   S    
C100  C113  S    
C21   C114  S    
C93   N29   A    
C11   H79   S    
C90   C119  S    
C58   C94   A    
C121  C126  S    
C17   H99   S    
C15   H94   S    
C99   C118  S    
C60   C84   A    
C53   Cl25  S    
C19   H105  S    
C47   Cl19  S    
C99   C112  S    
C1    H1    S    
C20   H103  S    
C23   C25   S    
C99   Cl9   S    
C33   H7    S    
C102  C116  S    
C115  H107  S    
N30   Ni3   S    
C91   C120  S    
C2    C28   S    
C28   H127  S    
C9    H76   S    
C25   H113  S    
