data_mof_unit_2655.cif
_audit_creation_date              2012-12-10T18:09:02-0500
_audit_creation_method            fapswitch 2.2
_symmetry_space_group_name_H-M    P1
_symmetry_Int_Tables_number       1
_space_group_crystal_system       triclinic
_cell_length_a                    12.643994
_cell_length_b                    13.135607
_cell_length_c                    13.637642
_cell_angle_alpha                 89.79805
_cell_angle_beta                  96.222148
_cell_angle_gamma                 98.054908
_cell_volume                      2229.31467515

loop_
_atom_site_label
_atom_site_type_symbol
_atom_type_description
_atom_site_fract_x
_atom_site_fract_y
_atom_site_fract_z
_atom_type_partial_charge
Br1   Br    Br    0.087038 0.716188 0.222534 -0.589668
Br2   Br    Br    0.232935 0.354461 0.623762 -0.465052
C1    C     C_R   0.559233 0.691031 0.517185 0.867605
C2    C     C_R   0.466447 0.034366 0.524219 0.112476
C3    C     C_R   0.360756 0.993824 0.543646 0.176931
C4    C     C_R   0.516745 0.496530 0.318401 0.904856
C5    C     C_R   0.340697 0.894614 0.579654 -0.246909
C6    C     C_R   0.421149 0.832485 0.586231 -0.168043
C7    C     C_R   0.484591 0.134519 0.490462 -0.256288
C8    C     C_R   0.298984 0.155356 0.497896 -0.135517
C9    C     C_R   0.596298 0.800423 0.537147 -0.161244
C10   C     C_R   0.901018 0.423366 0.684928 -0.223391
C11   C     C_R   0.210572 0.609226 0.367585 -0.011632
C12   C     C_1   0.527121 0.491051 0.217410 -0.184160
C13   C     C_R   0.109072 0.633682 0.336526 0.219237
C14   C     C_R   0.023883 0.598455 0.389787 -0.225516
C15   C     C_R   0.041144 0.542359 0.477023 -0.063815
C16   C     C_R   0.440360 0.308371 0.487008 0.897335
C17   C     C_R   0.146695 0.522363 0.508774 0.072348
C18   C     C_R   0.957045 0.502533 0.532823 -0.060354
C19   C     C_R   0.982354 0.468882 0.630419 0.021118
C20   C     C_R   0.089236 0.473083 0.669308 0.350669
C21   C     C_R   0.164728 0.474674 0.602199 0.208817
C22   C     C_R   0.848628 0.491653 0.494977 -0.009763
C23   C     C_R   0.277034 0.053558 0.527199 -0.184025
C24   C     C_R   0.796301 0.410510 0.641864 0.014231
C25   C     C_R   0.483665 0.504287 0.681650 0.905851
C26   C     C_1   0.474673 0.510121 0.782879 -0.130258
C27   C     C_2   0.468149 0.517452 0.972220 -0.270005
C28   C     C_2   0.545792 0.480380 0.029128 0.548025
C29   C     C_1   0.537716 0.485441 0.132305 -0.170394
C30   C     C_1   0.468649 0.514850 0.868876 0.089333
C31   C     C_3   0.702372 0.399633 0.055007 0.089301
C32   C     C_3   0.792213 0.483811 0.097063 -0.346907
C33   C     C_3   0.875283 0.439126 0.167823 -0.919141
C34   C     C_R   0.404915 0.197740 0.486909 -0.071571
C35   C     C_3   0.130870 0.526709 0.828185 0.070567
C36   C     C_3   0.147471 0.490228 0.934525 -0.334576
C37   C     C_3   0.163876 0.580089 0.007686 -0.895683
C38   C     C_3   0.916796 0.929864 0.501239 0.105861
C39   C     C_3   0.968385 0.880618 0.593402 -0.366753
C40   C     C_3   0.022222 0.789612 0.565898 -0.965222
C41   C     C_R   0.704202 0.839639 0.529236 -0.347889
C42   C     C_R   0.737725 0.946736 0.528735 0.560796
C43   C     C_R   0.659451 0.011603 0.530358 -0.244473
C44   C     C_R   0.549973 0.972687 0.536180 0.001247
C45   C     C_R   0.522424 0.867570 0.553948 0.088393
H1    H     H_    0.403027 0.756745 0.616778 0.165007
H2    H     H_    0.195529 0.022364 0.539186 0.143300
H3    H     H_    0.561648 0.166318 0.468602 0.160046
H4    H     H_    0.760248 0.785704 0.523029 0.172685
H5    H     H_    0.687593 0.093000 0.529780 0.162752
H6    H     H_    0.739375 0.343190 0.014226 0.166199
H7    H     H_    0.663603 0.355084 0.114360 0.141205
H8    H     H_    0.832665 0.521915 0.035471 0.238114
H9    H     H_    0.758184 0.542941 0.137040 0.229946
H10   H     H_    0.837552 0.404543 0.232295 0.263876
H11   H     H_    0.940715 0.501151 0.194604 0.294365
H12   H     H_    0.732155 0.378736 0.684119 0.150676
H13   H     H_    0.910806 0.379639 0.129736 0.262044
H14   H     H_    0.060021 0.569294 0.820440 0.131944
H15   H     H_    0.203887 0.579271 0.811878 0.141394
H16   H     H_    0.075972 0.435845 0.950604 0.230173
H17   H     H_    0.218811 0.448968 0.943942 0.238058
H18   H     H_    0.234453 0.636149 0.992808 0.260845
H19   H     H_    0.178092 0.551063 0.083883 0.282199
H20   H     H_    0.091256 0.619468 0.002204 0.290320
H21   H     H_    0.982044 0.978792 0.467682 0.166542
H22   H     H_    0.881023 0.873175 0.442145 0.136548
H23   H     H_    0.917817 0.396200 0.759311 0.183892
H24   H     H_    0.029141 0.939029 0.634362 0.226711
H25   H     H_    0.906998 0.853532 0.643598 0.236046
H26   H     H_    0.960097 0.727619 0.532846 0.274319
H27   H     H_    0.064785 0.759463 0.632948 0.257187
H28   H     H_    0.080932 0.812943 0.512199 0.276267
H29   H     H_    0.821811 0.519673 0.423466 0.125299
H30   H     H_    0.276930 0.635213 0.325724 0.167195
H31   H     H_    0.946296 0.619815 0.364223 0.164718
H32   H     H_    0.403849 0.549421 0.002877 0.126854
H33   H     H_    0.234174 0.201083 0.487296 0.195950
H34   H     H_    0.262456 0.864346 0.600974 0.152563
N1    N     N_R   0.773270 0.445590 0.549770 -0.110243
N2    N     N_R   0.227520 0.553880 0.450750 -0.128098
O1    O     O_R   0.631100 0.627590 0.523760 -0.613686
O2    O     O_3   0.114012 0.440244 0.764549 -0.596348
O3    O     O_3   0.843642 0.994615 0.527314 -0.645128
O4    O     O_R   0.455900 0.662370 0.491970 -0.619530
O5    O     O_R   0.600200 0.480080 0.377830 -0.618889
O6    O     O_R   0.425000 0.514870 0.346040 -0.616518
O7    O     O_R   0.544100 0.337630 0.508030 -0.619154
O8    O     O_R   0.368900 0.372410 0.476240 -0.570474
O9    O     O_R   0.575000 0.485130 0.653960 -0.614467
O10   O     O_R   0.399800 0.519920 0.622170 -0.594136
O11   O     O_3   0.627935 0.441089 0.986433 -0.637317
Zn1   Zn    Zn3+2 0.616980 0.476780 0.521230 0.944338
Zn2   Zn    Zn3+2 0.383020 0.523220 0.478770 0.967664

loop_
_geom_bond_atom_site_label_1
_geom_bond_atom_site_label_2
_ccdc_geom_bond_type
C32   H9    S    
C39   C40   S    
C9    C45   A    
C12   C29   T    
C31   O11   S    
C35   H15   S    
C5    C6    A    
C2    C44   A    
C43   C44   A    
C40   H28   S    
C35   C36   S    
C33   H11   S    
C16   O8    A    
C35   O2    S    
C27   C30   S    
C28   C29   S    
C42   O3    S    
C13   C14   A    
C15   C18   A    
C4    O5    A    
C32   C33   S    
C20   O2    S    
C38   O3    S    
C22   N1    A    
O8    Zn2   S    
C18   C22   A    
C14   C15   A    
C7    C34   A    
C9    C41   A    
Br1   C13   S    
C24   H12   S    
C39   H24   S    
O5    Zn1   S    
C32   H8    S    
C24   N1    A    
C19   C20   A    
C37   H18   S    
C17   N2    A    
C36   H17   S    
C31   H6    S    
C11   H30   S    
C40   H27   S    
C38   H22   S    
C1    O4    A    
C16   O7    A    
C26   C30   T    
C3    C5    A    
C8    H33   S    
C22   H29   S    
C43   H5    S    
C10   C19   A    
O9    Zn1   S    
C10   C24   A    
C33   H13   S    
O1    Zn1   S    
C17   C21   A    
C41   C42   A    
C6    H1    S    
C27   C28   D    
C4    C12   S    
C27   H32   S    
O4    Zn2   S    
C31   C32   S    
C25   O9    A    
C39   H25   S    
C3    C23   A    
C8    C23   A    
C38   C39   S    
C5    H34   S    
O10   Zn2   S    
C11   C13   A    
C37   H19   S    
C25   O10   A    
Br2   C21   S    
C42   C43   A    
C36   H16   S    
C31   H7    S    
C10   H23   S    
C44   C45   A    
C40   H26   S    
N1    Zn1   S    
C37   H20   S    
C7    H3    S    
C2    C3    A    
O7    Zn1   S    
C35   H14   S    
C4    O6    A    
C11   N2    A    
C33   H10   S    
O6    Zn2   S    
C6    C45   A    
C28   O11   S    
C41   H4    S    
C36   C37   S    
N2    Zn2   S    
C15   C17   A    
C14   H31   S    
C23   H2    S    
C1    C9    S    
C18   C19   A    
C38   H21   S    
C1    O1    A    
C20   C21   A    
C8    C34   A    
C2    C7    A    
C16   C34   S    
C25   C26   S    
