data_mof_unit_4377.cif
_audit_creation_date              2012-12-11T16:05:05-0500
_audit_creation_method            fapswitch 2.2
_symmetry_space_group_name_H-M    P1
_symmetry_Int_Tables_number       1
_space_group_crystal_system       triclinic
_cell_length_a                    10.619648
_cell_length_b                    10.611988
_cell_length_c                    16.894927
_cell_angle_alpha                 98.234476
_cell_angle_beta                  98.463155
_cell_angle_gamma                 62.038689
_cell_volume                      1657.39491465

loop_
_atom_site_label
_atom_site_type_symbol
_atom_type_description
_atom_site_fract_x
_atom_site_fract_y
_atom_site_fract_z
_atom_type_partial_charge
C1    C     C_R   0.350729 0.784593 0.402681 0.534614
C2    C     C_3   0.372642 0.745650 0.254255 -0.088514
C3    C     C_3   0.328086 0.851217 0.328955 0.042865
C4    C     C_R   0.369395 0.346112 0.359355 0.528409
C5    C     C_3   0.390040 0.940731 0.301451 -0.137079
C6    C     C_3   0.241278 0.031330 0.257135 -0.154363
C7    C     C_3   0.180489 0.940563 0.286538 -0.133493
C8    C     C_3   0.224886 0.834708 0.211509 -0.079277
C9    C     C_3   0.285918 0.924265 0.182821 0.054317
C10   C     C_3   0.460129 0.263476 0.775780 -0.111224
C11   C     C_3   0.397333 0.403578 0.734585 -0.106662
C12   C     C_3   0.687479 0.318032 0.236375 -0.136064
C13   C     C_3   0.337264 0.333579 0.663247 0.054047
C14   C     C_3   0.400092 0.194342 0.703811 -0.114224
C15   C     C_3   0.257600 0.252930 0.741787 -0.115698
C16   C     C_R   0.705274 0.416461 0.390664 0.562974
C17   C     C_3   0.195001 0.393194 0.700029 -0.123679
C18   C     C_3   0.254891 0.462026 0.772963 -0.119509
C19   C     C_3   0.318537 0.322127 0.813045 0.052785
C20   C     C_1   0.817267 0.341590 0.709595 -0.046778
C21   C     C_1   0.843290 0.315159 0.778254 -0.047084
C22   C     C_1   0.338344 0.812197 0.709755 -0.047036
C23   C     C_3   0.744560 0.388245 0.308904 0.025010
C24   C     C_1   0.313568 0.839166 0.778592 -0.046622
C25   C     C_R   0.892907 0.309838 0.091142 0.567177
C26   C     C_R   0.317709 0.297398 0.120845 0.598592
C27   C     C_R   0.256314 0.960152 0.099363 0.556181
C28   C     C_R   0.356582 0.771758 0.627179 0.543983
C29   C     C_R   0.884094 0.299764 0.861074 0.553347
C30   C     C_R   0.308539 0.294602 0.892198 0.564280
C31   C     C_R   0.280333 0.884317 0.859105 0.550284
C32   C     C_R   0.366879 0.345215 0.584988 0.541533
C33   C     C_R   0.774494 0.379261 0.629532 0.551347
C34   C     C_3   0.899432 0.289444 0.290889 -0.119372
C35   C     C_1   0.340540 0.334508 0.275810 -0.069005
C36   C     C_1   0.328898 0.323575 0.204557 -0.040864
C37   C     C_3   0.844089 0.218814 0.217065 -0.141745
C38   C     C_2   0.565517 0.504680 0.120375 0.546919
C39   C     C_3   0.890236 0.402943 0.239915 -0.123033
C40   C     C_3   0.734469 0.502795 0.258669 -0.133912
C41   C     C_3   0.680149 0.431290 0.185117 0.046465
C42   C     C_3   0.833803 0.333187 0.166807 0.041232
C43   C     C_3   0.433785 0.835603 0.225289 -0.106407
Cr1   Cr    Cr6+3 0.608340 0.611040 0.520430 1.016669
Cr2   Cr    Cr6+3 0.287650 0.601120 0.489350 1.024067
Cr3   Cr    Cr6+3 0.604040 0.287870 0.490280 1.018599
Cr4   Cr    Cr6+3 0.054020 0.052700 0.970850 1.023582
Cr5   Cr    Cr6+3 0.059230 0.375120 0.993390 1.051355
Cr6   Cr    Cr6+3 0.374950 0.061200 0.992340 1.042404
H1    H     H_    0.605457 0.282098 0.237141 0.141588
H2    H     H_    0.197578 0.570808 0.803507 0.136062
H3    H     H_    0.889503 0.102650 0.197813 0.129918
H4    H     H_    0.986581 0.235939 0.337908 0.127194
H5    H     H_    0.975174 0.436123 0.240157 0.130228
H6    H     H_    0.692893 0.617600 0.279967 0.118918
H7    H     H_    0.423852 0.627909 0.256594 0.124370
H8    H     H_    0.535733 0.796432 0.197921 0.160218
H9    H     H_    0.457293 0.983722 0.340351 0.138505
H10   H     H_    0.497170 0.637938 0.032361 0.352653
H11   H     H_    0.189042 0.149212 0.255375 0.098253
H12   H     H_    0.078182 0.980565 0.313742 0.123879
H13   H     H_    0.157743 0.789339 0.174667 0.151473
H14   H     H_    0.455361 0.465696 0.729456 0.117089
H15   H     H_    0.568249 0.212647 0.808525 0.133375
H16   H     H_    0.457519 0.085121 0.673757 0.130439
H17   H     H_    0.199575 0.190909 0.747115 0.113702
H18   H     H_    0.087405 0.444033 0.666762 0.134839
O1    O     O_R   0.751220 0.499230 0.435170 -0.512295
O2    O     O_R   0.412990 0.180750 0.091610 -0.510584
O3    O     O_R   0.366620 0.943130 0.065760 -0.492181
O4    O     O_R   0.477220 0.727600 0.436870 -0.523625
O5    O     O_R   0.160510 0.906330 0.879210 -0.506392
O6    O     O_R   0.930190 0.179050 0.889450 -0.496596
O7    O     O_R   0.909140 0.398170 0.896710 -0.497448
O8    O     O_R   0.186190 0.363460 0.918830 -0.495464
O9    O     O_R   0.401670 0.173200 0.913310 -0.510161
O10   O     O_R   0.356120 0.936130 0.900470 -0.489867
O11   O     O_3   0.162740 0.163010 0.985530 -0.296654
O12   O     O_R   0.297880 0.469080 0.560050 -0.497655
O13   O     O_R   0.258650 0.745120 0.411470 -0.511912
O14   O     O_R   0.297070 0.467240 0.395960 -0.494645
O15   O     O_R   0.488830 0.252610 0.387790 -0.528906
O16   O     O_R   0.724400 0.302390 0.420980 -0.497110
O17   O     O_R   0.752100 0.501210 0.612190 -0.506812
O18   O     O_R   0.478040 0.729440 0.600970 -0.498785
O19   O     O_R   0.259530 0.747110 0.588490 -0.506392
O20   O     O_2   0.460569 0.483435 0.107203 -0.538792
O21   O     O_R   0.580610 0.595579 0.074558 -0.687519
O22   O     O_R   0.489720 0.254590 0.564810 -0.516412
O23   O     O_R   0.725220 0.304230 0.585080 -0.489816
O24   O     O_3   0.500010 0.500010 0.500020 -0.279437
O25   O     O_R   0.171830 0.913880 0.057510 -0.515640
O26   O     O_R   0.940690 0.186050 0.054730 -0.526609
O27   O     O_R   0.920470 0.405720 0.075010 -0.490789
O28   O     O_R   0.196690 0.370460 0.084120 -0.495601

loop_
_geom_bond_atom_site_label_1
_geom_bond_atom_site_label_2
_ccdc_geom_bond_type
C11   C18   S    
C25   O26   A    
Cr5   O28   S    
C34   C37   S    
C41   C42   S    
C13   C32   S    
C35   C36   T    
C6    C9    S    
C7    C8    S    
Cr3   O22   S    
C15   C19   S    
C12   C23   S    
C1    O4    A    
Cr5   O27   S    
C5    H9    S    
C11   H14   S    
C5    C6    S    
C39   H5    S    
C29   O6    A    
C23   C40   S    
C12   C37   S    
Cr6   O11   S    
Cr1   O4    S    
C18   C19   S    
Cr4   O25   S    
Cr5   O11   S    
C37   C42   S    
H10   O21   S    
C7    H12   S    
Cr3   O15   S    
C4    O14   A    
C8    C9    S    
C16   O1    A    
C10   C19   S    
C23   C34   S    
C5    C43   S    
C4    C35   S    
C25   O27   A    
Cr6   O2    S    
C13   C14   S    
Cr5   O8    S    
C18   H2    S    
C31   O10   A    
C39   C42   S    
Cr2   O14   S    
C9    C43   S    
C17   H18   S    
C34   C39   S    
C6    H11   S    
Cr4   O6    S    
C38   C41   S    
C10   C14   S    
C39   C40   S    
C37   H3    S    
C29   O7    A    
Cr1   O17   S    
C15   H17   S    
C21   C29   S    
C16   O16   A    
C38   O21   S    
C1    C3    S    
C12   C41   S    
Cr5   O7    S    
C30   O9    A    
C32   O22   A    
C2    C43   S    
C40   H6    S    
C17   C18   S    
Cr4   O26   S    
Cr6   O9    S    
C27   O25   A    
Cr2   O12   S    
C27   O3    A    
Cr1   O24   S    
C20   C33   S    
C26   C36   S    
C31   O5    A    
C16   C23   S    
Cr6   O3    S    
C28   O19   A    
C22   C24   T    
Cr1   O1    S    
Cr1   O18   S    
C9    C27   S    
C26   O28   A    
C15   C17   S    
C40   C41   S    
C2    C8    S    
C3    C5    S    
C25   C42   S    
C12   H1    S    
C6    C7    S    
Cr3   O23   S    
C3    C7    S    
C13   C17   S    
C38   O20   D    
C10   H15   S    
Cr2   O19   S    
C24   C31   S    
C2    H7    S    
C33   O23   A    
C32   O12   A    
C30   O8    A    
C11   C13   S    
C14   H16   S    
Cr6   O10   S    
C2    C3    S    
Cr2   O13   S    
Cr2   O24   S    
C33   O17   A    
Cr4   O5    S    
C10   C11   S    
C43   H8    S    
Cr3   O16   S    
C4    O15   A    
C20   C21   T    
C34   H4    S    
C28   O18   A    
C26   O2    A    
C14   C15   S    
C1    O13   A    
C22   C28   S    
Cr4   O11   S    
C19   C30   S    
Cr3   O24   S    
C8    H13   S    
