data_mof_unit_3819.cif
_audit_creation_date              2012-10-26T21:00:19-0400
_audit_creation_method            fapswitch 2.2
_symmetry_space_group_name_H-M    P1
_symmetry_Int_Tables_number       1
_space_group_crystal_system       triclinic
_cell_length_a                    19.428361
_cell_length_b                    8.804095
_cell_length_c                    7.701362
_cell_angle_alpha                 104.273337
_cell_angle_beta                  97.163868
_cell_angle_gamma                 102.603311
_cell_volume                      1223.49311716

loop_
_atom_site_label
_atom_site_type_symbol
_atom_type_description
_atom_site_fract_x
_atom_site_fract_y
_atom_site_fract_z
_atom_type_partial_charge
C1    C     C_R   0.497821 0.199223 0.451576 0.522992
C2    C     C_R   0.808183 0.489707 0.344574 -0.131689
C3    C     C_R   0.145996 0.500245 0.494668 0.030892
C4    C     C_R   0.854002 0.499740 0.505326 0.030891
C5    C     C_R   0.173655 0.489614 0.332763 -0.120845
C6    C     C_R   0.826334 0.510284 0.667212 -0.120853
C7    C     C_R   0.245632 0.488948 0.332118 -0.138730
C8    C     C_R   0.754358 0.510958 0.667860 -0.138726
C9    C     C_R   0.291225 0.499121 0.493411 0.015817
C10   C     C_R   0.708775 0.500881 0.506589 0.015816
C11   C     C_R   0.930113 0.499673 0.502866 0.344555
C12   C     C_R   0.502179 0.800777 0.548423 0.522994
C13   C     C_R   0.069884 0.500304 0.497125 0.344555
C14   C     C_R   0.418524 0.307537 0.943221 0.192719
C15   C     C_R   0.379668 0.216084 0.047748 -0.072083
C16   C     C_R   0.326706 0.069252 0.976441 -0.159581
C17   C     C_R   0.305160 0.002944 0.791385 -0.096915
C18   C     C_R   0.335020 0.087392 0.679554 -0.161987
C19   C     C_R   0.387986 0.234606 0.752809 -0.083601
C20   C     C_R   0.581474 0.692466 0.056779 0.192714
C21   C     C_R   0.620329 0.783922 0.952253 -0.072079
C22   C     C_R   0.673285 0.930763 0.023561 -0.159570
C23   C     C_2   0.496820 0.029762 0.427150 -0.147390
C24   C     C_R   0.694828 0.997077 0.208617 -0.096910
C25   C     C_R   0.664972 0.912623 0.320447 -0.161993
C26   C     C_R   0.612011 0.765399 0.247192 -0.083615
C27   C     C_2   0.503180 0.970238 0.572850 -0.147392
C28   C     C_R   0.367508 0.499359 0.496898 0.518866
C29   C     C_R   0.632492 0.500641 0.503102 0.518866
C30   C     C_R   0.263401 0.509768 0.654827 -0.135776
C31   C     C_R   0.736609 0.490324 0.345192 -0.135778
C32   C     C_R   0.191826 0.510376 0.655441 -0.131702
Cu1   Cu    Cu3+1 0.507710 0.517380 0.684380 0.900341
Cu2   Cu    Cu3+1 0.492290 0.482620 0.315620 0.900345
H1    H     H_    0.172530 0.518725 0.782571 0.133564
H2    H     H_    0.703144 0.482587 0.218203 0.140420
H3    H     H_    0.385453 0.246208 0.189100 0.179053
H4    H     H_    0.301805 0.007272 0.067056 0.108017
H5    H     H_    0.264214 0.889478 0.735180 0.139101
H6    H     H_    0.316465 0.039066 0.533133 0.106465
H7    H     H_    0.398140 0.274029 0.641799 0.182138
H8    H     H_    0.614548 0.753792 0.810901 0.179053
H9    H     H_    0.698185 0.992746 0.932946 0.108018
H10   H     H_    0.735770 0.110551 0.264822 0.139105
H11   H     H_    0.683525 0.960952 0.466869 0.106465
H12   H     H_    0.827487 0.481432 0.217460 0.133564
H13   H     H_    0.601861 0.725971 0.358200 0.182137
H14   H     H_    0.139756 0.481680 0.206395 0.142410
H15   H     H_    0.860224 0.518140 0.793563 0.142404
H16   H     H_    0.265482 0.480631 0.205677 0.129724
H17   H     H_    0.734499 0.519201 0.794286 0.129721
H18   H     H_    0.490873 0.953806 0.288783 0.147540
H19   H     H_    0.509126 0.046193 0.711217 0.147538
H20   H     H_    0.296875 0.517584 0.781834 0.140433
N1    N     N_R   0.024603 0.489559 0.342855 -0.221673
N2    N     N_R   0.975394 0.510416 0.657136 -0.221670
N3    N     N_R   0.956195 0.489284 0.345764 -0.228686
N4    N     N_R   0.043802 0.510691 0.654227 -0.228684
N5    N     N_2   0.480680 0.456420 0.038530 -0.146557
N6    N     N_2   0.519320 0.543580 0.961470 -0.146558
O1    O     O_R   0.505010 0.286130 0.619770 -0.517637
O2    O     O_R   0.494990 0.713870 0.380230 -0.517633
O3    O     O_R   0.491990 0.256780 0.308370 -0.516484
O4    O     O_R   0.508010 0.743220 0.691630 -0.516485
O5    O     O_R   0.406650 0.514660 0.655750 -0.522829
O6    O     O_R   0.593350 0.485340 0.344250 -0.522825
O7    O     O_R   0.393640 0.485310 0.344340 -0.532149
O8    O     O_R   0.606360 0.514690 0.655660 -0.532150

loop_
_geom_bond_atom_site_label_1
_geom_bond_atom_site_label_2
_ccdc_geom_bond_type
Cu2   O7    S    
C2    C4    A    
C24   C25   A    
C27   H19   S    
C23   C27   D    
C20   N6    S    
C29   O8    A    
C12   O2    A    
C2    C31   A    
C31   H2    S    
C22   H9    S    
C3    C13   S    
C17   C18   A    
Cu2   O6    S    
C28   O5    A    
Cu1   O5    S    
N5    N6    D    
C21   C22   A    
C2    H12   S    
C4    C11   S    
C30   C32   A    
C14   N5    S    
C30   H20   S    
C10   C29   S    
C19   H7    S    
C23   H18   S    
Cu2   N5    S    
C20   C26   A    
C26   H13   S    
Cu1   O4    S    
C12   O4    A    
C9    C30   A    
C8    C10   A    
Cu2   O3    S    
N2    N4    A    
C1    C23   S    
Cu1   N6    S    
C5    C7    A    
N1    N3    A    
C6    H15   S    
C3    C32   A    
C24   H10   S    
C5    H14   S    
C22   C24   A    
C4    C6    A    
Cu1   O8    S    
C12   C27   S    
C1    O1    A    
C29   O6    A    
C32   H1    S    
C25   H11   S    
Cu2   O2    S    
C28   O7    A    
Cu1   Cu2   S    
C20   C21   A    
C9    C28   S    
Cu1   O1    S    
C18   C19   A    
C17   H5    S    
C8    H17   S    
C7    C9    A    
C18   H6    S    
C14   C15   A    
C1    O3    A    
C6    C8    A    
C13   N4    A    
C3    C5    A    
C25   C26   A    
C11   N3    A    
C14   C19   A    
C21   H8    S    
C15   H3    S    
C11   N2    A    
C15   C16   A    
C7    H16   S    
C16   H4    S    
C16   C17   A    
C13   N1    A    
C10   C31   A    
