data_mof_unit_3529.cif
_audit_creation_date              2013-03-05T15:46:34-0500
_audit_creation_method            fapswitch 2.2
_symmetry_space_group_name_H-M    P1
_symmetry_Int_Tables_number       1
_space_group_crystal_system       triclinic
_cell_length_a                    17.363357
_cell_length_b                    24.357065
_cell_length_c                    14.900904
_cell_angle_alpha                 89.960416
_cell_angle_beta                  125.607424
_cell_angle_gamma                 90.151812
_cell_volume                      5123.58066707

loop_
_atom_site_label
_atom_site_type_symbol
_atom_site_description
_atom_site_fract_x
_atom_site_fract_y
_atom_site_fract_z
_atom_type_partial_charge
C1    C     C_R   0.316630 0.367518 0.907484 -0.153275
C2    C     C_R   0.644222 0.347140 0.091136 -0.076803
C3    C     C_R   0.808907 0.878359 0.907183 -0.151716
C4    C     C_R   0.169414 0.857360 0.090693 -0.088989
H1    H     H_    0.259277 0.362391 0.821576 0.105127
H2    H     H_    0.680123 0.333422 0.175447 0.084499
H3    H     H_    0.750347 0.875956 0.821380 0.105298
H4    H     H_    0.217574 0.844817 0.175358 0.093372
N1    N     N_R   0.394180 0.396910 0.943210 -0.044970
N2    N     N_R   0.605820 0.396910 0.056790 -0.043759
N3    N     N_R   0.894180 0.896910 0.943210 -0.047146
N4    N     N_R   0.105820 0.896910 0.056790 -0.048273
C5    C     C_R   0.449321 0.652334 0.092490 -0.132821
C6    C     C_R   0.556631 0.651011 0.907069 -0.149723
C7    C     C_R   0.905153 0.129685 0.090981 -0.137112
C8    C     C_R   0.050687 0.152680 0.907379 -0.138219
H5    H     H_    0.499230 0.665463 0.176979 0.091903
H6    H     H_    0.509060 0.664118 0.822175 0.093092
H7    H     H_    0.933753 0.136659 0.176550 0.100204
H8    H     H_    0.001241 0.165547 0.822700 0.087820
N5    N     N_R   0.450950 0.603070 0.056740 -0.041633
N6    N     N_R   0.549050 0.603070 0.943260 -0.037119
N7    N     N_R   0.950950 0.103070 0.056740 -0.042950
N8    N     N_R   0.049050 0.103070 0.943260 -0.039545
C9    C     C_R   0.487520 0.454972 0.257638 -0.119764
C10   C     C_R   0.452870 0.454318 0.696998 -0.094125
C11   C     C_R   0.051815 0.954763 0.305472 -0.151133
C12   C     C_R   0.014765 0.954803 0.745001 -0.066697
H9    H     H_    0.487283 0.413645 0.281814 0.106902
H10   H     H_    0.436023 0.412118 0.669892 0.108844
H11   H     H_    0.070497 0.912817 0.333512 0.089976
H12   H     H_    0.019303 0.912982 0.726074 0.111683
N9    N     N_R   0.525650 0.471570 0.206150 -0.044829
N10   N     N_R   0.474350 0.471570 0.793850 -0.042255
N11   N     N_R   0.025650 0.971570 0.206150 -0.034611
N12   N     N_R   0.974350 0.971570 0.793850 -0.040406
C13   C     C_R   0.246252 0.545963 0.696619 -0.154766
C14   C     C_R   0.766717 0.546427 0.244889 -0.153516
C15   C     C_R   0.748084 0.045947 0.695242 -0.159561
C16   C     C_R   0.266990 0.046724 0.246680 -0.153860
H13   H     H_    0.239333 0.587826 0.668825 0.106348
H14   H     H_    0.785400 0.588901 0.248146 0.112725
H15   H     H_    0.742445 0.087621 0.667084 0.104807
H16   H     H_    0.285200 0.089267 0.248967 0.112631
N13   N     N_R   0.319480 0.528420 0.793810 -0.044287
N14   N     N_R   0.680520 0.528420 0.206190 -0.048401
N15   N     N_R   0.819480 0.028420 0.793810 -0.045983
N16   N     N_R   0.180520 0.028420 0.206190 -0.046909
C17   C     C_R   0.481867 0.546547 0.249729 -0.127928
C18   C     C_R   0.453155 0.545895 0.697452 -0.124147
C19   C     C_R   0.050145 0.045948 0.304104 -0.123258
C20   C     C_R   0.017927 0.046563 0.749840 -0.115864
H17   H     H_    0.470339 0.589244 0.257410 0.096028
H18   H     H_    0.436512 0.588137 0.670991 0.085744
H19   H     H_    0.067774 0.088182 0.330604 0.084631
H20   H     H_    0.028900 0.089306 0.741432 0.093873
N17   N     N_R   0.525640 0.528390 0.206120 -0.041337
N18   N     N_R   0.474360 0.528390 0.793880 -0.037603
N19   N     N_R   0.025640 0.028390 0.206120 -0.035593
N20   N     N_R   0.974360 0.028390 0.793880 -0.040574
C21   C     C_R   0.243657 0.454700 0.695897 -0.106952
C22   C     C_R   0.769273 0.454603 0.250947 -0.089266
C23   C     C_R   0.745019 0.955005 0.694254 -0.107241
C24   C     C_R   0.270507 0.955187 0.257050 -0.081797
H21   H     H_    0.231520 0.412555 0.668864 0.153895
H22   H     H_    0.791168 0.412216 0.264362 0.149006
H23   H     H_    0.733269 0.912974 0.666458 0.156267
H24   H     H_    0.295100 0.913671 0.279384 0.138210
N21   N     N_R   0.319490 0.471590 0.793840 -0.051148
N22   N     N_R   0.680510 0.471590 0.206160 -0.057913
N23   N     N_R   0.819490 0.971590 0.793840 -0.051161
N24   N     N_R   0.180510 0.971590 0.206160 -0.055042
C25   C     C_R   0.354201 0.652382 0.909287 -0.150470
C26   C     C_R   0.648388 0.652208 0.090440 -0.124965
C27   C     C_R   0.812543 0.127377 0.906135 -0.133263
C28   C     C_R   0.143126 0.153362 0.090095 -0.163926
H25   H     H_    0.311460 0.665002 0.823904 0.145254
H26   H     H_    0.688666 0.666207 0.174986 0.148529
H27   H     H_    0.755336 0.129432 0.820120 0.169278
H28   H     H_    0.182238 0.166695 0.174904 0.148678
N25   N     N_R   0.394130 0.603080 0.943110 -0.045293
N26   N     N_R   0.605870 0.603080 0.056890 -0.047023
N27   N     N_R   0.894130 0.103080 0.943110 -0.052427
N28   N     N_R   0.105870 0.103080 0.056890 -0.042305
C29   C     C_R   0.413756 0.362492 0.091213 -0.124382
C30   C     C_R   0.555212 0.348065 0.908055 -0.137894
C31   C     C_R   0.900922 0.876303 0.091417 -0.115147
C32   C     C_R   0.075796 0.856925 0.906961 -0.109463
H29   H     H_    0.451196 0.347681 0.173938 0.139043
H30   H     H_    0.511152 0.336703 0.822190 0.158913
H31   H     H_    0.928704 0.870224 0.176560 0.124952
H32   H     H_    0.035048 0.843103 0.822885 0.137297
N29   N     N_R   0.450990 0.396900 0.056840 -0.052475
N30   N     N_R   0.549010 0.396900 0.943160 -0.047648
N31   N     N_R   0.950990 0.896900 0.056840 -0.054872
N32   N     N_R   0.049010 0.896900 0.943160 -0.052233
C33   C     C_R   0.325026 0.346971 0.000243 0.127480
C34   C     C_R   0.611467 0.314663 0.999477 0.114536
C35   C     C_R   0.810209 0.864536 0.998316 0.140114
C36   C     C_R   0.157164 0.834716 0.997552 0.115582
C37   C     C_R   0.390412 0.684697 0.002169 0.128401
C38   C     C_R   0.617968 0.683292 0.997712 0.132178
C39   C     C_R   0.816454 0.145277 0.997162 0.123254
C40   C     C_R   0.107147 0.185925 0.997519 0.119064
C41   C     C_R   0.454313 0.500921 0.280012 0.052936
C42   C     C_R   0.437105 0.500226 0.633562 0.048589
C43   C     C_R   0.068445 0.000598 0.369271 0.048212
C44   C     C_R   0.046452 0.000974 0.720586 0.036035
C45   C     C_R   0.197149 0.500755 0.632219 0.149105
C46   C     C_R   0.824889 0.501287 0.274854 0.161857
C47   C     C_R   0.699388 0.001080 0.630310 0.152789
C48   C     C_R   0.325711 0.001673 0.279322 0.156392
Ni1   Ni    Ni4+2 0.434860 0.434850 0.869700 0.226466
Ni2   Ni    Ni4+2 0.565140 0.434850 0.130300 0.211418
Ni3   Ni    Ni4+2 0.934860 0.934850 0.869700 0.238856
Ni4   Ni    Ni4+2 0.065140 0.934850 0.130300 0.213782
Ni5   Ni    Ni4+2 0.565130 0.565140 0.130240 0.215759
Ni6   Ni    Ni4+2 0.434870 0.565140 0.869760 0.212949
Ni7   Ni    Ni4+2 0.065130 0.065140 0.130240 0.213498
Ni8   Ni    Ni4+2 0.934870 0.065140 0.869760 0.213520
C49   C     C_R   0.066133 0.552945 0.478456 0.135140
C50   C     C_R   0.973332 0.553520 0.388964 0.136385
C51   C     C_R   0.567884 0.053455 0.476800 0.098872
C52   C     C_R   0.474357 0.053736 0.389197 0.120836
C53   C     C_R   0.116513 0.503805 0.515990 -0.156122
C54   C     C_R   0.927559 0.504876 0.333093 -0.152810
C55   C     C_R   0.618823 0.004478 0.514147 -0.140129
C56   C     C_R   0.428210 0.004826 0.335988 -0.146563
C57   C     C_R   0.080281 0.458103 0.442977 0.215326
C58   C     C_R   0.984049 0.458820 0.349446 0.198829
C59   C     C_R   0.581871 0.958645 0.441939 0.208887
C60   C     C_R   0.484446 0.958653 0.351509 0.209006
C61   C     C_3   0.948217 0.596406 0.440181 -0.486374
C62   C     C_3   0.050424 0.595842 0.538210 -0.484989
C63   C     C_3   0.450711 0.097226 0.440672 -0.476641
C64   C     C_3   0.553666 0.096948 0.536685 -0.421000
H33   H     H_    0.927206 0.635957 0.394465 0.188626
H34   H     H_    0.060276 0.580226 0.614431 0.199289
H35   H     H_    0.428784 0.136438 0.393741 0.183463
H36   H     H_    0.565593 0.082331 0.614598 0.212415
H37   H     H_    0.899699 0.581072 0.460558 0.198802
H38   H     H_    0.087879 0.634941 0.548158 0.189318
H39   H     H_    0.403567 0.082343 0.463408 0.200456
H40   H     H_    0.590625 0.135480 0.543256 0.192975
C65   C     C_R   0.299805 0.768806 0.909345 0.380815
C66   C     C_R   0.684191 0.776157 0.082863 0.342438
C67   C     C_R   0.660749 0.196796 0.895615 0.432474
C68   C     C_R   0.188947 0.272887 0.091854 0.377320
C69   C     C_R   0.596867 0.228866 0.900083 0.383053
C70   C     C_R   0.260594 0.303702 0.099341 0.434399
C71   C     C_R   0.224737 0.795428 0.900533 0.440849
C72   C     C_R   0.736948 0.821603 0.086184 0.377710
C73   C     C_R   0.631444 0.256066 0.000047 -0.141085
C74   C     C_R   0.251809 0.316996 0.000740 -0.086229
C75   C     C_R   0.228011 0.803309 0.997178 -0.106446
C76   C     C_R   0.736977 0.831594 0.992745 -0.026617
C77   C     C_R   0.705067 0.231804 0.098761 -0.188648
C78   C     C_R   0.169667 0.300999 0.898704 -0.221658
C79   C     C_R   0.306926 0.785450 0.099245 -0.102845
C80   C     C_R   0.676039 0.801897 0.895200 -0.238668
H41   H     H_    0.728402 0.248060 0.178369 0.151945
H42   H     H_    0.156630 0.312259 0.820934 0.151961
H43   H     H_    0.314123 0.791198 0.175509 0.168419
H44   H     H_    0.670403 0.809308 0.820217 0.156561
C81   C     C_R   0.375414 0.755091 0.104720 -0.206263
C82   C     C_R   0.631736 0.755809 0.895991 -0.252344
C83   C     C_R   0.757869 0.190261 0.095750 -0.202827
C84   C     C_R   0.107770 0.264081 0.894943 -0.211900
H45   H     H_    0.428754 0.737199 0.183740 0.152160
H46   H     H_    0.596033 0.730478 0.822667 0.156772
H47   H     H_    0.816666 0.174000 0.173562 0.149071
H48   H     H_    0.053325 0.246716 0.815585 0.145365
C85   C     C_R   0.364044 0.740210 0.007337 -0.164972
C86   C     C_R   0.642927 0.739727 0.992562 -0.056132
C87   C     C_R   0.742775 0.176369 0.995117 -0.104091
C88   C     C_R   0.126328 0.243919 0.993421 -0.121863
C89   C     C_R   0.395293 0.550540 0.466678 -0.172207
C90   C     C_R   0.398529 0.550817 0.376248 -0.159193
C91   C     C_R   0.101612 0.051337 0.623565 -0.157075
C92   C     C_R   0.106873 0.051234 0.534532 -0.164807
H49   H     H_    0.396494 0.589656 0.501571 0.111438
H50   H     H_    0.402443 0.590050 0.345191 0.112662
H51   H     H_    0.095935 0.090513 0.653209 0.109654
H52   H     H_    0.104719 0.090370 0.499003 0.111414
C93   C     C_R   0.409896 0.501151 0.338030 0.128090
C94   C     C_R   0.403407 0.500599 0.518363 0.154497
C95   C     C_R   0.101920 0.001292 0.484666 0.141529
C96   C     C_R   0.090868 0.001520 0.662246 0.140971
C97   C     C_R   0.395197 0.451429 0.373327 -0.184122
C98   C     C_R   0.393299 0.451059 0.464674 -0.078743
C99   C     C_R   0.112998 0.951893 0.539281 -0.177134
C100  C     C_R   0.107554 0.952005 0.628345 -0.150013
H53   H     H_    0.395429 0.412449 0.339002 0.174900
H54   H     H_    0.393145 0.411726 0.498131 0.137110
H55   H     H_    0.116051 0.912725 0.507469 0.115432
H56   H     H_    0.107122 0.912936 0.662458 0.162183
O1    O     O_3   0.298923 0.764036 0.816048 -0.638744
C101  C     C_3   0.385501 0.783393 0.839290 0.289280
H57   H     H_    0.443916 0.754544 0.894887 0.095209
H58   H     H_    0.403180 0.825044 0.877577 0.098000
C102  C     C_3   0.377065 0.787200 0.732050 -0.892664
H59   H     H_    0.317646 0.814808 0.673321 0.263306
H60   H     H_    0.443673 0.803972 0.748506 0.222459
H61   H     H_    0.363859 0.745795 0.694412 0.240996
O2    O     O_3   0.676101 0.765870 0.168167 -0.669780
C103  C     C_3   0.606420 0.800751 0.157395 0.186012
H62   H     H_    0.535180 0.787513 0.086252 0.098753
H63   H     H_    0.617335 0.844548 0.145699 0.152631
C104  C     C_3   0.610507 0.797237 0.261902 -0.710113
H64   H     H_    0.679987 0.812633 0.333471 0.264114
H65   H     H_    0.553451 0.822744 0.252634 0.267649
H66   H     H_    0.601151 0.754021 0.277629 0.220727
O3    O     O_3   0.646235 0.191067 0.794630 -0.627697
C105  C     C_3   0.681402 0.238969 0.775688 0.311884
H67   H     H_    0.758368 0.244802 0.841878 0.075808
H68   H     H_    0.642251 0.276205 0.771437 0.126352
C106  C     C_3   0.668633 0.233914 0.666295 -0.955716
H69   H     H_    0.592650 0.227020 0.599395 0.273654
H70   H     H_    0.692330 0.272332 0.648953 0.225437
H71   H     H_    0.711440 0.199232 0.669324 0.237088
O4    O     O_3   0.191868 0.264977 0.185938 -0.642719
C107  C     C_3   0.103866 0.279639 0.164353 0.219958
H72   H     H_    0.046671 0.251059 0.103784 0.098550
H73   H     H_    0.084352 0.322497 0.132582 0.129101
C108  C     C_3   0.111309 0.276315 0.271069 -0.717881
H74   H     H_    0.166711 0.305116 0.333119 0.285600
H75   H     H_    0.042394 0.287485 0.255108 0.246357
H76   H     H_    0.129927 0.233861 0.304354 0.215160
O5    O     O_3   0.511825 0.242335 0.801856 -0.625566
C109  C     C_3   0.436387 0.227646 0.808267 0.237520
H77   H     H_    0.440783 0.249621 0.876656 0.093453
H78   H     H_    0.436126 0.182516 0.820386 0.105581
C110  C     C_3   0.343073 0.243259 0.700843 -0.827224
H79   H     H_    0.335384 0.221613 0.630436 0.261891
H80   H     H_    0.283120 0.231525 0.704531 0.204979
H81   H     H_    0.340768 0.288289 0.687548 0.254692
O6    O     O_3   0.336612 0.321334 0.202117 -0.630923
C111  C     C_3   0.396269 0.275815 0.260426 0.280789
H82   H     H_    0.423577 0.257842 0.215278 0.060205
H83   H     H_    0.359028 0.242963 0.273278 0.141120
C112  C     C_3   0.480320 0.294198 0.373851 -0.941500
H84   H     H_    0.455462 0.310656 0.422350 0.270805
H85   H     H_    0.527364 0.258585 0.418039 0.220412
H86   H     H_    0.521703 0.326249 0.366372 0.238952
O7    O     O_3   0.151524 0.815222 0.798537 -0.632726
C113  C     C_3   0.091180 0.770887 0.734170 0.278760
H87   H     H_    0.053570 0.755052 0.769067 0.069201
H88   H     H_    0.130321 0.736239 0.729277 0.129901
C114  C     C_3   0.018175 0.790613 0.617077 -0.926334
H89   H     H_    0.054723 0.804976 0.580157 0.256547
H90   H     H_    0.969561 0.756396 0.566235 0.221017
H91   H     H_    0.976056 0.824796 0.617195 0.255428
O8    O     O_3   0.775524 0.860812 0.169521 -0.627217
C115  C     C_3   0.844401 0.838076 0.274338 0.270636
H92   H     H_    0.898899 0.814601 0.273543 0.056436
H93   H     H_    0.813059 0.810782 0.304453 0.168641
C116  C     C_3   0.891945 0.884714 0.357443 -0.874929
H94   H     H_    0.841010 0.903359 0.370809 0.285524
H95   H     H_    0.953689 0.869031 0.437286 0.207343
H96   H     H_    0.916093 0.916904 0.326479 0.264221
N33   N     N_R   0.140601 0.412886 0.461404 0.243112
O9    O     O_R   0.122252 0.363841 0.478952 -0.389892
O10   O     O_R   0.221139 0.422147 0.476424 -0.441777
N34   N     N_R   0.944568 0.414430 0.271282 0.244655
O11   O     O_R   0.894550 0.425081 0.166116 -0.403216
O12   O     O_R   0.946445 0.364435 0.303136 -0.387725
N35   N     N_R   0.642792 0.914173 0.458033 0.238161
O13   O     O_R   0.625452 0.864458 0.473697 -0.389210
O14   O     O_R   0.723003 0.924633 0.472863 -0.428309
N36   N     N_R   0.443393 0.912964 0.276878 0.237624
O15   O     O_R   0.392280 0.921477 0.170899 -0.413154
O16   O     O_R   0.444151 0.864309 0.313298 -0.417818

loop_
_geom_bond_atom_site_label_1
_geom_bond_atom_site_label_2
_geom_bond_distance
_ccdc_geom_bond_type
N13   Ni6   1.856477 S    
C28   C40   1.385587 A    
C32   N32   1.323084 A    
C113  H88   1.113654 S    
C61   H33   1.112074 S    
C77   H41   1.080845 S    
C102  H59   1.110830 S    
C6    H6    1.080979 S    
C37   C85   1.445098 S    
C75   C79   1.398363 A    
C4    H4    1.075448 S    
C21   C45   1.386336 A    
C10   C42   1.384770 A    
C11   C43   1.383325 A    
C78   C84   1.375360 A    
C51   C52   1.368506 A    
C16   C48   1.381286 A    
C19   H19   1.079813 S    
O2    C103  1.410862 S    
N22   Ni2   1.856487 S    
C106  H71   1.110091 S    
C7    H7    1.078768 S    
C32   C36   1.375909 A    
C111  C112  1.520611 S    
N21   Ni1   1.860843 S    
C114  H89   1.110343 S    
O5    C109  1.412819 S    
N7    N27   1.376605 A    
C1    H1    1.077540 S    
N6    N26   1.376607 A    
C15   N15   1.325898 A    
C67   C69   1.391242 A    
C68   C70   1.398909 A    
C112  H84   1.110764 S    
C3    H3    1.076078 S    
C73   C77   1.400088 A    
C60   N36   1.434458 S    
N33   O9    1.300580 A    
C103  H63   1.114186 S    
C6    C38   1.377952 A    
C59   N35   1.435295 S    
C54   C58   1.416670 A    
C81   C85   1.393839 A    
C80   H44   1.078456 S    
C43   C95   1.459780 S    
N18   Ni6   1.859373 S    
C108  H76   1.110904 S    
C17   N17   1.331459 A    
C22   N22   1.340598 A    
C109  C110  1.521323 S    
N11   N19   1.383969 A    
C116  H94   1.111494 S    
C41   C93   1.455536 S    
C69   C73   1.405707 A    
C115  H93   1.105222 S    
C20   N20   1.332185 A    
C3    N3    1.325081 A    
C104  H65   1.109205 S    
C49   C53   1.394828 A    
C111  H82   1.114458 S    
C90   C93   1.399931 A    
C29   N29   1.328461 A    
C10   N10   1.331047 A    
C84   C88   1.395544 A    
C32   H32   1.072676 S    
N34   O11   1.301192 A    
C31   N31   1.338595 A    
N5    Ni5   1.861027 S    
N32   Ni3   1.860911 S    
N20   Ni8   1.859373 S    
C101  H57   1.110562 S    
C74   C78   1.403730 A    
C71   C75   1.420895 A    
C49   C62   1.498157 S    
C14   C46   1.381478 A    
C30   N30   1.329381 A    
C110  H79   1.110756 S    
C19   C43   1.380248 A    
C95   C99   1.401646 A    
C98   H54   1.080397 S    
N2    Ni2   1.859710 S    
N19   Ni7   1.856873 S    
C64   H36   1.112373 S    
C52   C56   1.395099 A    
C50   C54   1.398030 A    
C7    N7    1.337368 A    
C34   C73   1.468553 S    
C8    N8    1.327931 A    
O7    C113  1.417418 S    
C27   C39   1.388484 A    
C102  H60   1.109949 S    
C28   N28   1.336850 A    
C2    H2    1.080340 S    
C26   N26   1.339112 A    
C66   O2    1.380395 S    
C57   N33   1.433933 S    
C56   C60   1.419258 A    
C25   N25   1.331691 A    
N30   Ni1   1.860911 S    
C8    C40   1.372902 A    
C104  H66   1.110133 S    
C108  H74   1.110859 S    
N16   Ni7   1.860835 S    
C23   H23   1.078114 S    
C81   H45   1.079675 S    
C111  H83   1.111912 S    
C82   C86   1.391375 A    
C18   C42   1.382835 A    
C14   N14   1.325447 A    
C31   H31   1.073168 S    
C22   H22   1.078734 S    
N8    Ni8   1.856557 S    
C11   H11   1.080275 S    
C99   C100  1.384319 A    
C18   N18   1.328859 A    
C91   H51   1.080358 S    
C72   C76   1.413562 A    
C63   C64   1.504816 S    
C12   N12   1.336322 A    
C1    N1    1.330322 A    
C42   C94   1.455853 S    
C40   C88   1.459809 S    
C30   H30   1.076308 S    
C1    C33   1.395335 A    
N33   O10   1.300164 A    
C23   C47   1.385358 A    
C29   H29   1.067583 S    
C105  H67   1.115013 S    
C15   H15   1.080766 S    
C91   C96   1.400859 A    
C107  C108  1.520681 S    
C11   N11   1.334738 A    
C106  H69   1.109118 S    
O3    C105  1.417838 S    
N1    N29   1.376607 A    
N13   N21   1.384210 A    
N25   Ni6   1.858532 S    
C89   C94   1.402121 A    
C79   C81   1.363520 A    
N14   Ni5   1.860835 S    
C26   H26   1.079751 S    
C116  H95   1.107707 S    
N27   Ni8   1.858532 S    
C94   C98   1.401268 A    
C107  H73   1.114919 S    
C68   O4    1.386348 S    
C50   C61   1.501596 S    
C65   O1    1.386314 S    
C115  H92   1.112849 S    
O8    C115  1.415488 S    
C92   C95   1.401967 A    
C97   H53   1.079883 S    
C62   H38   1.111982 S    
O4    C107  1.412890 S    
N36   O16   1.300001 A    
C51   C55   1.395217 A    
O1    C101  1.411492 S    
C100  H56   1.080612 S    
C12   H12   1.072425 S    
N31   Ni4   1.856439 S    
C8    H8    1.080224 S    
C70   O6    1.384228 S    
C7    C39   1.402062 A    
C35   C76   1.462634 S    
C101  C102  1.520158 S    
C39   C87   1.473354 S    
C104  H64   1.110561 S    
N9    Ni2   1.858655 S    
N23   Ni3   1.860843 S    
N11   Ni4   1.858655 S    
C18   H18   1.079800 S    
C33   C74   1.468106 S    
C109  H78   1.114267 S    
C110  H80   1.110570 S    
C6    N6    1.323889 A    
N15   N23   1.384210 A    
C49   C50   1.368522 A    
C90   H50   1.080573 S    
C46   C54   1.461707 S    
C21   H21   1.077500 S    
C66   C72   1.417316 A    
C36   C75   1.453077 S    
C45   C53   1.463576 S    
N15   Ni8   1.856477 S    
C65   C85   1.402690 A    
C10   H10   1.080105 S    
C114  H90   1.110642 S    
C80   C82   1.363077 A    
C4    C36   1.390097 A    
C53   C57   1.421095 A    
C47   C55   1.463102 S    
C61   C62   1.504928 S    
C102  H61   1.110863 S    
C79   H43   1.077677 S    
C77   C83   1.385407 A    
C4    N4    1.325838 A    
N16   N24   1.384209 A    
C13   N13   1.324552 A    
C59   C60   1.422330 A    
C2    N2    1.334955 A    
C24   H24   1.073298 S    
C27   N27   1.325049 A    
N10   Ni1   1.856152 S    
N3    Ni3   1.857095 S    
C68   C88   1.404169 A    
C20   H20   1.078173 S    
N17   Ni5   1.856873 S    
C57   C58   1.422342 A    
C84   H48   1.080626 S    
N3    N31   1.376607 A    
C97   C98   1.380618 A    
C16   N16   1.326268 A    
N6    Ni6   1.856557 S    
C113  H87   1.113308 S    
C114  H91   1.110288 S    
N9    N17   1.383969 A    
C52   C63   1.499707 S    
C99   H55   1.080641 S    
C103  H62   1.108724 S    
C13   C45   1.379877 A    
C44   C96   1.459897 S    
C24   C48   1.391149 A    
C28   H28   1.078763 S    
C67   O3    1.380519 S    
C23   N23   1.341982 A    
N12   N20   1.383968 A    
C105  C106  1.516802 S    
C62   H34   1.112389 S    
C17   C41   1.383998 A    
N5    N25   1.376605 A    
C93   C97   1.400825 A    
C38   C86   1.455543 S    
C76   C80   1.400710 A    
C65   C71   1.393454 A    
C91   C92   1.381841 A    
C106  H70   1.110478 S    
N24   Ni4   1.856487 S    
C61   H37   1.112403 S    
C115  C116  1.520514 S    
C83   H47   1.080098 S    
C51   C64   1.496221 S    
C96   C100  1.402404 A    
C116  H96   1.107470 S    
C21   N21   1.339101 A    
C112  H86   1.108297 S    
N8    N28   1.376607 A    
C105  H68   1.114334 S    
C69   O5    1.384038 S    
C58   N34   1.436526 S    
C64   H40   1.107242 S    
C2    C34   1.381739 A    
N14   N22   1.384209 A    
C5    N5    1.320224 A    
N7    Ni7   1.861027 S    
C15   C47   1.374512 A    
N35   O14   1.301255 A    
C103  C104  1.519403 S    
C9    H9    1.069687 S    
C72   O8    1.390122 S    
C27   H27   1.072201 S    
C22   C46   1.395197 A    
C12   C44   1.388893 A    
N28   Ni7   1.855914 S    
C89   H49   1.080019 S    
C66   C86   1.409578 A    
C25   C37   1.384186 A    
C63   H39   1.112420 S    
C108  H75   1.110265 S    
C82   H46   1.081171 S    
C63   H35   1.112263 S    
C83   C87   1.405104 A    
C67   C87   1.420605 A    
N29   Ni2   1.856439 S    
C24   N24   1.341480 A    
C26   C38   1.382824 A    
C13   H13   1.080643 S    
C109  H77   1.113895 S    
C30   C34   1.387435 A    
C110  H81   1.111097 S    
C55   C59   1.417599 A    
C9    C41   1.387075 A    
C48   C56   1.461415 S    
C17   H17   1.078265 S    
C29   C33   1.385558 A    
C71   O7    1.382307 S    
C78   H42   1.078795 S    
C5    H5    1.080228 S    
C14   H14   1.076016 S    
C3    C35   1.386212 A    
C16   H16   1.077353 S    
C19   N19   1.331236 A    
C20   C44   1.386840 A    
N34   O12   1.300233 A    
C89   C90   1.380958 A    
C70   C74   1.423173 A    
N35   O13   1.300346 A    
N10   N18   1.383968 A    
N1    Ni1   1.857095 S    
C25   H25   1.079414 S    
N36   O15   1.301151 A    
N4    N32   1.376606 A    
C101  H58   1.115417 S    
N26   Ni5   1.855914 S    
C112  H85   1.109001 S    
O6    C111  1.419099 S    
N12   Ni3   1.856152 S    
C5    C37   1.370675 A    
C107  H72   1.113056 S    
C31   C35   1.393311 A    
C92   H52   1.080185 S    
C9    N9    1.334175 A    
N4    Ni4   1.859710 S    
C113  C114  1.519405 S    
N2    N30   1.376606 A    
