data_mof_unit_3002.cif
_audit_creation_date              2012-12-11T17:29:30-0500
_audit_creation_method            fapswitch 2.2
_symmetry_space_group_name_H-M    P1
_symmetry_Int_Tables_number       1
_space_group_crystal_system       triclinic
_cell_length_a                    18.873345
_cell_length_b                    18.806959
_cell_length_c                    20.49286
_cell_angle_alpha                 107.407411
_cell_angle_beta                  106.488494
_cell_angle_gamma                 110.619982
_cell_volume                      5846.90436281

loop_
_atom_site_label
_atom_site_type_symbol
_atom_type_description
_atom_site_fract_x
_atom_site_fract_y
_atom_site_fract_z
_atom_type_partial_charge
C1    C     C_R   0.088425 0.086661 0.354966 -0.136796
C2    C     C_R   0.238571 0.073469 0.495623 -0.139004
C3    C     C_R   0.162769 0.189415 0.718932 -0.124662
C4    C     C_R   0.754512 0.929361 0.457106 -0.122614
C5    C     C_R   0.046988 0.798889 0.473238 -0.129934
C6    C     C_R   0.244166 0.211340 0.725838 0.075373
C7    C     C_R   0.028387 0.767819 0.522822 0.074265
C8    C     C_R   0.242607 0.004074 0.451962 0.084950
C9    C     C_R   0.985281 0.978840 0.726847 0.035606
C10   C     C_R   0.053884 0.704009 0.612857 -0.257810
C11   C     C_R   0.067779 0.723522 0.554987 0.115271
C12   C     C_R   0.745140 0.001358 0.468849 0.053076
C13   C     C_R   0.117547 0.697406 0.524953 -0.252693
C14   C     C_R   0.143049 0.642729 0.543798 0.137414
C15   C     C_R   0.121481 0.616020 0.595908 0.028158
C16   C     C_R   0.846718 0.779450 0.288521 -0.125605
C17   C     C_R   0.080588 0.650008 0.633588 0.141347
C18   C     C_R   0.182444 0.607947 0.505494 -0.200371
C19   C     C_R   0.190623 0.539256 0.511424 -0.206504
C20   C     C_R   0.160925 0.506368 0.556843 0.132660
C21   C     C_R   0.132480 0.548705 0.603838 0.035713
C22   C     C_R   0.105612 0.517252 0.651696 0.119440
C23   C     C_R   0.770563 0.728998 0.285770 0.047351
C24   C     C_R   0.074525 0.558236 0.696154 -0.208261
C25   C     C_R   0.061056 0.623698 0.686417 -0.204587
C26   C     C_R   0.147708 0.425891 0.547662 -0.247062
C27   C     C_R   0.107147 0.388025 0.585408 0.131300
C28   C     C_R   0.004512 0.239950 0.568328 0.527142
C29   C     C_R   0.099918 0.439342 0.646384 -0.273580
C30   C     C_R   0.301723 0.928664 0.381493 -0.244187
C31   C     C_R   0.305470 0.005366 0.423015 0.105697
C32   C     C_R   0.373250 0.082671 0.442060 -0.263169
C33   C     C_R   0.442202 0.083577 0.429491 0.162858
C34   C     C_R   0.063763 0.294274 0.553232 -0.087719
C35   C     C_R   0.440995 0.006037 0.393795 0.030711
C36   C     C_R   0.368388 0.928508 0.365625 0.088835
C37   C     C_R   0.515400 0.160472 0.458986 -0.213265
C38   C     C_R   0.589693 0.160204 0.461102 -0.212294
C39   C     C_R   0.590885 0.083117 0.433074 0.184969
C40   C     C_R   0.769935 0.772070 0.353362 -0.146632
C41   C     C_R   0.515286 0.005764 0.394809 -0.031532
C42   C     C_R   0.515760 0.927818 0.365591 -0.032533
C43   C     C_R   0.439903 0.850893 0.327035 0.545230
C44   C     C_R   0.366814 0.851695 0.329165 -0.380111
C45   C     C_R   0.239079 0.191094 0.653170 -0.128171
C46   C     C_R   0.666987 0.081668 0.450406 -0.258782
C47   C     C_R   0.667897 0.003985 0.431528 0.101091
C48   C     C_R   0.592715 0.928034 0.382588 -0.203345
C49   C     C_R   0.319864 0.243321 0.795875 0.116878
C50   C     C_R   0.312948 0.248101 0.863110 -0.178684
C51   C     C_R   0.384379 0.284127 0.930328 -0.256362
C52   C     C_R   0.083593 0.243058 0.506712 -0.221084
C53   C     C_R   0.464988 0.317956 0.932201 0.128236
C54   C     C_R   0.472834 0.306949 0.864265 0.560616
C55   C     C_R   0.399336 0.267794 0.795867 -0.387248
C56   C     C_R   0.967560 0.787853 0.535997 -0.127205
C57   C     C_R   0.673307 0.510181 0.125610 -0.158047
C58   C     C_R   0.732213 0.592741 0.180158 -0.192391
C59   C     C_R   0.591923 0.473328 0.121463 0.220761
C60   C     C_R   0.710947 0.639688 0.231290 0.144808
C61   C     C_R   0.631661 0.600519 0.230037 -0.181736
C62   C     C_R   0.573171 0.517776 0.176001 -0.183800
C63   C     C_R   0.112104 0.024334 0.239099 -0.000419
C64   C     C_R   0.822313 0.070015 0.523756 -0.138129
C65   C     C_R   0.116446 0.953927 0.193345 0.549978
C66   C     C_R   0.146380 0.960286 0.139084 -0.333637
C67   C     C_R   0.169034 0.933166 0.431156 -0.138637
C68   C     C_R   0.171993 0.035028 0.130174 0.191024
C69   C     C_R   0.180197 0.107589 0.183278 -0.175812
C70   C     C_R   0.149649 0.102245 0.236815 -0.256358
C71   C     C_R   0.130274 0.038720 0.925281 -0.167974
C72   C     C_R   0.094733 0.042871 0.858285 -0.180524
C73   C     C_R   0.090325 0.965437 0.933649 0.227606
C74   C     C_R   0.019178 0.974088 0.798246 0.151761
C75   C     C_R   0.981854 0.899390 0.805009 -0.189095
C76   C     C_R   0.016439 0.946272 0.289965 -0.103428
C77   C     C_R   0.017447 0.895332 0.872453 -0.182759
C78   C     C_R   0.009185 0.052524 0.718156 -0.126801
C79   C     C_R   0.068999 0.019052 0.289054 0.084826
C80   C     C_3   0.396795 0.734647 0.217103 0.175758
C81   C     C_3   0.328287 0.644548 0.189918 -0.258508
C82   C     C_3   0.283422 0.597077 0.103341 -1.022629
C83   C     C_3   0.566326 0.368405 0.817469 0.186244
C84   C     C_3   0.570451 0.306464 0.751984 -0.268869
C85   C     C_3   0.578768 0.339644 0.693627 -1.040729
C86   C     C_3   0.913767 0.291850 0.579140 0.116750
C87   C     C_3   0.874333 0.320439 0.630452 -0.242473
C88   C     C_3   0.830718 0.368046 0.603967 -1.037205
C89   C     C_R   0.941104 0.911864 0.654507 -0.126913
C90   C     C_3   0.135437 0.842441 0.205940 0.160876
C91   C     C_3   0.100808 0.757121 0.138262 -0.257406
C92   C     C_3   0.157358 0.716701 0.152243 -1.046776
H1    H     H_    0.137680 0.151198 0.378792 0.091031
H2    H     H_    0.200640 0.629258 0.466327 0.130913
H3    H     H_    0.707819 0.864399 0.419064 0.097523
H4    H     H_    0.214307 0.508149 0.476314 0.129999
H5    H     H_    0.159706 0.389942 0.504041 0.119883
H6    H     H_    0.054071 0.535101 0.733536 0.135757
H7    H     H_    0.250482 0.868398 0.366557 0.112199
H8    H     H_    0.376282 0.142425 0.472388 0.119226
H9    H     H_    0.516773 0.220498 0.485495 0.133876
H10   H     H_    0.647079 0.219970 0.489353 0.136916
H11   H     H_    0.724679 0.140994 0.484434 0.113359
H12   H     H_    0.935313 0.767544 0.567800 0.089342
H13   H     H_    0.873779 0.761384 0.250679 0.089982
H14   H     H_    0.593162 0.868163 0.363657 0.157186
H15   H     H_    0.793421 0.619878 0.180748 0.116378
H16   H     H_    0.690199 0.477003 0.084703 0.138752
H17   H     H_    0.404325 0.258560 0.743242 0.132947
H18   H     H_    0.613058 0.634681 0.268498 0.118475
H19   H     H_    0.376446 0.289876 0.981644 0.151337
H20   H     H_    0.510664 0.490391 0.173067 0.121743
H21   H     H_    0.252682 0.226007 0.864878 0.117189
H22   H     H_    0.187141 0.093947 0.971168 0.124602
H23   H     H_    0.144137 0.870109 0.387323 0.079074
H24   H     H_    0.200613 0.165848 0.177304 0.129123
H25   H     H_    0.924423 0.844967 0.759096 0.114312
H26   H     H_    0.141242 0.904262 0.098454 0.141927
H27   H     H_    0.985842 0.838857 0.878487 0.121881
H28   H     H_    0.727654 0.745581 0.375999 0.094105
H29   H     H_    0.135248 0.263421 0.491804 0.125026
H30   H     H_    0.993947 0.881082 0.252489 0.158603
H31   H     H_    0.289425 0.198983 0.636315 0.097770
H32   H     H_    0.906093 0.845907 0.640308 0.085233
H33   H     H_    0.077623 0.414082 0.681825 0.173711
H34   H     H_    0.035399 0.115691 0.762065 0.092029
H35   H     H_    0.031084 0.650308 0.716915 0.132171
H36   H     H_    0.443093 0.731351 0.194409 0.122909
H37   H     H_    0.367844 0.768884 0.192584 0.078396
H38   H     H_    0.356892 0.609262 0.212287 0.205237
H39   H     H_    0.281528 0.647281 0.212139 0.198791
H40   H     H_    0.253777 0.630863 0.079633 0.272701
H41   H     H_    0.233563 0.532360 0.085542 0.271849
H42   H     H_    0.328668 0.591475 0.080005 0.269021
H43   H     H_    0.310549 0.791986 0.306613 0.157196
H44   H     H_    0.628212 0.426969 0.849578 0.125825
H45   H     H_    0.278517 0.139309 0.511876 0.085546
H46   H     H_    0.519799 0.389332 0.796334 0.082121
H47   H     H_    0.625509 0.297080 0.775164 0.208737
H48   H     H_    0.513124 0.243749 0.723145 0.198535
H49   H     H_    0.523077 0.347102 0.668064 0.265473
H50   H     H_    0.582723 0.293885 0.647658 0.276200
H51   H     H_    0.636627 0.401743 0.720810 0.270442
H52   H     H_    0.863211 0.240673 0.522710 0.077674
H53   H     H_    0.946721 0.344981 0.567779 0.131716
H54   H     H_    0.827910 0.264083 0.630381 0.189950
H55   H     H_    0.924056 0.363085 0.689613 0.207161
H56   H     H_    0.145111 0.202070 0.764784 0.087684
H57   H     H_    0.877975 0.429319 0.611731 0.276615
H58   H     H_    0.796380 0.381253 0.637956 0.273268
H59   H     H_    0.785391 0.329797 0.543055 0.262749
H60   H     H_    0.127035 0.100132 0.853719 0.109570
H61   H     H_    0.149592 0.157930 0.272244 0.141216
H62   H     H_    0.138298 0.830900 0.256328 0.119522
H63   H     H_    0.201196 0.885692 0.218662 0.100705
H64   H     H_    0.036886 0.713494 0.128478 0.205526
H65   H     H_    0.095635 0.765948 0.086235 0.191550
H66   H     H_    0.221376 0.758743 0.161184 0.270143
H67   H     H_    0.091068 0.795785 0.450263 0.095037
H68   H     H_    0.130701 0.655130 0.102176 0.278973
H69   H     H_    0.161562 0.704968 0.202860 0.262622
H70   H     H_    0.836016 0.134172 0.550756 0.142131
H71   H     H_    0.018787 0.726898 0.638888 0.122158
H72   H     H_    0.131241 0.713254 0.481931 0.116619
N1    N     N_R   0.052570 0.055840 0.395080 -0.037680
N2    N     N_2   0.523334 0.400118 0.057049 -0.103397
N3    N     N_2   0.168128 0.033621 0.059918 -0.095299
N4    N     N_R   0.834730 0.954500 0.499860 -0.044037
N5    N     N_2   0.112142 0.964333 0.005111 -0.094643
N6    N     N_R   0.890190 0.849120 0.355200 -0.041196
N7    N     N_R   0.997110 0.161210 0.539740 -0.088109
N8    N     N_R   0.841940 0.845190 0.395070 -0.039527
N9    N     N_R   0.045360 0.165140 0.499870 -0.066294
N10   N     N_R   0.877490 0.041590 0.539730 -0.038360
N11   N     N_R   0.009810 0.968740 0.355210 -0.052288
N12   N     N_R   0.954640 0.834860 0.500130 -0.040546
N13   N     N_R   0.158060 0.154810 0.604930 -0.043330
N14   N     N_R   0.122510 0.958410 0.460270 -0.037913
N15   N     N_R   0.990190 0.031260 0.644790 -0.036926
N16   N     N_R   0.947430 0.944160 0.604920 -0.039687
N17   N     N_R   0.165270 0.045500 0.500140 -0.037541
N18   N     N_R   0.109810 0.150880 0.644800 -0.042206
N19   N     N_R   0.002890 0.838790 0.460260 -0.041896
N20   N     N_2   0.538379 0.376524 0.001272 -0.069487
Ni1   Ni    Ni4+2 0.104370 0.104380 0.500010 0.201424
Ni2   Ni    Ni4+2 0.895630 0.895620 0.499990 0.214572
Ni3   Ni    Ni4+2 0.006290 0.904630 0.408560 0.208691
Ni4   Ni    Ni4+2 0.993710 0.095370 0.591440 0.251173
O1    O     O_3   0.439689 0.774290 0.297468 -0.671711
O2    O     O_3   0.553497 0.333316 0.868059 -0.668003
O3    O     O_3   0.967913 0.264017 0.614377 -0.686113
O4    O     O_3   0.079032 0.875664 0.192736 -0.696544

loop_
_geom_bond_atom_site_label_1
_geom_bond_atom_site_label_2
_ccdc_geom_bond_type
C92   H69   S    
N12   N19   A    
C66   C68   A    
C87   C88   S    
C63   C65   A    
C69   H24   S    
C10   H71   S    
C87   H54   S    
C29   H33   S    
C27   C29   A    
C70   H61   S    
C80   O1    S    
C14   C18   A    
C83   O2    S    
C19   C20   A    
C75   H25   S    
C76   C79   A    
C3    C6    A    
C85   H51   S    
C81   C82   S    
C81   H38   S    
C86   H52   S    
C39   C41   A    
C90   O4    S    
C53   C54   A    
C45   H31   S    
C7    C11   S    
N7    N9    A    
N9    Ni1   S    
C86   O3    S    
C87   H55   S    
N7    Ni4   S    
C56   N12   A    
C83   C84   S    
C24   H6    S    
C22   C29   A    
C18   C19   A    
C30   C31   A    
C12   C64   A    
C57   C59   A    
C10   C17   A    
C58   C60   A    
C23   C40   A    
N13   Ni1   S    
C92   H66   S    
C58   H15   S    
C41   C42   A    
C89   N16   A    
C67   H23   S    
N10   Ni4   S    
C46   C47   A    
C48   H14   S    
C31   C32   A    
C84   H47   S    
N8    Ni2   S    
C68   C69   A    
C72   H60   S    
N6    Ni3   S    
C65   O4    S    
C64   N10   A    
C90   H62   S    
C45   N13   A    
C44   H43   S    
C28   C34   A    
C3    H56   S    
C13   C14   A    
C55   H17   S    
C2    H45   S    
C61   C62   A    
C7    C56   A    
C12   C47   S    
C61   H18   S    
C57   C58   A    
C27   C34   S    
C23   C60   S    
N4    Ni2   S    
C74   C75   A    
C6    C45   A    
C78   N15   A    
N2    N20   D    
C24   C25   A    
C56   H12   S    
N3    N5    D    
C53   N20   S    
C9    C89   A    
C91   C92   S    
C5    C7    A    
C16   N6    A    
N17   Ni1   S    
C86   C87   S    
C42   C48   A    
N15   Ni4   S    
C80   H36   S    
C5    H67   S    
C49   C55   A    
C30   H7    S    
C88   H57   S    
C33   C37   A    
C4    N4    A    
C71   H22   S    
C60   C61   A    
C51   C53   A    
C35   C36   A    
C82   H42   S    
N4    N10   A    
C43   C44   A    
C37   C38   A    
N19   Ni3   S    
C4    H3    S    
C52   H29   S    
C28   N7    A    
C47   C48   A    
C63   C70   A    
C1    N1    A    
C20   C26   A    
C50   C51   A    
C26   C27   A    
C62   H20   S    
N18   Ni4   S    
C84   C85   S    
C75   C77   A    
C43   O1    S    
C83   H44   S    
C59   N2    S    
N16   Ni2   S    
C16   H13   S    
C39   C46   A    
C85   H49   S    
N14   Ni3   S    
C64   H70   S    
C40   H28   S    
C65   C66   A    
C16   C23   A    
C66   H26   S    
C1    C79   A    
C88   H59   S    
C22   C24   A    
C36   C44   A    
C4    C12   A    
C42   C43   A    
C73   N5    S    
C78   H34   S    
C28   O3    S    
C40   N8    A    
C72   C74   A    
C13   H72   S    
C71   C73   A    
C15   C17   A    
C54   C55   A    
C59   C62   A    
C51   H19   S    
C80   H37   S    
C54   O2    S    
C8    C31   S    
C88   H58   S    
C76   N11   A    
C2    C8    A    
C80   C81   S    
C77   H27   S    
C67   N14   A    
C85   H50   S    
N12   Ni2   S    
C63   C79   S    
C89   H32   S    
N1    N11   A    
C46   H11   S    
C34   C52   A    
C30   C36   A    
C92   H68   S    
C50   H21   S    
C17   C25   A    
C32   C33   A    
C82   H41   S    
C25   H35   S    
C76   H30   S    
C91   H64   S    
C38   H10   S    
C37   H9    S    
C11   C13   A    
C90   C91   S    
C38   C39   A    
N6    N8    A    
C18   H2    S    
C33   C35   A    
C5    N19   A    
C9    C78   A    
C6    C49   S    
C69   C70   A    
C35   C41   A    
C3    N18   A    
N1    Ni1   S    
C91   H65   S    
N14   N17   A    
C81   H39   S    
C10   C11   A    
C26   H5    S    
N11   Ni3   S    
N15   N16   A    
C68   N3    S    
C32   H8    S    
C15   C21   A    
C57   H16   S    
C71   C72   A    
C20   C21   A    
C84   H48   S    
C8    C67   A    
C1    H1    S    
C49   C50   A    
C9    C74   S    
C86   H53   S    
C73   C77   A    
C14   C15   A    
C90   H63   S    
C21   C22   A    
C82   H40   S    
C52   N9    A    
C2    N17   A    
C83   H46   S    
C19   H4    S    
N13   N18   A    
