data_mof_unit_4558.cif
_audit_creation_date              2012-12-10T19:46:51-0500
_audit_creation_method            fapswitch 2.2
_symmetry_space_group_name_H-M    P1
_symmetry_Int_Tables_number       1
_space_group_crystal_system       triclinic
_cell_length_a                    10.878475
_cell_length_b                    10.861111
_cell_length_c                    13.139679
_cell_angle_alpha                 89.914446
_cell_angle_beta                  89.710715
_cell_angle_gamma                 89.027842
_cell_volume                      1552.23882571

loop_
_atom_site_label
_atom_site_type_symbol
_atom_type_description
_atom_site_fract_x
_atom_site_fract_y
_atom_site_fract_z
_atom_type_partial_charge
C1    C     C_R   0.493416 0.259842 0.500147 0.874372
C2    C     C_R   0.506630 0.740158 0.499859 0.873420
C3    C     C_R   0.872964 0.491302 0.500262 -0.080154
C4    C     C_R   0.127025 0.508615 0.499693 -0.080693
C5    C     C_R   0.940817 0.441910 0.582322 -0.031595
C6    C     C_R   0.059177 0.557793 0.417523 -0.032666
C7    C     C_R   0.183705 0.242289 0.288447 -0.204924
C8    C     C_R   0.815760 0.757665 0.712209 -0.206661
C9    C     C_R   0.253012 0.184600 0.365360 0.535811
C10   C     C_R   0.746935 0.815731 0.635077 0.535528
C11   C     C_R   0.364100 0.122749 0.339851 0.013475
C12   C     C_R   0.635584 0.877215 0.660355 0.014364
C13   C     C_R   0.401431 0.115578 0.237559 -0.230848
C14   C     C_R   0.597660 0.884029 0.762512 -0.230991
C15   C     C_R   0.330961 0.172252 0.161621 -0.138523
C16   C     C_R   0.667733 0.827203 0.838602 -0.138427
C17   C     C_R   0.222472 0.235796 0.187049 -0.196317
C18   C     C_R   0.776370 0.763783 0.813460 -0.195659
C19   C     C_R   0.450717 0.934537 0.419061 -0.279269
C20   C     C_R   0.549316 0.065476 0.580980 -0.277453
C21   C     C_R   0.508206 0.872781 0.499555 -0.043954
C22   C     C_R   0.491812 0.127226 0.500482 -0.043880
C23   C     C_R   0.259673 0.509094 0.499982 0.859916
C24   C     C_R   0.740320 0.490864 0.500010 0.859937
C25   C     C_R   0.560692 0.938211 0.580366 0.050980
C26   C     C_R   0.439257 0.061798 0.419705 0.049849
C27   C     C_1   0.499924 0.499999 0.173619 0.149023
C28   C     C_1   0.500073 0.500004 0.826381 0.148627
C29   C     C_1   0.499946 0.499995 0.050684 -0.091985
C30   C     C_1   0.500051 0.500012 0.949315 -0.092421
C31   C     C_R   0.193760 0.819669 0.266672 -0.151118
C32   C     C_R   0.807532 0.178309 0.731844 -0.152213
C33   C     C_R   0.152559 0.749136 0.348755 -0.162408
C34   C     C_R   0.849078 0.249368 0.650203 -0.163481
C35   C     C_R   0.115503 0.627545 0.333151 0.135907
C36   C     C_R   0.884497 0.371395 0.666235 0.134865
C37   C     C_R   0.121648 0.577092 0.234904 -0.122715
C38   C     C_R   0.876516 0.421694 0.764456 -0.122025
C39   C     C_R   0.167044 0.646517 0.153747 -0.142249
C40   C     C_R   0.830872 0.351658 0.845154 -0.142228
C41   C     C_R   0.202653 0.767976 0.169557 -0.102650
C42   C     C_R   0.796797 0.229811 0.828920 -0.102595
C43   C     C_R   0.932388 0.547613 0.418469 -0.197104
C44   C     C_R   0.067594 0.452230 0.581462 -0.195731
Cu1   Cu    Cu3+1 0.499990 0.499990 0.592680 0.994512
Cu2   Cu    Cu3+1 0.500010 0.500010 0.407320 0.994773
H1    H     H_    0.235715 0.822501 0.106398 0.124344
H2    H     H_    0.763464 0.174865 0.891727 0.124632
H3    H     H_    0.485623 0.066956 0.216864 0.149637
H4    H     H_    0.513279 0.932466 0.782973 0.149345
H5    H     H_    0.360694 0.167216 0.082984 0.141079
H6    H     H_    0.637526 0.831939 0.917130 0.141055
H7    H     H_    0.411014 0.882980 0.357417 0.158688
H8    H     H_    0.589053 0.117019 0.642632 0.159023
H9    H     H_    0.217817 0.914760 0.278099 0.133734
H10   H     H_    0.784520 0.083003 0.720081 0.133861
H11   H     H_    0.146266 0.790112 0.423697 0.099115
H12   H     H_    0.856838 0.208510 0.575282 0.102637
H13   H     H_    0.089976 0.484918 0.220889 0.111442
H14   H     H_    0.906901 0.514234 0.778812 0.111545
H15   H     H_    0.172522 0.606895 0.078289 0.124446
H16   H     H_    0.823951 0.391152 0.920592 0.124541
H17   H     H_    0.879499 0.587757 0.356581 0.163553
H18   H     H_    0.120474 0.412013 0.643322 0.163359
H19   H     H_    0.168442 0.280183 0.128115 0.140821
H20   H     H_    0.830011 0.719129 0.872500 0.140712
H21   H     H_    0.099777 0.292058 0.307634 0.136660
H22   H     H_    0.899642 0.707640 0.693396 0.135161
N1    N     N_1   0.500030 0.500030 0.268070 -0.135693
N2    N     N_1   0.499970 0.499970 0.731930 -0.135644
O1    O     O_R   0.499980 0.319630 0.578260 -0.581647
O2    O     O_R   0.500020 0.680370 0.421740 -0.581596
O3    O     O_R   0.500000 0.319650 0.421740 -0.586143
O4    O     O_R   0.500000 0.680350 0.578260 -0.586325
O5    O     O_R   0.319630 0.500000 0.578260 -0.590395
O6    O     O_R   0.680370 0.500000 0.421740 -0.590309
O7    O     O_R   0.319650 0.500020 0.421740 -0.565214
O8    O     O_R   0.680350 0.499980 0.578260 -0.565475
O9    O     O_3   0.216843 0.194761 0.466122 -0.596541
C45   C     C_3   0.115772 0.117808 0.483197 -0.382782
H23   H     H_    0.138018 0.020609 0.462335 0.154205
H24   H     H_    0.033022 0.151365 0.441499 0.160940
H25   H     H_    0.093051 0.119414 0.565579 0.201894
O10   O     O_3   0.783295 0.806267 0.534243 -0.596448
C46   C     C_3   0.889488 0.876641 0.518784 -0.380510
H26   H     H_    0.970621 0.833986 0.556983 0.162543
H27   H     H_    0.875308 0.973460 0.544658 0.151580
H28   H     H_    0.909891 0.879349 0.436021 0.201750

loop_
_geom_bond_atom_site_label_1
_geom_bond_atom_site_label_2
_ccdc_geom_bond_type
Cu1   O1    S    
Cu2   O6    S    
C43   H17   S    
C39   C41   A    
Cu1   Cu2   S    
C44   H18   S    
C3    C43   A    
C1    O1    A    
C19   C21   A    
C27   C29   S    
C20   C25   A    
C5    C36   S    
C40   H16   S    
C6    C35   S    
C7    C9    A    
C9    O9    S    
C19   C26   A    
Cu2   N1    S    
C7    C17   A    
C31   C33   A    
Cu1   O8    S    
C15   H5    S    
Cu2   O2    S    
C27   N1    T    
C19   H7    S    
C40   C42   A    
C1    C22   S    
C3    C24   S    
C45   H25   S    
C2    O2    A    
C46   H27   S    
C39   H15   S    
O10   C46   S    
C4    C6    A    
C23   O5    A    
C4    C23   S    
C24   O6    A    
C4    C44   A    
C11   C26   S    
C46   H26   S    
C8    C18   A    
Cu1   O4    S    
C32   C34   A    
C29   C30   T    
C2    C21   S    
C41   H1    S    
C42   H2    S    
C23   O7    A    
C9    C11   A    
C37   H13   S    
C10   C12   A    
C13   H3    S    
C20   H8    S    
C5    C44   A    
C12   C14   A    
C8    H22   S    
C6    C43   A    
C13   C15   A    
C38   H14   S    
C36   C38   A    
C46   H28   S    
C24   O8    A    
C15   C17   A    
C21   C25   A    
C33   H11   S    
C31   C41   A    
C35   C37   A    
Cu1   N2    S    
C8    C10   A    
C28   N2    T    
C16   H6    S    
C20   C22   A    
C45   H23   S    
C3    C5    A    
C2    O4    A    
Cu2   O7    S    
C18   H20   S    
C17   H19   S    
C12   C25   S    
Cu1   O5    S    
C1    O3    A    
C28   C30   S    
C37   C39   A    
C38   C40   A    
C11   C13   A    
C14   H4    S    
C10   O10   S    
C33   C35   A    
C45   H24   S    
C14   C16   A    
C7    H21   S    
O9    C45   S    
C34   C36   A    
C16   C18   A    
C22   C26   A    
C34   H12   S    
C32   C42   A    
C31   H9    S    
C32   H10   S    
Cu2   O3    S    
