data_mof_unit_3286.cif
_audit_creation_date              2012-12-10T17:39:04-0500
_audit_creation_method            fapswitch 2.2
_symmetry_space_group_name_H-M    P1
_symmetry_Int_Tables_number       1
_space_group_crystal_system       triclinic
_cell_length_a                    12.003248
_cell_length_b                    12.892234
_cell_length_c                    23.452398
_cell_angle_alpha                 91.403459
_cell_angle_beta                  87.391243
_cell_angle_gamma                 93.272803
_cell_volume                      3618.68114306

loop_
_atom_site_label
_atom_site_type_symbol
_atom_type_description
_atom_site_fract_x
_atom_site_fract_y
_atom_site_fract_z
_atom_type_partial_charge
C1    C     C_R   0.521632 0.700450 0.495826 0.935257
C2    C     C_R   0.477870 0.299652 0.499484 0.987579
C3    C     C_R   0.589766 0.447403 0.758476 0.484912
C4    C     C_R   0.395034 0.540535 0.240913 0.502768
C5    C     C_R   0.583447 0.442393 0.698840 0.347809
C6    C     C_R   0.396762 0.532456 0.300215 0.344879
C7    C     C_R   0.505711 0.501507 0.672444 -0.332441
C8    C     C_R   0.497846 0.512844 0.326436 -0.356998
C9    C     C_R   0.435664 0.566133 0.705227 0.454291
C10   C     C_R   0.598035 0.505499 0.292389 0.475527
C11   C     C_R   0.441228 0.569215 0.764190 -0.260347
C12   C     C_R   0.594901 0.518680 0.233480 -0.319173
C13   C     C_R   0.517252 0.510670 0.790711 0.048750
C14   C     C_R   0.494713 0.532131 0.207879 0.053327
C15   C     C_R   0.463129 0.188131 0.495445 -0.376575
C16   C     C_R   0.532908 0.811637 0.486288 -0.338822
C17   C     C_R   0.637717 0.967371 0.454871 0.486095
C18   C     C_R   0.364338 0.029140 0.524816 0.455845
C19   C     C_R   0.636432 0.862613 0.470447 0.336067
C20   C     C_R   0.370098 0.137232 0.523099 0.366275
C21   C     C_R   0.434624 0.865808 0.488857 0.477899
C22   C     C_R   0.546519 0.132472 0.466301 0.494818
C23   C     C_R   0.501177 0.499009 0.610455 0.995833
C24   C     C_R   0.499161 0.502422 0.389069 0.933282
C25   C     C_R   0.446413 0.973160 0.494786 -0.250314
C26   C     C_R   0.544240 0.024861 0.471242 -0.236992
C27   C     C_R   0.950791 0.404746 0.443414 0.434838
C28   C     C_R   0.048152 0.587504 0.560311 0.444424
C29   C     C_R   0.835508 0.416013 0.449191 -0.035016
C30   C     C_R   0.163796 0.577915 0.553581 -0.115611
C31   C     C_R   0.857858 0.537529 0.525987 0.031541
C32   C     C_R   0.141994 0.461291 0.474543 0.016767
C33   C     C_R   0.976101 0.531000 0.522486 -0.147890
C34   C     C_R   0.023526 0.465202 0.479282 -0.141101
C35   C     C_R   0.452120 0.442998 0.119902 0.619221
C36   C     C_R   0.562862 0.597461 0.878858 0.557475
C37   C     C_R   0.545751 0.611399 0.118305 0.541424
C38   C     C_R   0.469316 0.428858 0.879911 0.636297
C39   C     C_R   0.561468 0.605280 0.058726 -0.189891
C40   C     C_R   0.467716 0.428061 0.939738 -0.191507
C41   C     C_R   0.511811 0.518715 0.029317 -0.145867
C42   C     C_R   0.516476 0.515153 0.969188 -0.148887
C43   C     C_R   0.455869 0.436574 0.060046 -0.189206
C44   C     C_R   0.567942 0.599634 0.938555 -0.189044
C45   C     C_R   0.624483 0.683173 0.027902 0.460031
C46   C     C_R   0.418148 0.343441 0.970704 0.410977
C47   C     C_R   0.624311 0.682470 0.968185 0.446714
C48   C     C_R   0.406390 0.350419 0.030343 0.422204
H1    H     H_    0.219490 0.616414 0.583305 0.188680
H2    H     H_    0.779530 0.373323 0.421136 0.178481
H3    H     H_    0.385106 0.616372 0.789711 0.192940
H4    H     H_    0.670282 0.516049 0.206495 0.171992
N1    N     N_R   0.494954 0.529927 0.147133 -0.328973
N2    N     N_R   0.516591 0.512262 0.851429 -0.328962
N3    N     N_R   0.207800 0.519350 0.510590 -0.162118
N4    N     N_R   0.792200 0.480650 0.489410 -0.153813
O1    O     O_R   0.421690 0.658830 0.502820 -0.618963
O2    O     O_R   0.578310 0.341170 0.497180 -0.583167
O3    O     O_R   0.609320 0.646410 0.496030 -0.575790
O4    O     O_R   0.390680 0.353590 0.503970 -0.603639
O5    O     O_R   0.406170 0.506240 0.587240 -0.578033
O6    O     O_R   0.593830 0.493760 0.412760 -0.567492
O7    O     O_R   0.593790 0.493820 0.580450 -0.619895
O8    O     O_R   0.406210 0.506180 0.419550 -0.603010
O9    O     O_2   0.407421 0.363139 0.151107 -0.488694
O10   O     O_2   0.604197 0.678886 0.847895 -0.527834
O11   O     O_2   0.578543 0.698416 0.147591 -0.521292
O12   O     O_2   0.422339 0.348369 0.849968 -0.482381
Zn1   Zn    Zn3+2 0.374720 0.508290 0.504530 0.977591
Zn2   Zn    Zn3+2 0.625280 0.491710 0.495470 1.007878
O13   O     O_3   0.685226 0.762593 0.055260 -0.530321
C49   C     C_3   0.787311 0.724639 0.071332 -0.228708
H5    H     H_    0.830483 0.681133 0.036053 0.094389
H6    H     H_    0.774727 0.673745 0.108852 0.179338
H7    H     H_    0.843872 0.791706 0.083624 0.188693
O14   O     O_3   0.373960 0.255487 0.943055 -0.564126
C50   C     C_3   0.454572 0.179858 0.940863 -0.134605
H8    H     H_    0.533114 0.208422 0.917796 0.158225
H9    H     H_    0.420870 0.110520 0.917016 0.191898
H10   H     H_    0.472734 0.154733 0.984371 0.168071
C51   C     C_1   0.196460 0.393656 0.433532 0.432750
N5    N     N_1   0.239652 0.338906 0.400630 -0.178703
C52   C     C_1   0.803270 0.605158 0.566956 0.358064
N6    N     N_1   0.759852 0.659412 0.600036 -0.235870
O15   O     O_3   0.991762 0.340545 0.400139 -0.619390
C53   C     C_3   0.961157 0.235992 0.412870 -0.328508
H11   H     H_    0.871102 0.217659 0.406137 0.217203
H12   H     H_    0.981662 0.216818 0.457124 0.149464
H13   H     H_    0.009189 0.185111 0.383231 0.199625
O16   O     O_3   0.005258 0.641605 0.607428 -0.609528
C54   C     C_3   0.043650 0.747129 0.605919 -0.324363
H14   H     H_    0.040038 0.780030 0.562630 0.126869
H15   H     H_    0.129411 0.757718 0.621734 0.175425
H16   H     H_    0.988462 0.792423 0.635055 0.207033
O17   O     O_3   0.673866 0.767013 0.939507 -0.535136
C55   C     C_3   0.785784 0.747771 0.923205 -0.172768
H17   H     H_    0.801322 0.663857 0.915778 0.101425
H18   H     H_    0.842404 0.782226 0.955498 0.156687
H19   H     H_    0.807924 0.787684 0.882533 0.201318
O18   O     O_3   0.349945 0.269632 0.059226 -0.554937
C56   C     C_3   0.234810 0.287004 0.061356 -0.163452
H20   H     H_    0.200983 0.284076 0.017924 0.161886
H21   H     H_    0.217330 0.362374 0.083245 0.154547
H22   H     H_    0.189835 0.224403 0.086326 0.187422
O19   O     O_3   0.658014 0.381611 0.784715 -0.567655
C57   C     C_3   0.747317 0.439770 0.809701 -0.322713
H23   H     H_    0.725760 0.458035 0.855167 0.170086
H24   H     H_    0.773849 0.512425 0.786683 0.151672
H25   H     H_    0.820626 0.391053 0.808867 0.192877
O20   O     O_3   0.293084 0.547799 0.216154 -0.560424
C58   C     C_3   0.289865 0.643382 0.188173 -0.283679
H26   H     H_    0.343685 0.707472 0.207145 0.154247
H27   H     H_    0.202785 0.668190 0.191390 0.184086
H28   H     H_    0.312681 0.633041 0.142103 0.176024
O21   O     O_3   0.643445 0.371563 0.666308 -0.569133
C59   C     C_3   0.758854 0.400466 0.665574 -0.157834
H29   H     H_    0.777922 0.485498 0.672072 0.133050
H30   H     H_    0.796456 0.378288 0.623245 0.168205
H31   H     H_    0.799918 0.356654 0.698068 0.190853
O22   O     O_3   0.297065 0.537599 0.331871 -0.552500
C60   C     C_3   0.279630 0.642661 0.345917 -0.170443
H32   H     H_    0.261691 0.686431 0.307512 0.150852
H33   H     H_    0.351942 0.681272 0.367680 0.174530
H34   H     H_    0.205624 0.645609 0.375883 0.177616
O23   O     O_3   0.356317 0.621401 0.680207 -0.574868
C61   C     C_3   0.404071 0.720656 0.666870 -0.315674
H35   H     H_    0.342394 0.761990 0.643628 0.171380
H36   H     H_    0.480339 0.716147 0.638240 0.143621
H37   H     H_    0.423250 0.766738 0.706303 0.180334
O24   O     O_3   0.698715 0.493035 0.318047 -0.564734
C62   C     C_3   0.763235 0.419085 0.288289 -0.285401
H38   H     H_    0.821579 0.388253 0.318134 0.209446
H39   H     H_    0.815053 0.456543 0.253283 0.176887
H40   H     H_    0.711299 0.351670 0.271548 0.139472
O25   O     O_3   0.633043 0.183932 0.435441 -0.552592
C63   C     C_3   0.595675 0.205236 0.380967 -0.261723
H41   H     H_    0.534416 0.266836 0.383617 0.145225
H42   H     H_    0.558696 0.134370 0.359352 0.150523
H43   H     H_    0.668499 0.234081 0.353967 0.173917
O26   O     O_3   0.346533 0.823248 0.457746 -0.614557
C64   C     C_3   0.248642 0.804640 0.492128 -0.175048
H44   H     H_    0.265147 0.788033 0.537242 0.168677
H45   H     H_    0.201968 0.735580 0.474308 0.146088
H46   H     H_    0.193630 0.870452 0.489393 0.183531
O27   O     O_3   0.292630 0.193792 0.554407 -0.566361
C65   C     C_3   0.188155 0.181788 0.528915 -0.208843
H47   H     H_    0.142527 0.108467 0.542303 0.190465
H48   H     H_    0.195694 0.184366 0.481440 0.124978
H49   H     H_    0.136907 0.246880 0.543901 0.169410
O28   O     O_3   0.731546 0.806892 0.462876 -0.574352
C66   C     C_3   0.810078 0.842077 0.503028 -0.247471
H50   H     H_    0.851803 0.917890 0.491004 0.192112
H51   H     H_    0.876196 0.785517 0.503154 0.170245
H52   H     H_    0.771865 0.847381 0.547110 0.150342
O29   O     O_3   0.734006 0.016049 0.430989 -0.579011
C67   C     C_3   0.749398 0.981037 0.373821 -0.249265
H53   H     H_    0.782013 0.902112 0.371601 0.205376
H54   H     H_    0.812641 0.034232 0.352021 0.169159
H55   H     H_    0.671421 0.981864 0.349860 0.144829
O30   O     O_3   0.286030 0.979932 0.561475 -0.639594
C68   C     C_3   0.329434 0.979573 0.616356 -0.321869
H56   H     H_    0.409012 0.939175 0.615892 0.139960
H57   H     H_    0.267995 0.937048 0.645236 0.181173
H58   H     H_    0.342214 0.059802 0.634305 0.223631

loop_
_geom_bond_atom_site_label_1
_geom_bond_atom_site_label_2
_ccdc_geom_bond_type
C16   C21   A    
C45   O13   S    
C41   C42   A    
C58   H26   S    
C62   H40   S    
C46   O14   S    
C68   H56   S    
O25   C63   S    
C39   C41   A    
C50   H8    S    
C3    O19   S    
C40   C46   A    
C32   C51   S    
C56   H20   S    
C61   H35   S    
C17   C26   A    
C67   H53   S    
C13   N2    S    
C1    O3    A    
O27   C65   S    
C53   H12   S    
C35   N1    A    
C57   H23   S    
C35   O9    S    
O21   C59   S    
C55   H19   S    
C19   O28   S    
C31   C52   S    
C59   H29   S    
O6    Zn2   S    
C66   H52   S    
C27   O15   S    
O20   C58   S    
C60   H34   S    
C4    O20   S    
C12   H4    S    
C15   C22   A    
O17   C55   S    
C55   H18   S    
C24   O6    A    
C66   H50   S    
C31   C33   A    
C31   N4    A    
C35   C43   A    
C43   C48   A    
C32   N3    A    
C18   C20   A    
C3    C13   A    
C44   C47   A    
C39   C45   A    
C37   N1    A    
C23   O7    A    
C56   H21   S    
C36   N2    A    
C5    O21   S    
C41   C43   A    
C18   C25   A    
C42   C44   A    
C63   H43   S    
C6    O22   S    
C68   H57   S    
C51   N5    T    
C65   H48   S    
C29   H2    S    
C45   C47   A    
C27   C34   A    
C15   C20   A    
C48   O18   S    
C46   C48   A    
C2    O4    A    
C11   H3    S    
O14   C50   S    
C4    C6    A    
C64   H46   S    
C54   H14   S    
C5    C7    A    
C53   H11   S    
O2    Zn2   S    
C6    C8    A    
C61   H37   S    
C3    C5    A    
C25   C26   A    
O15   C53   S    
C9    O23   S    
C64   H45   S    
C32   C34   A    
C10   O24   S    
C1    O1    A    
C54   H15   S    
C65   H49   S    
C40   C42   A    
C52   N6    T    
C38   N2    A    
O7    Zn2   S    
C55   H17   S    
C33   C34   A    
C50   H9    S    
C58   H27   S    
C1    C16   S    
O8    Zn1   S    
O26   C64   S    
C2    C15   S    
C9    C11   A    
C60   H32   S    
N3    Zn1   S    
C10   C12   A    
C49   H6    S    
C30   H1    S    
C12   C14   A    
C28   C33   A    
C56   H22   S    
N4    Zn2   S    
O23   C61   S    
C36   C44   A    
C17   C19   A    
C62   H38   S    
C17   O29   S    
C68   H58   S    
O22   C60   S    
C63   H42   S    
C65   H47   S    
O19   C57   S    
C50   H10   S    
O5    Zn1   S    
C7    C9    A    
C21   C25   A    
C61   H36   S    
C20   O27   S    
C67   H55   S    
C38   O12   S    
C49   H5    S    
C62   H39   S    
C53   H13   S    
C2    O2    A    
C29   N4    A    
C27   C29   A    
C30   N3    A    
C59   H31   S    
C22   O25   S    
O30   C68   S    
C67   H54   S    
O24   C62   S    
O13   C49   S    
C37   C39   A    
C64   H44   S    
C54   H16   S    
C38   C40   A    
C11   C13   A    
C49   H7    S    
O16   C54   S    
C57   H24   S    
O4    Zn1   S    
C16   C19   A    
C7    C23   S    
C37   O11   S    
C28   C30   A    
O18   C56   S    
C8    C24   S    
C59   H30   S    
C24   O8    A    
C58   H28   S    
C36   O10   S    
C66   H51   S    
C4    C14   A    
C60   H33   S    
C18   O30   S    
O3    Zn2   S    
C23   O5    A    
C14   N1    S    
C8    C10   A    
C22   C26   A    
O29   C67   S    
C47   O17   S    
O28   C66   S    
C63   H41   S    
C28   O16   S    
C21   O26   S    
O1    Zn1   S    
C57   H25   S    
