data_mof_unit_4514.cif
_audit_creation_date              2012-10-26T19:35:12-0400
_audit_creation_method            fapswitch 2.2
_symmetry_space_group_name_H-M    P1
_symmetry_Int_Tables_number       1
_space_group_crystal_system       triclinic
_cell_length_a                    10.828556
_cell_length_b                    10.807429
_cell_length_c                    9.562527
_cell_angle_alpha                 90.900657
_cell_angle_beta                  91.449656
_cell_angle_gamma                 92.630039
_cell_volume                      1117.39528668

loop_
_atom_site_label
_atom_site_type_symbol
_atom_type_description
_atom_site_fract_x
_atom_site_fract_y
_atom_site_fract_z
_atom_type_partial_charge
Br1   Br    Br    0.150409 0.717342 0.338587 -0.439697
Br2   Br    Br    0.301201 0.312724 0.149566 -0.408324
Br3   Br    Br    0.228648 0.198234 0.487657 -0.471791
Br4   Br    Br    0.552224 0.881895 0.917448 -0.561045
C1    C     C_R   0.511044 0.263647 0.499553 0.587959
C2    C     C_R   0.533276 0.935268 0.374385 -0.116249
C3    C     C_R   0.521183 0.872164 0.501653 0.001686
C4    C     C_R   0.261997 0.492885 0.498016 0.623927
C5    C     C_R   0.533581 0.940764 0.626962 0.054203
C6    C     C_3   0.458625 0.937037 0.756576 0.051985
C7    C     C_3   0.459522 0.077469 0.752644 -0.211851
C8    C     C_R   0.578002 0.579769 0.077270 0.170337
C9    C     C_R   0.417415 0.426871 0.068701 0.257124
C10   C     C_R   0.417413 0.427876 0.920656 0.019123
C11   C     C_R   0.578346 0.579038 0.930006 0.209028
C12   C     C_R   0.058246 0.387230 0.558431 0.017953
C13   C     C_3   0.715988 0.584290 0.927628 -0.255398
C14   C     C_3   0.716102 0.585096 0.086144 -0.272514
C15   C     C_R   0.504065 0.738066 0.500928 0.564504
C16   C     C_R   0.737288 0.499447 0.501966 0.523005
C17   C     C_R   0.109448 0.274203 0.598138 0.154219
C18   C     C_R   0.045689 0.192748 0.685608 -0.062363
C19   C     C_R   0.924609 0.213266 0.719541 -0.132581
C20   C     C_R   0.864933 0.311503 0.660174 -0.118912
C21   C     C_R   0.930252 0.399384 0.577849 -0.002050
C22   C     C_R   0.126913 0.484500 0.492120 0.034344
C23   C     C_R   0.065129 0.581235 0.428145 0.131572
C24   C     C_R   0.937575 0.582475 0.431279 -0.117166
C25   C     C_R   0.870456 0.494356 0.506842 -0.022794
C26   C     C_R   0.535082 0.068226 0.624943 -0.015273
C27   C     C_R   0.528170 0.131491 0.499141 0.024696
C28   C     C_R   0.537129 0.064471 0.373175 -0.102384
Cu1   Cu    Cu3+1 0.499990 0.499980 0.640670 0.981172
Cu2   Cu    Cu3+1 0.500010 0.500020 0.359330 1.061546
H1    H     H_    0.365334 0.890951 0.740030 0.163935
H2    H     H_    0.873657 0.147157 0.782591 0.144260
H3    H     H_    0.767485 0.315205 0.678898 0.147636
H4    H     H_    0.890486 0.655551 0.378400 0.147939
H5    H     H_    0.538804 0.110807 0.273574 0.175641
H6    H     H_    0.532894 0.885443 0.275203 0.187921
H7    H     H_    0.366483 0.113097 0.731487 0.159257
H8    H     H_    0.512227 0.125592 0.840451 0.176717
H9    H     H_    0.352675 0.367464 0.860784 0.147943
H10   H     H_    0.753636 0.498811 0.882611 0.147063
H11   H     H_    0.753892 0.672323 0.883756 0.177710
H12   H     H_    0.754564 0.500161 0.130636 0.161147
H13   H     H_    0.754173 0.673658 0.133971 0.158036
H14   H     H_    0.085901 0.107157 0.716776 0.152448
N1    N     N_R   0.500790 0.500930 0.147930 -0.233754
N2    N     N_R   0.500790 0.500890 0.852020 -0.263526
O1    O     O_R   0.500000 0.319640 0.618810 -0.520440
O2    O     O_R   0.500010 0.319680 0.381230 -0.459850
O3    O     O_R   0.319640 0.499980 0.618820 -0.502852
O4    O     O_R   0.319650 0.500020 0.381230 -0.408423
O5    O     O_R   0.499990 0.680320 0.618770 -0.472668
O6    O     O_R   0.500000 0.680360 0.381190 -0.490377
O7    O     O_R   0.680350 0.499980 0.618770 -0.528989
O8    O     O_R   0.680360 0.500020 0.381180 -0.524765

loop_
_geom_bond_atom_site_label_1
_geom_bond_atom_site_label_2
_ccdc_geom_bond_type
C15   O6    A    
Cu1   O5    S    
C2    C28   A    
C19   C20   A    
C1    O2    A    
Cu2   O6    S    
C12   C17   A    
C15   O5    A    
Cu1   O1    S    
C4    C22   S    
C5    C6    S    
C18   H14   S    
C27   C28   A    
C8    C11   A    
C24   H4    S    
C14   H13   S    
C8    N1    A    
C16   O7    A    
C4    O3    A    
C7    H7    S    
C9    C10   A    
C21   C25   A    
Cu2   O4    S    
C22   C23   A    
C10   N2    A    
C1    C27   S    
C5    C26   A    
C9    N1    A    
C14   H12   S    
C4    O4    A    
C24   C25   A    
C13   H11   S    
C17   C18   A    
Cu1   Cu2   S    
C2    C3    A    
C3    C15   S    
C16   C25   S    
Cu1   O3    S    
C26   C27   A    
Cu2   O8    S    
C2    H6    S    
C11   N2    A    
Br3   C17   S    
C6    C7    S    
Br4   C6    S    
C6    H1    S    
C3    C5    A    
C12   C21   A    
C16   O8    A    
C20   C21   A    
C7    H8    S    
C13   C14   S    
C19   H2    S    
C28   H5    S    
C8    C14   S    
C20   H3    S    
Br1   C23   S    
Br2   C9    S    
C18   C19   A    
C1    O1    A    
Cu2   N1    S    
Cu1   O7    S    
C13   H10   S    
Cu1   N2    S    
C11   C13   S    
Cu2   O2    S    
C7    C26   S    
C10   H9    S    
C23   C24   A    
C12   C22   A    
