data_mof_unit_4304.cif
_audit_creation_date              2012-12-10T18:33:41-0500
_audit_creation_method            fapswitch 2.2
_symmetry_space_group_name_H-M    P1
_symmetry_Int_Tables_number       1
_space_group_crystal_system       triclinic
_cell_length_a                    10.563258
_cell_length_b                    14.999542
_cell_length_c                    15.469926
_cell_angle_alpha                 81.038126
_cell_angle_beta                  91.186586
_cell_angle_gamma                 104.824294
_cell_volume                      2340.13463446

loop_
_atom_site_label
_atom_site_type_symbol
_atom_type_description
_atom_site_fract_x
_atom_site_fract_y
_atom_site_fract_z
_atom_type_partial_charge
C1    C     C_R   0.480088 0.441186 0.661896 0.872008
C2    C     C_R   0.519438 0.558916 0.338130 0.878721
C3    C     C_R   0.429395 0.451975 0.813837 0.162116
C4    C     C_R   0.568003 0.549439 0.185587 0.152233
C5    C     C_R   0.472645 0.441462 0.900848 0.038034
C6    C     C_R   0.523106 0.559983 0.099008 0.037679
C7    C     C_R   0.512251 0.358989 0.933227 0.006144
C8    C     C_R   0.481460 0.641774 0.067366 0.021210
C9    C     C_R   0.482728 0.510952 0.955313 0.004693
C10   C     C_R   0.512781 0.490681 0.044568 -0.004307
C11   C     C_R   0.522831 0.399718 0.078138 -0.310274
C12   C     C_R   0.471988 0.601841 0.921948 -0.329268
C13   C     C_R   0.527411 0.335354 0.023204 0.507940
C14   C     C_R   0.464928 0.665952 0.977478 0.507718
C15   C     C_R   0.655925 0.833866 0.657326 -0.299249
C16   C     C_R   0.299229 0.156226 0.363052 -0.280012
C17   C     C_R   0.644896 0.750313 0.626504 0.343703
C18   C     C_R   0.344160 0.247799 0.378447 0.335898
C19   C     C_R   0.517345 0.796613 0.508335 -0.071254
C20   C     C_R   0.468212 0.199411 0.497965 -0.069028
C21   C     C_R   0.510919 0.877524 0.544225 -0.026981
C22   C     C_R   0.418633 0.103917 0.487390 -0.034153
C23   C     C_R   0.742445 0.500679 0.501991 0.867267
C24   C     C_R   0.257293 0.498651 0.499310 0.868284
C25   C     C_R   0.588375 0.897198 0.618110 -0.041745
C26   C     C_R   0.332563 0.083678 0.418196 -0.044210
C27   C     C_R   0.434762 0.940761 0.508784 -0.049749
C28   C     C_R   0.457726 0.028977 0.539566 -0.055766
C29   C     C_R   0.517963 0.038203 0.621536 0.080370
C30   C     C_R   0.331539 0.919220 0.448064 0.092324
C31   C     C_R   0.592868 0.977198 0.655777 0.507421
C32   C     C_R   0.279511 0.991030 0.404639 0.523758
C33   C     C_3   0.930469 0.424292 0.556695 -0.223583
C34   C     C_3   0.068466 0.573540 0.446595 -0.226257
C35   C     C_3   0.048355 0.500074 0.582588 -0.222817
C36   C     C_3   0.950825 0.497437 0.420634 -0.219326
C37   C     C_3   0.121026 0.495658 0.499240 -0.030253
C38   C     C_3   0.878209 0.502188 0.503909 -0.025934
C39   C     C_3   0.005369 0.420441 0.473721 0.272199
C40   C     C_3   0.993724 0.577093 0.529722 0.277471
C41   C     C_R   0.473646 0.404319 0.754765 -0.056132
C42   C     C_R   0.524140 0.596304 0.245441 -0.057010
C43   C     C_R   0.534703 0.301490 0.874867 -0.156565
C44   C     C_R   0.459479 0.698755 0.126533 -0.143947
C45   C     C_R   0.524157 0.328037 0.785414 -0.278709
C46   C     C_R   0.472638 0.672476 0.215811 -0.279253
H1    H     H_    0.091113 0.501740 0.648604 0.147990
H2    H     H_    0.907957 0.495868 0.354605 0.148822
H3    H     H_    0.541797 0.220392 0.545194 0.149495
H4    H     H_    0.476632 0.783114 0.446038 0.150803
H5    H     H_    0.712703 0.846652 0.715400 0.193901
H6    H     H_    0.238338 0.141856 0.307040 0.188648
H7    H     H_    0.871016 0.363592 0.601549 0.138303
H8    H     H_    0.127400 0.633835 0.401194 0.153101
H9    H     H_    0.442270 0.711198 0.261572 0.161283
H10   H     H_    0.556234 0.289858 0.740189 0.161363
H11   H     H_    0.568764 0.239782 0.897551 0.195446
H12   H     H_    0.424574 0.760265 0.104719 0.195823
H13   H     H_    0.528823 0.377002 0.147193 0.180711
H14   H     H_    0.466322 0.623452 0.852786 0.176003
N1    N     N_R   0.574200 0.731700 0.552740 -0.102974
N2    N     N_R   0.425800 0.268300 0.447260 -0.100540
O1    O     O_R   0.462600 0.383110 0.605620 -0.618891
O2    O     O_R   0.537400 0.616890 0.394380 -0.618726
O3    O     O_R   0.510210 0.531900 0.639510 -0.611999
O4    O     O_R   0.489790 0.468100 0.360490 -0.612999
O5    O     O_R   0.662240 0.425610 0.483080 -0.617149
O6    O     O_R   0.337760 0.574390 0.516920 -0.616859
O7    O     O_R   0.709860 0.574400 0.516970 -0.626493
O8    O     O_R   0.290140 0.425600 0.483030 -0.623996
Zn1   Zn    Zn3+2 0.468210 0.400660 0.477370 0.927865
Zn2   Zn    Zn3+2 0.531790 0.599340 0.522630 0.927337
C47   C     C_3   0.303200 0.321091 0.314513 -0.856098
H15   H     H_    0.269562 0.370619 0.347823 0.276674
H16   H     H_    0.385258 0.357694 0.268275 0.240397
H17   H     H_    0.219955 0.290147 0.274267 0.195191
C48   C     C_3   0.708074 0.682646 0.681423 -0.875329
H18   H     H_    0.721599 0.627146 0.647682 0.289142
H19   H     H_    0.807129 0.719752 0.700706 0.205268
H20   H     H_    0.648428 0.651245 0.741999 0.229320
C49   C     C_3   0.486549 0.100326 0.681838 -0.853374
H21   H     H_    0.458463 0.059383 0.747943 0.262100
H22   H     H_    0.574067 0.158073 0.688135 0.224821
H23   H     H_    0.401598 0.128163 0.659858 0.233075
C50   C     C_3   0.261453 0.820564 0.435679 -0.870518
H24   H     H_    0.154262 0.811365 0.431167 0.262376
H25   H     H_    0.295892 0.804414 0.374013 0.235619
H26   H     H_    0.272708 0.768527 0.492366 0.236218
C51   C     C_3   0.006552 0.329863 0.441659 -0.903923
H27   H     H_    0.904599 0.286223 0.440128 0.239016
H28   H     H_    0.048939 0.345453 0.374460 0.239237
H29   H     H_    0.064331 0.290797 0.486241 0.252802
C52   C     C_3   0.989385 0.664430 0.566370 -0.918141
H30   H     H_    0.089993 0.705120 0.577166 0.242140
H31   H     H_    0.938351 0.707956 0.520996 0.256014
H32   H     H_    0.938856 0.643429 0.630931 0.240159
O9    O     O_3   0.554213 0.251341 0.057238 -0.612091
C53   C     C_3   0.438835 0.190088 0.097002 -0.304221
H33   H     H_    0.357427 0.179548 0.049670 0.162776
H34   H     H_    0.408722 0.215187 0.155401 0.164358
H35   H     H_    0.458406 0.121083 0.119688 0.206534
O10   O     O_3   0.432040 0.749195 0.946759 -0.625817
C54   C     C_3   0.512470 0.800284 0.874645 -0.261039
H36   H     H_    0.471906 0.776830 0.812812 0.171670
H37   H     H_    0.616283 0.796526 0.881863 0.157060
H38   H     H_    0.512186 0.874771 0.869908 0.228727
C55   C     C_3   0.682053 0.506964 0.210795 -0.920369
H39   H     H_    0.649996 0.439875 0.255881 0.255864
H40   H     H_    0.732268 0.496108 0.152463 0.255792
H41   H     H_    0.756616 0.555821 0.244388 0.228770
C56   C     C_3   0.316026 0.494723 0.787382 -0.926993
H42   H     H_    0.264741 0.505790 0.845151 0.254639
H43   H     H_    0.349064 0.561725 0.742266 0.257660
H44   H     H_    0.242100 0.445829 0.753447 0.225531
O11   O     O_3   0.661877 0.991762 0.731666 -0.629135
C57   C     C_3   0.787584 0.050260 0.708046 -0.345953
H45   H     H_    0.843052 0.062310 0.768629 0.202450
H46   H     H_    0.782232 0.119544 0.672308 0.164420
H47   H     H_    0.843219 0.017019 0.667990 0.161294
O12   O     O_3   0.181067 0.970369 0.344543 -0.606504
C58   C     C_3   0.059994 0.968237 0.383289 -0.345972
H48   H     H_    0.042312 0.922744 0.448299 0.157190
H49   H     H_    0.980092 0.939255 0.339959 0.204203
H50   H     H_    0.053153 0.039473 0.390182 0.169293

loop_
_geom_bond_atom_site_label_1
_geom_bond_atom_site_label_2
_ccdc_geom_bond_type
C25   C31   A    
C38   C40   S    
C26   C32   A    
C52   H30   S    
C34   C37   S    
C47   H16   S    
C47   H15   S    
C23   O7    A    
C56   H42   S    
C40   C52   S    
C35   H1    S    
O9    C53   S    
C24   O8    A    
C50   H24   S    
C29   C49   S    
C33   C39   S    
C34   C40   S    
C28   C29   A    
C35   C37   S    
C19   N1    A    
C14   O10   S    
O11   C57   S    
C11   C13   A    
C57   H45   S    
C42   C46   A    
C23   O5    A    
C58   H50   S    
C17   N1    A    
C54   H37   S    
C45   H10   S    
C3    C56   S    
C46   H9    S    
C1    O3    A    
C55   H39   S    
O8    Zn1   S    
C7    C43   A    
C51   H28   S    
C9    C10   A    
O5    Zn1   S    
C50   H25   S    
C21   C27   A    
C52   H31   S    
C22   C28   A    
C27   C30   A    
C16   C26   A    
C55   H40   S    
C32   O12   S    
C11   H13   S    
C1    O1    A    
C31   O11   S    
C49   H22   S    
C2    O2    A    
C49   H21   S    
C48   H19   S    
C33   H7    S    
C4    C55   S    
C16   H6    S    
C4    C6    A    
C44   H12   S    
C5    C7    A    
C24   O6    A    
C18   N2    A    
C6    C8    A    
C44   C46   A    
C3    C5    A    
C48   H18   S    
C30   C50   S    
C54   H38   S    
O7    Zn2   S    
O3    Zn2   S    
C5    C9    A    
C20   H3    S    
O4    Zn1   S    
O6    Zn2   S    
C17   C48   S    
C24   C37   S    
C56   H43   S    
C16   C18   A    
C51   H29   S    
C43   C45   A    
C58   H48   S    
N1    Zn2   S    
C1    C41   S    
C12   C14   A    
C34   H8    S    
C52   H32   S    
C53   H34   S    
C55   H41   S    
C15   H5    S    
C20   C22   A    
C53   H35   S    
C54   H36   S    
C49   H23   S    
O12   C58   S    
C50   H26   S    
C15   C17   A    
C21   C25   A    
C3    C41   A    
C8    C14   A    
C19   C21   A    
C36   C39   S    
C8    C44   A    
O1    Zn1   S    
C2    O4    A    
C6    C10   A    
C18   C47   S    
C23   C38   S    
C33   C38   S    
C57   H47   S    
C36   C38   S    
C35   C40   S    
C37   C39   S    
C30   C32   A    
C48   H20   S    
C19   H4    S    
C4    C42   A    
C2    C42   S    
C33   C35   S    
C57   H46   S    
N2    Zn1   S    
C36   H2    S    
C56   H44   S    
C34   C36   S    
O2    Zn2   S    
C13   O9    S    
O10   C54   S    
C9    C12   A    
C58   H49   S    
C15   C25   A    
C10   C11   A    
C43   H11   S    
C12   H14   S    
C7    C13   A    
C47   H17   S    
C29   C31   A    
C53   H33   S    
C22   C26   A    
C27   C28   A    
C41   C45   A    
C51   H27   S    
C39   C51   S    
C20   N2    A    
