data_mof_unit_1044.cif
_audit_creation_date              2012-12-10T18:06:47-0500
_audit_creation_method            fapswitch 2.2
_symmetry_space_group_name_H-M    P1
_symmetry_Int_Tables_number       1
_space_group_crystal_system       triclinic
_cell_length_a                    12.612067
_cell_length_b                    13.127459
_cell_length_c                    15.277817
_cell_angle_alpha                 83.430635
_cell_angle_beta                  98.784351
_cell_angle_gamma                 96.691744
_cell_volume                      2470.70650424

loop_
_atom_site_label
_atom_site_type_symbol
_atom_type_description
_atom_site_fract_x
_atom_site_fract_y
_atom_site_fract_z
_atom_type_partial_charge
C1    C     C_R   0.442531 0.308550 0.507642 0.856472
C2    C     C_R   0.472642 0.587883 0.097332 0.017906
C3    C     C_R   0.377038 0.634072 0.062549 0.007052
C4    C     C_R   0.553330 0.585339 0.043132 0.082013
C5    C     C_R   0.527252 0.606829 0.950253 0.025122
C6    C     C_R   0.436474 0.662531 0.916808 0.057033
C7    C     C_R   0.363100 0.675330 0.973448 -0.174982
C8    C     C_R   0.658849 0.560881 0.078458 -0.221947
C9    C     C_R   0.730514 0.542444 0.022763 -0.247469
C10   C     C_R   0.695152 0.539036 0.932078 0.186372
C11   C     C_R   0.591309 0.567753 0.895876 0.085822
C12   C     C_R   0.436637 0.516364 0.335225 0.888193
C13   C     C_R   0.759338 0.501780 0.878013 -0.204897
C14   C     C_R   0.717884 0.485347 0.790243 -0.196082
C15   C     C_R   0.548743 0.543403 0.810174 -0.281943
C16   C     C_R   0.623434 0.939541 0.350725 -0.226967
C17   C     C_R   0.579034 0.800820 0.461652 -0.045697
C18   C     C_R   0.340338 0.158567 0.578108 -0.179731
C19   C     C_R   0.322613 0.052832 0.598483 -0.144445
C20   C     C_R   0.376818 0.987234 0.559879 -0.174212
C21   C     C_R   0.446305 0.026950 0.496511 0.096102
C22   C     C_R   0.450809 0.132474 0.466489 0.067766
C23   C     C_R   0.555180 0.691684 0.487132 0.871637
C24   C     C_R   0.511304 0.965326 0.461935 0.044984
C25   C     C_R   0.562955 0.003792 0.386679 0.148140
C26   C     C_R   0.551931 0.104963 0.348432 0.073166
C27   C     C_R   0.498403 0.169202 0.389592 -0.262246
C28   C     C_R   0.527477 0.866583 0.501690 -0.291372
C29   C     C_R   0.629651 0.837187 0.386575 0.081453
C30   C     C_R   0.407131 0.198836 0.514341 -0.095259
C31   C     C_R   0.137947 0.652878 0.612375 -0.307323
C32   C     C_R   0.755041 0.380372 0.394914 -0.078441
C33   C     C_R   0.848098 0.358595 0.366699 -0.332276
C34   C     C_R   0.565676 0.490442 0.664269 0.857215
C35   C     C_R   0.947322 0.407502 0.401156 0.551917
C36   C     C_R   0.952665 0.474275 0.470005 -0.123947
C37   C     C_R   0.853934 0.496201 0.493418 0.173336
C38   C     C_R   0.049166 0.522673 0.514740 -0.005812
C39   C     C_R   0.044013 0.599440 0.572541 0.194420
C40   C     C_R   0.945425 0.621094 0.591313 -0.285100
C41   C     C_R   0.851918 0.567987 0.554012 -0.170768
C42   C     C_R   0.151387 0.496994 0.506920 -0.033467
C43   C     C_R   0.236174 0.628838 0.595823 0.006501
C44   C     C_R   0.407608 0.547546 0.240079 -0.124211
C45   C     C_R   0.611067 0.503553 0.756826 -0.058699
C46   C     C_R   0.297406 0.638806 0.117358 0.553451
C47   C     C_R   0.315536 0.598114 0.207323 -0.313395
C48   C     C_R   0.482775 0.539838 0.183943 -0.259485
H1    H     H_    0.294182 0.717068 0.946619 0.200677
H2    H     H_    0.840070 0.482473 0.904344 0.136589
H3    H     H_    0.662762 0.966924 0.292958 0.168478
H4    H     H_    0.496675 0.836867 0.562793 0.145589
H5    H     H_    0.304633 0.208957 0.614234 0.158229
H6    H     H_    0.360492 0.905815 0.578818 0.130795
H7    H     H_    0.270145 0.021761 0.647034 0.145799
H8    H     H_    0.491680 0.247301 0.359281 0.151599
H9    H     H_    0.310289 0.670452 0.624031 0.124477
H10   H     H_    0.464985 0.551254 0.785708 0.168229
H11   H     H_    0.940612 0.677864 0.636476 0.155525
H12   H     H_    0.135309 0.712607 0.655246 0.144797
H13   H     H_    0.165409 0.433390 0.473549 0.208102
H14   H     H_    0.677605 0.345570 0.366389 0.156105
H15   H     H_    0.843210 0.306508 0.315823 0.171890
H16   H     H_    0.778628 0.585505 0.573003 0.210328
H17   H     H_    0.768427 0.456390 0.749377 0.164948
H18   H     H_    0.810444 0.522849 0.051599 0.136817
H19   H     H_    0.259898 0.608689 0.252073 0.168722
H20   H     H_    0.549790 0.495387 0.208847 0.166799
H21   H     H_    0.687980 0.557396 0.148928 0.149158
N1    N     N_R   0.239390 0.551900 0.544730 -0.115627
N2    N     N_R   0.759950 0.448600 0.455730 -0.118910
O1    O     O_R   0.374950 0.371210 0.521360 -0.611621
O2    O     O_R   0.542050 0.338030 0.492790 -0.605259
O3    O     O_R   0.368720 0.526070 0.390200 -0.605656
O4    O     O_R   0.535820 0.492890 0.361630 -0.622259
O5    O     O_R   0.457950 0.661970 0.507210 -0.618411
O6    O     O_R   0.625050 0.628790 0.478640 -0.606942
O7    O     O_R   0.464180 0.507110 0.638370 -0.614977
O8    O     O_R   0.631280 0.473930 0.609800 -0.630265
Zn1   Zn    Zn3+2 0.388420 0.522150 0.519080 0.940458
Zn2   Zn    Zn3+2 0.611580 0.477850 0.480920 0.935635
N3    N     N_3   0.681957 0.769451 0.343834 -0.428980
H22   H     H_    0.761881 0.800640 0.342149 0.185804
H23   H     H_    0.643837 0.767626 0.278146 0.186872
N4    N     N_3   0.595247 0.142797 0.268038 -0.472843
H24   H     H_    0.651946 0.205685 0.281111 0.174331
H25   H     H_    0.532533 0.168890 0.220947 0.193951
O9    O     O_3   0.036026 0.389723 0.364523 -0.622018
C49   C     C_3   0.048622 0.464444 0.291934 -0.371264
H26   H     H_    0.063221 0.543606 0.313636 0.162845
H27   H     H_    0.977649 0.458813 0.238908 0.164677
H28   H     H_    0.120162 0.450219 0.262703 0.202347
O10   O     O_3   0.208623 0.692163 0.083548 -0.611133
C50   C     C_3   0.111868 0.635271 0.103752 -0.357168
H29   H     H_    0.096661 0.649157 0.170819 0.169903
H30   H     H_    0.110985 0.551230 0.098187 0.149393
H31   H     H_    0.044176 0.663231 0.055229 0.201121
N5    N     N_3   0.424056 0.719556 0.830411 -0.468905
H32   H     H_    0.496338 0.731315 0.803493 0.195331
H33   H     H_    0.364267 0.679673 0.788420 0.170022

loop_
_geom_bond_atom_site_label_1
_geom_bond_atom_site_label_2
_ccdc_geom_bond_type
O10   C50   S    
C12   O3    A    
C17   C29   A    
C35   C36   A    
C16   H3    S    
C23   O5    A    
C4    C8    A    
N4    H24   S    
C2    C48   A    
C8    H21   S    
C17   C23   S    
C31   C43   A    
C6    N5    S    
C36   C37   A    
C5    C11   A    
C3    C7    A    
C38   C39   A    
O7    Zn1   S    
C42   N1    A    
C18   C19   A    
O2    Zn2   S    
C9    H18   S    
C18   H5    S    
C11   C15   A    
C19   C20   A    
C8    C9    A    
C18   C30   A    
C49   H27   S    
C9    C10   A    
C44   C47   A    
C40   H11   S    
O3    Zn1   S    
C21   C22   A    
C47   H19   S    
C32   N2    A    
N4    H25   S    
C1    O1    A    
N1    Zn1   S    
C24   C28   A    
C24   C25   A    
C7    H1    S    
C20   H6    S    
C39   C40   A    
O8    Zn2   S    
C27   H8    S    
O4    Zn2   S    
C50   H31   S    
C14   C45   A    
C16   C29   A    
C48   H20   S    
C31   H12   S    
C2    C4    A    
C34   O8    A    
C35   O9    S    
O6    Zn2   S    
C33   H15   S    
C20   C21   A    
C26   C27   A    
C34   C45   S    
C23   O6    A    
C49   H28   S    
C50   H30   S    
C42   H13   S    
C40   C41   A    
N5    H32   S    
C43   N1    A    
N3    H23   S    
C22   C27   A    
C37   N2    A    
C15   H10   S    
C12   O4    A    
C15   C45   A    
C19   H7    S    
C16   C25   A    
C46   C47   A    
C22   C30   A    
C17   C28   A    
O5    Zn1   S    
C4    C5    A    
C10   C13   A    
C38   C42   A    
C6    C7    A    
C3    C46   A    
N5    H33   S    
C1    O2    A    
C32   C33   A    
C36   C38   A    
C2    C3    A    
C25   C26   A    
C32   H14   S    
C29   N3    S    
O1    Zn1   S    
C34   O7    A    
C28   H4    S    
C5    C6    A    
C46   O10   S    
C26   N4    S    
C1    C30   S    
C33   C35   A    
C14   H17   S    
C31   C39   A    
C37   C41   A    
C50   H29   S    
C10   C11   A    
C43   H9    S    
C13   H2    S    
O9    C49   S    
C12   C44   S    
N3    H22   S    
C21   C24   A    
C41   H16   S    
C49   H26   S    
C13   C14   A    
C44   C48   A    
N2    Zn2   S    
