data_mof_unit_1990.cif
_audit_creation_date              2012-12-11T14:08:40-0500
_audit_creation_method            fapswitch 2.2
_symmetry_space_group_name_H-M    P1
_symmetry_Int_Tables_number       1
_space_group_crystal_system       triclinic
_cell_length_a                    28.203059
_cell_length_b                    7.195244
_cell_length_c                    17.220906
_cell_angle_alpha                 89.999239
_cell_angle_beta                  102.038771
_cell_angle_gamma                 90.000545
_cell_volume                      3417.74425683

loop_
_atom_site_label
_atom_site_type_symbol
_atom_type_description
_atom_site_fract_x
_atom_site_fract_y
_atom_site_fract_z
_atom_type_partial_charge
O1    O     O_R   0.000700 0.436510 0.857920 -0.532419
O2    O     O_R   0.999300 0.563490 0.142080 -0.532419
O3    O     O_R   0.999300 0.936510 0.642080 -0.532417
O4    O     O_R   0.000700 0.063490 0.357920 -0.532418
O5    O     O_R   0.930080 0.766380 0.721890 -0.540146
O6    O     O_R   0.069920 0.233620 0.278110 -0.540149
O7    O     O_R   0.069920 0.266380 0.778110 -0.540161
O8    O     O_R   0.930080 0.733620 0.221890 -0.540149
C1    C     C_R   0.910756 0.597696 0.708679 0.696769
C2    C     C_R   0.089245 0.402304 0.291320 0.696765
C3    C     C_R   0.089245 0.097697 0.791323 0.696775
C4    C     C_R   0.910756 0.902303 0.208680 0.696767
O9    O     O_R   0.996180 0.766230 0.862310 -0.546077
O10   O     O_R   0.003820 0.233770 0.137690 -0.546078
O11   O     O_R   0.003820 0.266230 0.637690 -0.546076
O12   O     O_R   0.996180 0.733770 0.362310 -0.546079
O13   O     O_R   0.065870 0.936460 0.783500 -0.536320
O14   O     O_R   0.934130 0.063540 0.216500 -0.536309
O15   O     O_R   0.934130 0.436460 0.716500 -0.536307
O16   O     O_R   0.065870 0.563540 0.283500 -0.536309
C5    C     C_R   0.998490 0.596420 0.894482 0.756532
C6    C     C_R   0.001510 0.403580 0.105518 0.756539
C7    C     C_R   0.001510 0.096421 0.605518 0.756547
C8    C     C_R   0.998490 0.903579 0.394482 0.756535
O17   O     O_3   0.022790 0.603020 0.723980 -0.377099
O18   O     O_3   0.977210 0.396980 0.276020 -0.377091
O19   O     O_3   0.977210 0.103020 0.776020 -0.377087
O20   O     O_3   0.022790 0.896980 0.223980 -0.377092
V1    V     V_3+5 0.995770 0.877900 0.754830 1.415557
V2    V     V_3+5 0.004230 0.122100 0.245170 1.415569
V3    V     V_3+5 0.004230 0.377900 0.745170 1.415547
V4    V     V_3+5 0.995770 0.622100 0.254830 1.415569
C9    C     C_2   0.001696 0.082602 0.519604 -0.332757
C10   C     C_2   0.998304 0.917398 0.480396 -0.332757
C11   C     C_2   0.998304 0.582602 0.980395 -0.332760
C12   C     C_2   0.001696 0.417398 0.019605 -0.332762
H1    H     H_    0.004470 0.211448 0.487988 0.152346
H2    H     H_    0.995529 0.788552 0.512011 0.152345
H3    H     H_    0.995529 0.711447 0.012010 0.152347
H4    H     H_    0.004471 0.288553 0.987990 0.152348
C13   C     C_R   0.678206 0.803941 0.062128 0.586421
C14   C     C_R   0.321793 0.196006 0.937949 0.586397
C15   C     C_R   0.321797 0.303927 0.437852 0.586425
C16   C     C_R   0.678206 0.696063 0.562118 0.586422
O21   O     O_2   0.702385 0.654270 0.043497 -0.503411
O22   O     O_2   0.297613 0.345651 0.956603 -0.503428
O23   O     O_2   0.297620 0.154227 0.456460 -0.503403
O24   O     O_2   0.702385 0.845752 0.543503 -0.503409
N1    N     N_R   0.703219 0.946117 0.105320 -0.562060
N2    N     N_R   0.296783 0.053856 0.894733 -0.562039
N3    N     N_R   0.296784 0.446127 0.394678 -0.562057
N4    N     N_R   0.703217 0.553877 0.605306 -0.562060
C17   C     C_R   0.679206 0.099002 0.125083 0.596497
C18   C     C_R   0.320798 0.900996 0.874952 0.596467
C19   C     C_R   0.320798 0.599029 0.374929 0.596501
C20   C     C_R   0.679203 0.400984 0.625062 0.596504
C21   C     C_R   0.776572 0.795923 0.183729 -0.068528
C22   C     C_R   0.223432 0.204204 0.816380 -0.068557
C23   C     C_R   0.223429 0.295927 0.316272 -0.068519
C24   C     C_R   0.776570 0.704064 0.683724 -0.068519
C25   C     C_R   0.827011 0.783383 0.208588 -0.194287
C26   C     C_R   0.172993 0.216752 0.791510 -0.194317
C27   C     C_R   0.172989 0.283382 0.291415 -0.194293
C28   C     C_R   0.827009 0.716607 0.708586 -0.194286
C29   C     C_R   0.836412 0.051045 0.127960 -0.228452
C30   C     C_R   0.163586 0.948813 0.871990 -0.228464
C31   C     C_R   0.163590 0.551058 0.372034 -0.228452
C32   C     C_R   0.836412 0.448955 0.627955 -0.228449
C33   C     C_R   0.785991 0.060979 0.101094 -0.022347
C34   C     C_R   0.214005 0.938876 0.898874 -0.022363
C35   C     C_R   0.214011 0.560992 0.398900 -0.022355
C36   C     C_R   0.785991 0.439020 0.601086 -0.022351
C37   C     C_R   0.755476 0.934868 0.130157 0.323038
C38   C     C_R   0.244525 0.065114 0.869885 0.323028
C39   C     C_R   0.244526 0.434878 0.369839 0.323014
C40   C     C_R   0.755475 0.565125 0.630149 0.323028
C41   C     C_R   0.602266 0.971666 0.054047 -0.046211
C42   C     C_R   0.397735 0.028300 0.946021 -0.046219
C43   C     C_R   0.397737 0.471674 0.445959 -0.046209
C44   C     C_R   0.602266 0.528323 0.554016 -0.046213
C45   C     C_R   0.627437 0.813609 0.036229 -0.041687
C46   C     C_R   0.372562 0.186339 0.963850 -0.041672
C47   C     C_R   0.372566 0.313598 0.463758 -0.041691
C48   C     C_R   0.627438 0.686390 0.536209 -0.041687
C49   C     C_R   0.601562 0.669023 0.992636 -0.130749
C50   C     C_R   0.398435 0.330909 0.007460 -0.130735
C51   C     C_R   0.398442 0.168991 0.507337 -0.130741
C52   C     C_R   0.601564 0.830983 0.492617 -0.130732
C53   C     C_R   0.628583 0.115547 0.098997 -0.032905
C54   C     C_R   0.371420 0.884439 0.901052 -0.032898
C55   C     C_R   0.371421 0.615569 0.401016 -0.032907
C56   C     C_R   0.628581 0.384440 0.598970 -0.032912
C57   C     C_R   0.857372 0.912347 0.181751 -0.052220
C58   C     C_R   0.142629 0.087649 0.818264 -0.052241
C59   C     C_R   0.142629 0.412351 0.318248 -0.052223
C60   C     C_R   0.857371 0.587649 0.681748 -0.052222
H5    H     H_    0.859459 0.149026 0.105371 0.128826
H6    H     H_    0.140537 0.850725 0.894521 0.128855
H7    H     H_    0.140543 0.649044 0.394619 0.128828
H8    H     H_    0.859460 0.350978 0.605366 0.128824
H9    H     H_    0.619920 0.545079 0.978571 0.177840
H10   H     H_    0.380075 0.454839 0.021538 0.177829
H11   H     H_    0.380084 0.045025 0.521382 0.177846
H12   H     H_    0.619923 0.954935 0.478560 0.177840
C61   C     C_R   0.473740 0.852655 0.954844 0.029768
C62   C     C_R   0.526261 0.147313 0.045225 0.029770
C63   C     C_R   0.526261 0.352662 0.545174 0.029765
C64   C     C_R   0.473742 0.647338 0.454801 0.029766
C65   C     C_R   0.475014 0.161880 0.017847 0.029739
C66   C     C_R   0.524985 0.838077 0.982233 0.029742
C67   C     C_R   0.524987 0.661915 0.482194 0.029737
C68   C     C_R   0.475016 0.338076 0.517773 0.029741
C69   C     C_R   0.449058 0.014218 0.973024 0.067082
C70   C     C_R   0.550942 0.985745 0.027048 0.067092
C71   C     C_R   0.550943 0.514239 0.527007 0.067099
C72   C     C_R   0.449060 0.485757 0.472965 0.067106
C73   C     C_R   0.445982 0.711146 0.909274 -0.186891
C74   C     C_R   0.554022 0.288843 0.090778 -0.186921
C75   C     C_R   0.554017 0.211154 0.590747 -0.186916
C76   C     C_R   0.445984 0.788862 0.409242 -0.186946
C77   C     C_R   0.396055 0.727133 0.883057 -0.129171
C78   C     C_R   0.603950 0.272865 0.116984 -0.129191
C79   C     C_R   0.603944 0.227131 0.616961 -0.129192
C80   C     C_R   0.396056 0.772889 0.383033 -0.129212
O25   O     O_2   0.295828 0.765462 0.829873 -0.517623
O26   O     O_2   0.704181 0.234575 0.170129 -0.517573
O27   O     O_2   0.704176 0.265402 0.670105 -0.517566
O28   O     O_2   0.295824 0.734623 0.329897 -0.517570
C81   C     C_R   0.551535 0.680212 0.966471 -0.186775
C82   C     C_R   0.448461 0.319723 0.033627 -0.186761
C83   C     C_R   0.448468 0.180183 0.533509 -0.186795
C84   C     C_R   0.551538 0.819790 0.466442 -0.186782
H13   H     H_    0.157749 0.325290 0.750202 0.138283
H14   H     H_    0.842259 0.674968 0.249953 0.138248
H15   H     H_    0.842257 0.825017 0.749953 0.138246
H16   H     H_    0.157741 0.174960 0.250055 0.138250
H17   H     H_    0.246257 0.302913 0.793890 0.154097
H18   H     H_    0.753749 0.697326 0.206282 0.154033
H19   H     H_    0.753746 0.802656 0.706278 0.154039
H20   H     H_    0.246251 0.197326 0.293722 0.154053
H21   H     H_    0.376734 0.614008 0.848742 0.171632
H22   H     H_    0.623273 0.386007 0.151285 0.171643
H23   H     H_    0.623264 0.114001 0.651275 0.171646
H24   H     H_    0.376735 0.886033 0.348732 0.171651
H25   H     H_    0.461508 0.584710 0.892425 0.130089
H26   H     H_    0.538499 0.415301 0.107614 0.130099
H27   H     H_    0.538487 0.084729 0.607605 0.130098
H28   H     H_    0.461511 0.915306 0.392399 0.130107
H29   H     H_    0.534945 0.561094 0.934021 0.129405
H30   H     H_    0.465048 0.438823 0.066099 0.129395
H31   H     H_    0.465060 0.061039 0.565937 0.129412
H32   H     H_    0.534948 0.938914 0.433995 0.129404
C85   C     C_1   0.766300 0.197090 0.041565 0.362433
N5    N     N_1   0.750532 0.305847 0.993612 -0.278193
C86   C     C_1   0.233688 0.802650 0.958359 0.362377
N6    N     N_1   0.249447 0.693801 0.006277 -0.278075
C87   C     C_1   0.233702 0.697105 0.458428 0.362467
N7    N     N_1   0.249468 0.805865 0.506379 -0.278177
C88   C     C_1   0.766302 0.302917 0.541553 0.362444
N8    N     N_1   0.750536 0.194166 0.493597 -0.278199

loop_
_geom_bond_atom_site_label_1
_geom_bond_atom_site_label_2
_ccdc_geom_bond_type
O17   V3    S    
C47   C51   A    
C61   C66   A    
N1    C17   A    
O1    C5    A    
C87   N7    T    
O19   V1    S    
O13   V1    S    
C63   C68   A    
C64   C76   A    
O3    C7    A    
C11   C12   D    
C14   C46   A    
C44   C48   A    
O15   V3    S    
C42   C54   A    
O7    C3    A    
C41   C53   A    
C32   C60   A    
C36   C88   S    
C62   C70   A    
C23   H20   S    
C26   H13   S    
C73   H25   S    
N3    C39   S    
C18   C54   A    
N2    C38   S    
C74   C78   A    
O4    C8    A    
C25   C57   A    
C31   C35   A    
C53   C78   A    
C75   H27   S    
C81   H29   S    
C27   C59   A    
O1    V3    S    
C15   C47   A    
C66   C81   A    
O2    V4    S    
C14   O22   S    
C20   O27   S    
C21   C37   A    
O3    V1    S    
C73   C77   A    
C34   C38   A    
C19   C55   A    
C49   C81   A    
C83   H31   S    
C1    O15   A    
C82   H30   S    
C2    O16   A    
C7    C9    S    
O2    C6    A    
C33   C37   A    
O14   V2    S    
C41   C45   A    
C66   C70   A    
C43   C55   A    
C65   C69   A    
C30   C58   A    
C16   N4    A    
O11   C7    A    
C28   H15   S    
O12   C8    A    
C43   C72   A    
C62   C74   A    
C31   C59   A    
C61   C73   A    
O10   V2    S    
C63   C75   A    
C52   H12   S    
C25   H14   S    
O5    V1    S    
C35   C87   S    
C18   O25   S    
C86   N6    T    
O7    V3    S    
C34   C86   S    
O8    V4    S    
C77   H21   S    
C12   H4    S    
C28   C60   A    
C56   C79   A    
O18   V4    S    
C50   C82   A    
N4    C40   S    
C46   C50   A    
C24   C40   A    
C8    C10   S    
O9    V1    S    
C32   C36   A    
C52   C84   A    
C44   C56   A    
C11   H3    S    
C32   H8    S    
O5    C1    A    
C42   C46   A    
C88   N8    T    
C44   C71   A    
C74   H26   S    
O8    C4    A    
C13   C45   A    
C9    C10   D    
O9    C5    A    
C36   C40   A    
N2    C18   A    
O11   V3    S    
C1    C60   S    
C63   C71   A    
C51   C83   A    
C22   C26   A    
C14   N2    A    
C51   H11   S    
C22   H17   S    
O6    V2    S    
C76   H28   S    
C75   C79   A    
C55   C80   A    
C26   C58   A    
C17   C53   A    
O10   C6    A    
C84   H32   S    
C54   C77   A    
N1    C37   S    
C4    C57   S    
C42   C69   A    
C78   H22   S    
C79   H23   S    
C41   C70   A    
C50   H10   S    
C23   C39   A    
C68   C72   A    
C49   H9    S    
C22   C38   A    
C9    H1    S    
O16   V4    S    
C61   C69   A    
C3    O13   A    
C10   H2    S    
C48   C52   A    
C3    C58   S    
C16   C48   A    
O6    C2    A    
C30   H6    S    
C21   C25   A    
C5    C11   S    
C31   H7    S    
O12   V4    S    
C13   N1    A    
C6    C12   S    
C23   C27   A    
C64   C67   A    
C24   C28   A    
C27   H16   S    
C64   C72   A    
O20   V2    S    
C29   H5    S    
C35   C39   A    
C15   N3    A    
C30   C34   A    
N4    C20   A    
C2    C59   S    
C29   C33   A    
C29   C57   A    
C21   H18   S    
N3    C19   A    
C68   C83   A    
C33   C85   S    
C17   O26   S    
C24   H19   S    
C43   C47   A    
C76   C80   A    
C67   C84   A    
C20   C56   A    
C19   O28   S    
C45   C49   A    
C4    O14   A    
C65   C82   A    
C13   O21   S    
C80   H24   S    
C67   C71   A    
C85   N5    T    
C15   O23   S    
O4    V2    S    
C16   O24   S    
C62   C65   A    
