data_mof_unit_4113.cif
_audit_creation_date              2012-12-10T19:07:04-0500
_audit_creation_method            fapswitch 2.2
_symmetry_space_group_name_H-M    P1
_symmetry_Int_Tables_number       1
_space_group_crystal_system       triclinic
_cell_length_a                    27.810934
_cell_length_b                    10.81235
_cell_length_c                    9.532747
_cell_angle_alpha                 89.909271
_cell_angle_beta                  90.208097
_cell_angle_gamma                 90.113812
_cell_volume                      2866.48369699

loop_
_atom_site_label
_atom_site_type_symbol
_atom_type_description
_atom_site_fract_x
_atom_site_fract_y
_atom_site_fract_z
_atom_type_partial_charge
C1    C     C_R   0.500795 0.262241 0.500086 0.804932
C2    C     C_R   0.281218 0.415305 0.594434 -0.102439
C3    C     C_R   0.254018 0.493434 0.508567 0.328271
C4    C     C_R   0.102242 0.488361 0.517508 -0.044130
C5    C     C_R   0.127864 0.386056 0.465665 -0.021367
C6    C     C_R   0.102688 0.283898 0.414192 -0.146736
C7    C     C_R   0.127923 0.591021 0.569348 -0.020807
C8    C     C_R   0.354797 0.502868 0.499988 -0.048374
C9    C     C_R   0.645595 0.496903 0.501054 -0.040712
C10   C     C_R   0.974618 0.381715 0.469551 0.042171
C11   C     C_R   0.974836 0.596143 0.559079 0.042404
C12   C     C_R   0.407600 0.502356 0.499682 0.792281
C13   C     C_R   0.949478 0.489328 0.512984 0.068153
C14   C     C_R   0.947440 0.276290 0.430388 -0.206091
C15   C     C_R   0.897508 0.278005 0.429227 -0.144839
C16   C     C_R   0.872530 0.384437 0.467637 -0.021142
C17   C     C_R   0.898329 0.490226 0.510089 -0.043735
C18   C     C_R   0.872832 0.596974 0.549530 -0.020864
C19   C     C_R   0.822368 0.596024 0.545743 0.534594
C20   C     C_R   0.822044 0.387245 0.465747 0.535154
C21   C     C_R   0.721177 0.496579 0.629613 -0.099807
C22   C     C_R   0.671069 0.498302 0.628708 -0.212044
C23   C     C_R   0.501216 0.737658 0.499902 0.798281
C24   C     C_R   0.671299 0.492357 0.374406 -0.213899
C25   C     C_R   0.721451 0.490327 0.375579 -0.099337
C26   C     C_R   0.746537 0.492795 0.503155 0.355504
C27   C     C_R   0.025761 0.382772 0.466908 0.042119
C28   C     C_R   0.051083 0.488257 0.516980 0.068234
C29   C     C_R   0.025903 0.593871 0.566045 0.042221
C30   C     C_R   0.052753 0.282079 0.414491 -0.205625
C31   C     C_R   0.102860 0.692311 0.622223 -0.147071
C32   C     C_R   0.947981 0.702476 0.595317 -0.206396
C33   C     C_R   0.898084 0.702494 0.590890 -0.145330
C34   C     C_R   0.592583 0.499226 0.500266 0.803499
C35   C     C_R   0.052953 0.693829 0.621111 -0.206125
C36   C     C_R   0.503735 0.063207 0.626205 0.143214
C37   C     C_R   0.505616 0.129130 0.500365 -0.102807
C38   C     C_R   0.514599 0.064745 0.375126 -0.214437
C39   C     C_R   0.514982 0.935806 0.375111 -0.219378
C40   C     C_R   0.506169 0.870683 0.500165 -0.091365
C41   C     C_R   0.503922 0.935978 0.625989 0.124753
C42   C     C_3   0.467945 0.928240 0.741597 -0.463453
C43   C     C_3   0.467783 0.068631 0.742131 -0.485776
C44   C     C_R   0.516906 0.600040 0.073634 0.247814
C45   C     C_R   0.178360 0.389044 0.464714 0.537393
C46   C     C_R   0.478339 0.407818 0.074382 -0.080424
C47   C     C_R   0.478278 0.407929 0.925431 -0.074639
C48   C     C_R   0.516865 0.600048 0.926256 0.253289
C49   C     C_3   0.566206 0.653591 0.920360 -0.493644
C50   C     C_3   0.566371 0.653207 0.079650 -0.495904
C51   C     C_R   0.178381 0.589973 0.567308 0.536151
C52   C     C_R   0.277070 0.576871 0.418694 -0.128925
C53   C     C_R   0.327427 0.583798 0.413699 0.050648
C54   C     C_R   0.331205 0.420217 0.590417 -0.254590
Cu1   Cu    Cu3+1 0.500000 0.499980 0.640670 0.942920
Cu2   Cu    Cu3+1 0.500000 0.500020 0.359330 0.938702
H1    H     H_    0.351631 0.358343 0.657334 0.150332
H2    H     H_    0.255358 0.637976 0.354409 0.141234
H3    H     H_    0.121770 0.771629 0.664741 0.187083
H4    H     H_    0.964301 0.788788 0.625457 0.139186
H5    H     H_    0.652766 0.490026 0.274479 0.150360
H6    H     H_    0.879335 0.786331 0.619969 0.188605
H7    H     H_    0.740872 0.487369 0.277397 0.141480
H8    H     H_    0.036787 0.774721 0.666408 0.140080
H9    H     H_    0.519054 0.113250 0.276509 0.165603
H10   H     H_    0.519488 0.887856 0.276474 0.156649
H11   H     H_    0.433190 0.887102 0.706993 0.197642
H12   H     H_    0.263552 0.351162 0.664854 0.150239
H13   H     H_    0.483499 0.887487 0.838780 0.194690
H14   H     H_    0.432907 0.109302 0.708264 0.193040
H15   H     H_    0.483343 0.108466 0.839692 0.194295
H16   H     H_    0.461521 0.332098 0.130003 0.141806
H17   H     H_    0.461246 0.332651 0.869658 0.136526
H18   H     H_    0.592830 0.588890 0.874902 0.212516
H19   H     H_    0.566372 0.748151 0.874413 0.196770
H20   H     H_    0.593046 0.588125 0.125124 0.213826
H21   H     H_    0.566897 0.747589 0.125458 0.190275
H22   H     H_    0.121531 0.204483 0.372522 0.186996
H23   H     H_    0.652406 0.500468 0.727962 0.149555
H24   H     H_    0.740377 0.497877 0.728635 0.140829
H25   H     H_    0.878510 0.194850 0.397976 0.188743
H26   H     H_    0.963496 0.189533 0.401679 0.139135
H27   H     H_    0.036536 0.200565 0.370101 0.139856
N1    N     N_R   0.202485 0.490323 0.514462 -0.462716
N2    N     N_R   0.798103 0.492054 0.504519 -0.468771
N3    N     N_R   0.500300 0.500930 0.147930 -0.184671
N4    N     N_R   0.500310 0.500890 0.852020 -0.182401
O1    O     O_R   0.500000 0.319640 0.618810 -0.581854
O2    O     O_2   0.797048 0.285816 0.426571 -0.533818
O3    O     O_2   0.203218 0.687653 0.617997 -0.544228
O4    O     O_2   0.797704 0.698390 0.582177 -0.534199
O5    O     O_R   0.500010 0.319680 0.381230 -0.588644
O6    O     O_R   0.430260 0.500000 0.618780 -0.580357
O7    O     O_R   0.430270 0.500040 0.381190 -0.580988
O8    O     O_R   0.499990 0.680320 0.618770 -0.580947
O9    O     O_R   0.500000 0.680360 0.381190 -0.584322
O10   O     O_R   0.569730 0.499960 0.618810 -0.582338
O11   O     O_R   0.569740 0.500000 0.381220 -0.582030
O12   O     O_2   0.203152 0.292216 0.412971 -0.541799
C55   C     C_3   0.350126 0.682629 0.322227 -0.405412
C56   C     C_3   0.369862 0.789393 0.411463 -0.331866
C57   C     C_3   0.391442 0.890816 0.319650 -0.825576
H28   H     H_    0.421295 0.853077 0.255658 0.256436
H29   H     H_    0.363565 0.930082 0.248843 0.256185
H30   H     H_    0.405731 0.966120 0.387154 0.249292
H31   H     H_    0.340305 0.829673 0.474862 0.234148
H32   H     H_    0.397983 0.755241 0.484626 0.203662
H33   H     H_    0.378726 0.642614 0.255605 0.221813
H34   H     H_    0.322936 0.720867 0.248150 0.197559

loop_
_geom_bond_atom_site_label_1
_geom_bond_atom_site_label_2
_ccdc_geom_bond_type
C10   C27   A    
C56   H32   S    
C21   C26   A    
C56   C57   S    
C41   C42   S    
Cu2   O11   S    
Cu1   Cu2   S    
C15   H25   S    
Cu2   O7    S    
C24   H5    S    
C36   C37   A    
C22   H23   S    
C2    H12   S    
C51   O3    S    
C5    C6    A    
C9    C22   A    
C6    H22   S    
C42   H11   S    
C23   C40   S    
C30   H27   S    
C34   O10   A    
C23   O9    A    
C57   H30   S    
C18   C19   A    
C25   H7    S    
C31   H3    S    
Cu1   O1    S    
C33   H6    S    
C49   H19   S    
C35   H8    S    
C46   H16   S    
C16   C20   A    
C1    O1    A    
C55   H34   S    
C21   C22   A    
C27   C30   A    
C12   O7    A    
C36   C41   A    
C4    C7    A    
C44   N3    A    
C4    C28   A    
C53   C55   S    
C55   H33   S    
C7    C31   A    
C24   C25   A    
C47   H17   S    
Cu1   O8    S    
C45   O12   S    
C8    C54   A    
C39   C40   A    
C16   C17   A    
C25   C26   A    
C5    C45   A    
C42   H13   S    
C47   N4    A    
C37   C38   A    
C50   H20   S    
Cu2   N3    S    
C38   H9    S    
C8    C12   S    
C20   N2    A    
Cu1   O10   S    
C17   C18   A    
C48   N4    A    
C57   H29   S    
C52   H2    S    
C40   C41   A    
C6    C30   A    
C11   C32   A    
C1    O5    A    
C2    C54   A    
C9    C34   S    
C39   H10   S    
C31   C35   A    
C12   O6    A    
C45   N1    A    
C42   C43   S    
C14   H26   S    
C50   H21   S    
C3    N1    S    
C52   C53   A    
C44   C50   S    
C56   H31   S    
Cu2   O9    S    
C46   C47   A    
C28   C29   A    
C43   H15   S    
C14   C15   A    
C4    C5    A    
C19   N2    A    
C10   C13   A    
C8    C53   A    
C3    C52   A    
C9    C24   A    
C1    C37   S    
C43   H14   S    
C20   O2    S    
C29   C35   A    
C13   C17   A    
C32   C33   A    
C2    C3    A    
C7    C51   A    
C11   C13   A    
C38   C39   A    
C26   N2    S    
C48   C49   S    
C51   N1    A    
C21   H24   S    
C55   C56   S    
C34   O11   A    
C23   O8    A    
Cu1   N4    S    
C57   H28   S    
C18   C33   A    
C19   O4    S    
C44   C48   A    
Cu2   O5    S    
C11   C29   A    
C49   C50   S    
C27   C28   A    
C32   H4    S    
C49   H18   S    
C36   C43   S    
Cu1   O6    S    
C15   C16   A    
C10   C14   A    
C46   N3    A    
C54   H1    S    
