data_mof_unit_1500.cif
_audit_creation_date              2012-12-10T17:33:02-0500
_audit_creation_method            fapswitch 2.2
_symmetry_space_group_name_H-M    P1
_symmetry_Int_Tables_number       1
_space_group_crystal_system       triclinic
_cell_length_a                    12.486633
_cell_length_b                    13.277579
_cell_length_c                    14.285619
_cell_angle_alpha                 94.42449
_cell_angle_beta                  108.011791
_cell_angle_gamma                 117.339826
_cell_volume                      1932.277925

loop_
_atom_site_label
_atom_site_type_symbol
_atom_type_description
_atom_site_fract_x
_atom_site_fract_y
_atom_site_fract_z
_atom_type_partial_charge
C1    C     C_R   0.650114 0.713956 0.507815 0.805558
C2    C     C_R   0.877023 0.541293 0.925760 0.010976
C3    C     C_R   0.834763 0.566889 0.001262 0.121210
C4    C     C_R   0.991703 0.532289 0.954438 0.090013
C5    C     C_R   0.053521 0.534722 0.057149 0.070492
C6    C     C_R   0.010014 0.562166 0.130538 -0.217751
C7    C     C_R   0.903772 0.578754 0.103067 -0.174361
C8    C     C_R   0.048279 0.523509 0.884364 -0.215474
C9    C     C_R   0.156278 0.509195 0.912425 -0.229559
C10   C     C_R   0.210842 0.501387 0.010548 0.160416
C11   C     C_R   0.158923 0.512399 0.083472 0.089378
C12   C     C_R   0.619200 0.518141 0.686982 0.847399
C13   C     C_R   0.317480 0.483143 0.036778 -0.188087
C14   C     C_R   0.373416 0.475553 0.134924 -0.184093
C15   C     C_R   0.212858 0.498468 0.179984 -0.226353
C16   C     C_R   0.137425 0.960107 0.361310 0.404660
C17   C     C_R   0.247761 0.160190 0.463256 -0.138288
C18   C     C_R   0.729152 0.924838 0.567161 -0.170797
C19   C     C_R   0.818226 0.042512 0.583031 -0.145529
C20   C     C_R   0.917849 0.074893 0.547128 -0.185180
C21   C     C_R   0.927899 0.989183 0.490761 0.107523
C22   C     C_R   0.827000 0.870249 0.463900 0.082845
C23   C     C_R   0.345326 0.284860 0.485153 0.816949
C24   C     C_R   0.034138 0.017894 0.459487 0.032297
C25   C     C_R   0.030791 0.930684 0.391929 0.046687
C26   C     C_R   0.922123 0.816709 0.357700 -0.208057
C27   C     C_R   0.821171 0.787994 0.391009 -0.179819
C28   C     C_R   0.145392 0.130700 0.495943 -0.261956
C29   C     C_R   0.245548 0.073792 0.399249 -0.178599
C30   C     C_R   0.733958 0.837389 0.510008 -0.117160
C31   C     C_R   0.260206 0.715319 0.627329 -0.233445
C32   C     C_R   0.650123 0.339240 0.361841 0.310141
C33   C     C_R   0.723896 0.307294 0.324856 -0.274383
C34   C     C_R   0.382201 0.483870 0.313311 0.784936
C35   C     C_R   0.859602 0.368600 0.369551 0.161055
C36   C     C_R   0.926547 0.464862 0.457570 -0.107623
C37   C     C_R   0.846827 0.500107 0.490753 0.146979
C38   C     C_R   0.068284 0.531779 0.511328 -0.018380
C39   C     C_R   0.125445 0.643158 0.577376 0.028503
C40   C     C_R   0.049502 0.681077 0.600819 -0.325859
C41   C     C_R   0.915731 0.607024 0.569947 0.435453
C42   C     C_R   0.157842 0.494876 0.505895 -0.063314
C43   C     C_R   0.341778 0.675934 0.618621 0.583719
C44   C     C_R   0.690961 0.534367 0.795500 -0.099622
C45   C     C_R   0.321302 0.483496 0.207136 -0.059755
C46   C     C_R   0.723778 0.579819 0.973985 0.407805
C47   C     C_R   0.653317 0.564461 0.870799 -0.297549
C48   C     C_R   0.800692 0.521582 0.823388 -0.243306
Cu1   Cu    Cu3+1 0.416420 0.526630 0.522910 0.944027
Cu2   Cu    Cu3+1 0.583580 0.473370 0.477090 0.987863
H1    H     H_    0.874763 0.599370 0.162508 0.183446
H2    H     H_    0.358261 0.475754 0.981517 0.132977
H3    H     H_    0.324497 0.095799 0.373636 0.174099
H4    H     H_    0.913860 0.747060 0.306288 0.155809
H5    H     H_    0.155580 0.198223 0.550775 0.159822
H6    H     H_    0.657793 0.902357 0.601490 0.198423
H7    H     H_    0.983109 0.167917 0.562462 0.125514
H8    H     H_    0.812405 0.109266 0.626130 0.149277
H9    H     H_    0.737121 0.700537 0.356340 0.172562
H10   H     H_    0.170629 0.497213 0.235333 0.149796
H11   H     H_    0.097293 0.766115 0.654238 0.145474
H12   H     H_    0.302961 0.801479 0.677140 0.160995
H13   H     H_    0.125084 0.409033 0.463708 0.148202
H14   H     H_    0.674196 0.235118 0.257285 0.168160
H15   H     H_    0.457566 0.464333 0.154356 0.168101
H16   H     H_    0.196662 0.503195 0.856470 0.143507
H17   H     H_    0.568553 0.574873 0.849427 0.150790
H18   H     H_    0.822897 0.492603 0.763280 0.178515
H19   H     H_    0.058731 0.575539 0.211019 0.154922
H20   H     H_    0.014237 0.531476 0.807736 0.148794
N1    N     N_R   0.290690 0.566960 0.557640 -0.233807
N2    N     N_R   0.709100 0.433710 0.442970 -0.182057
O1    O     O_R   0.545970 0.684450 0.528810 -0.569473
O2    O     O_R   0.687130 0.639470 0.490120 -0.533636
O3    O     O_R   0.519670 0.535100 0.660030 -0.620190
O4    O     O_R   0.660830 0.490120 0.621340 -0.518174
O5    O     O_R   0.312870 0.360530 0.509880 -0.593974
O6    O     O_R   0.454030 0.315550 0.471190 -0.556433
O7    O     O_R   0.339170 0.509880 0.378660 -0.582634
O8    O     O_R   0.480330 0.464900 0.339970 -0.572345
O9    O     O_3   0.139773 0.881831 0.293781 -0.734270
H21   H     H_    0.051039 0.833096 0.239737 0.321521
O10   O     O_3   0.473631 0.751032 0.672425 -0.760113
H22   H     H_    0.515574 0.703899 0.686234 0.357935
N3    N     N_3   0.511063 0.275308 0.309585 -0.518933
H23   H     H_    0.488968 0.284019 0.234911 0.198204
H24   H     H_    0.478349 0.186536 0.305456 0.189650
N4    N     N_3   0.922930 0.339099 0.313375 -0.593994
H25   H     H_    0.001045 0.414478 0.310369 0.220420
H26   H     H_    0.949403 0.280636 0.342987 0.218364
O11   O     O_3   0.856818 0.639164 0.622536 -0.694345
H27   H     H_    0.919796 0.712817 0.677564 0.301517
O12   O     O_3   0.685963 0.607180 0.048969 -0.765750
H28   H     H_    0.607348 0.613493 0.017025 0.320745

loop_
_geom_bond_atom_site_label_1
_geom_bond_atom_site_label_2
_ccdc_geom_bond_type
C6    H19   S    
O12   H28   S    
C43   O10   S    
C15   H10   S    
C19   C20   A    
C4    C8    A    
O9    H21   S    
C32   N2    A    
N3    H23   S    
C26   C27   A    
C17   C23   S    
C31   C43   A    
C1    O2    A    
C36   C37   A    
C5    C11   A    
C3    C7    A    
Cu2   O2    S    
C38   C39   A    
Cu2   O6    S    
C17   C29   A    
C18   C19   A    
Cu2   N2    S    
C9    H16   S    
C16   O9    S    
C34   O8    A    
C11   C15   A    
C35   C36   A    
C42   N1    A    
C8    C9    A    
Cu1   O3    S    
C18   C30   A    
C9    C10   A    
C44   C47   A    
C18   H6    S    
N4    H25   S    
C21   C22   A    
C31   H12   S    
C37   N2    A    
C26   H4    S    
C47   H17   S    
C28   H5    S    
C14   C45   A    
N3    H24   S    
C19   H8    S    
C24   C25   A    
O11   H27   S    
C2    C48   A    
C16   C29   A    
C23   O5    A    
C40   H11   S    
Cu1   O7    S    
C2    C4    A    
Cu2   O4    S    
C34   O7    A    
C13   H2    S    
C35   N4    S    
O10   H22   S    
C34   C45   S    
C48   H18   S    
C40   C41   A    
C41   O11   S    
N4    H26   S    
C22   C27   A    
C12   O4    A    
Cu1   O1    S    
C21   C24   A    
C15   C45   A    
C39   C40   A    
C16   C25   A    
C46   C47   A    
C43   N1    A    
C22   C30   A    
C17   C28   A    
C24   C28   A    
C4    C5    A    
C10   C13   A    
Cu2   O8    S    
C38   C42   A    
C6    C7    A    
C3    C46   A    
C8    H20   S    
C1    O1    A    
C32   C33   A    
C36   C38   A    
C2    C3    A    
C25   C26   A    
C7    H1    S    
C12   C44   S    
C27   H9    S    
C5    C6    A    
C46   O12   S    
C29   H3    S    
C33   H14   S    
C32   N3    S    
C1    C30   S    
C33   C35   A    
C14   H15   S    
Cu1   O5    S    
C23   O6    A    
C37   C41   A    
C10   C11   A    
C20   C21   A    
Cu1   Cu2   S    
Cu1   N1    S    
C12   O3    A    
C31   C39   A    
C20   H7    S    
C13   C14   A    
C42   H13   S    
C44   C48   A    
