data_mof_unit_2809.cif
_audit_creation_date              2013-03-05T16:06:56-0500
_audit_creation_method            fapswitch 2.2
_symmetry_space_group_name_H-M    P1
_symmetry_Int_Tables_number       1
_space_group_crystal_system       triclinic
_cell_length_a                    14.419178
_cell_length_b                    16.465201
_cell_length_c                    6.9512
_cell_angle_alpha                 90.102786
_cell_angle_beta                  99.303659
_cell_angle_gamma                 89.995918
_cell_volume                      1628.60488464

loop_
_atom_site_label
_atom_site_type_symbol
_atom_site_description
_atom_site_fract_x
_atom_site_fract_y
_atom_site_fract_z
_atom_type_partial_charge
O1    O     O_R   0.584990 0.413650 0.534420 -0.610299
O2    O     O_R   0.584990 0.586350 0.534420 -0.606732
O3    O     O_R   0.596190 0.585230 0.208380 -0.597023
O4    O     O_R   0.596190 0.414770 0.208380 -0.561946
O5    O     O_R   0.415010 0.586420 0.976930 -0.572037
O6    O     O_R   0.415010 0.413580 0.976930 -0.571393
C1    C     C_R   0.619248 0.614008 0.384948 0.968568
C2    C     C_R   0.618993 0.385818 0.385085 0.979561
O7    O     O_3   0.440560 0.500000 0.319140 -0.199355
V1    V     V_3+5 0.511030 0.500000 0.068070 1.283125
O8    O     O_R   0.403810 0.414840 0.643540 -0.556859
O9    O     O_R   0.403810 0.585160 0.643540 -0.556638
C3    C     C_R   0.381305 0.386688 0.806215 1.052054
C4    C     C_R   0.381189 0.613189 0.806309 1.053188
V2    V     V_3+5 0.488970 0.500000 0.560620 1.314348
O10   O     O_3   0.559440 0.500000 0.859420 -0.294752
C5    C     C_2   0.314791 0.682087 0.799908 -0.498901
C6    C     C_2   0.314472 0.318055 0.799763 -0.501078
C7    C     C_2   0.284423 0.713464 0.961102 0.268726
C8    C     C_2   0.284983 0.286265 0.961384 0.273243
H1    H     H_    0.213452 0.790383 0.249078 0.210187
H2    H     H_    0.215909 0.208334 0.250138 0.209056
C9    C     C_2   0.193348 0.818735 0.107739 -0.494582
C10   C     C_2   0.193505 0.181290 0.107763 -0.487755
C11   C     C_2   0.225011 0.788070 0.947181 0.321138
C12   C     C_2   0.223555 0.212887 0.946448 0.315209
H3    H     H_    0.293757 0.709942 0.658287 0.216842
H4    H     H_    0.291725 0.291103 0.657423 0.216328
C13   C     C_R   0.762519 0.686386 0.574785 0.154735
C14   C     C_R   0.757541 0.311430 0.585871 0.104269
C15   C     C_R   0.688617 0.682668 0.415461 -0.180529
C16   C     C_R   0.688274 0.317161 0.417718 -0.183593
C17   C     C_R   0.682335 0.748375 0.282907 -0.076130
C18   C     C_R   0.684870 0.253048 0.281139 -0.062798
H5    H     H_    0.626813 0.749156 0.157813 0.155247
H6    H     H_    0.631768 0.253381 0.151766 0.144266
C19   C     C_R   0.743113 0.816700 0.317972 -0.007017
C20   C     C_R   0.745239 0.184796 0.316548 -0.026653
H7    H     H_    0.729936 0.869021 0.225154 0.179564
H8    H     H_    0.733789 0.133473 0.220396 0.179019
C21   C     C_R   0.814809 0.820457 0.481476 -0.163220
C22   C     C_R   0.815040 0.180042 0.482803 -0.165268
C23   C     C_R   0.820204 0.754951 0.608960 0.071835
C24   C     C_R   0.816478 0.243006 0.617595 0.116325
C25   C     C_3   0.816906 0.755266 0.822586 0.039604
C26   C     C_3   0.806272 0.235243 0.826966 0.006388
C27   C     C_3   0.764229 0.673399 0.789427 -0.516526
C28   C     C_3   0.746432 0.313128 0.797500 -0.510780
H9    H     H_    0.693455 0.671642 0.833205 0.196847
H10   H     H_    0.672073 0.305389 0.818216 0.205482
O11   O     O_R   0.921430 0.915960 0.371040 -0.576634
O12   O     O_R   0.921430 0.084040 0.371040 -0.586107
O13   O     O_R   0.910450 0.087500 0.697310 -0.564580
O14   O     O_R   0.910450 0.912500 0.697310 -0.570388
O15   O     O_R   0.091710 0.087460 0.928430 -0.559000
O16   O     O_R   0.091710 0.912540 0.928430 -0.561733
C29   C     C_R   0.884725 0.111780 0.518092 0.973482
C30   C     C_R   0.884437 0.888564 0.517714 0.974882
O17   O     O_3   0.065970 1.000000 0.586140 -0.214668
V3    V     V_3+5 0.995640 1.000000 0.837400 1.368219
O18   O     O_R   0.103020 0.915700 0.261710 -0.570934
O19   O     O_R   0.103020 0.084300 0.261710 -0.572326
C31   C     C_R   0.126280 0.887214 0.099867 1.045289
C32   C     C_R   0.126158 0.112936 0.099959 1.060123
V4    V     V_3+5 0.017940 0.000000 0.344880 1.344472
O20   O     O_3   0.947330 1.000000 0.046180 -0.240602
N1    N     N_R   0.202725 0.827244 0.760845 0.241951
O21   O     O_R   0.140415 0.795654 0.625054 -0.379536
O22   O     O_R   0.249062 0.891545 0.723433 -0.349442
N2    N     N_R   0.197506 0.175977 0.757990 0.241471
O23   O     O_R   0.132860 0.209018 0.629713 -0.380801
O24   O     O_R   0.244521 0.113931 0.709069 -0.351191
C33   C     C_2   0.824542 0.601765 0.863835 1.071010
O25   O     O_2   0.854118 0.555588 0.749803 -0.580143
O26   O     O_R   0.852387 0.592620 0.064632 -0.777567
H11   H     H_    0.903364 0.550169 0.097721 0.354214
C34   C     C_2   0.791106 0.385849 0.906316 1.089074
O27   O     O_2   0.870707 0.407032 0.889757 -0.581192
O28   O     O_R   0.742923 0.425031 0.037484 -0.777341
H12   H     H_    0.784367 0.461219 0.132468 0.331156
N3    N     N_R   0.308630 0.675425 0.148310 0.239903
O29   O     O_R   0.372491 0.707607 0.280019 -0.408318
O30   O     O_R   0.261072 0.612906 0.192259 -0.337994
N4    N     N_R   0.311999 0.322682 0.150035 0.239541
O31   O     O_R   0.378121 0.289906 0.275397 -0.409501
O32   O     O_R   0.263805 0.383179 0.203005 -0.337925
N5    N     N_R   0.756669 0.821947 0.871870 0.227988
O33   O     O_R   0.794299 0.890239 0.938541 -0.372394
O34   O     O_R   0.666277 0.820190 0.812149 -0.390777
N6    N     N_R   0.750436 0.162882 0.859113 0.219960
O35   O     O_R   0.791692 0.097897 0.937024 -0.377674
O36   O     O_R   0.662456 0.157522 0.779354 -0.377416
C35   C     C_2   0.913434 0.754289 0.948905 1.028270
O37   O     O_2   0.984648 0.751281 0.874432 -0.631698
O38   O     O_R   0.920429 0.755291 0.151604 -0.757288
H13   H     H_    0.987944 0.753791 0.220675 0.336913
C36   C     C_2   0.900384 0.240167 0.962586 1.052450
O39   O     O_2   0.974021 0.235515 0.897165 -0.615652
O40   O     O_R   0.902820 0.253472 0.161513 -0.805392
H14   H     H_    0.969235 0.256353 0.236223 0.342556

loop_
_geom_bond_atom_site_label_1
_geom_bond_atom_site_label_2
_geom_bond_distance
_ccdc_geom_bond_type
C14   C16   1.412660 A    
N5    O33   1.300173 A    
C35   O37   1.223370 D    
O1    C2    1.300299 A    
C33   O26   1.397007 S    
C33   O25   1.222839 D    
O38   H13   1.013790 S    
C11   N1    1.437142 S    
O4    C2    1.309806 A    
C25   C35   1.520986 S    
C36   O39   1.223140 D    
C27   H9    1.111436 S    
O14   V3    2.035007 S    
C34   O27   1.222799 D    
C3    C6    1.481113 S    
C13   C27   1.503897 S    
C14   C28   1.505507 S    
C25   N5    1.473751 S    
N4    O32   1.300781 A    
C21   C30   1.498770 S    
C20   C22   1.406749 A    
O3    C1    1.306700 A    
C17   H5    1.082669 S    
V2    O10   2.159654 S    
O11   V4    1.991814 S    
C25   C27   1.545792 S    
O18   C31   1.310799 A    
O19   C32   1.311875 A    
N3    O30   1.300842 A    
O8    V2    2.009516 S    
O2    C1    1.303307 A    
C15   C17   1.415708 A    
N2    O23   1.301098 A    
O1    V2    2.012919 S    
O7    V1    2.156790 S    
C6    C8    1.368774 D    
C9    C31   1.480686 S    
V3    O20   1.708303 S    
O17   V3    2.156746 S    
C10   C32   1.481740 S    
O15   V3    2.026485 S    
C13   C23   1.399315 A    
C21   C23   1.391324 A    
C4    C5    1.480458 S    
C14   C24   1.407214 A    
C22   C24   1.394042 A    
C22   C29   1.501388 S    
C36   O40   1.394453 S    
O13   V3    2.037356 S    
C24   C26   1.491995 S    
N3    O29   1.301012 A    
C34   O28   1.390286 S    
C26   C28   1.540983 S    
C1    C15   1.501398 S    
N1    O21   1.301095 A    
C2    C16   1.501607 S    
C6    H4    1.084897 S    
N4    O31   1.300999 A    
C27   C33   1.507188 S    
O13   C29   1.304504 A    
C8    N4    1.436303 S    
C17   C19   1.422368 A    
O16   V3    2.027959 S    
N1    O22   1.300858 A    
C5    H3    1.084675 S    
C28   C34   1.503352 S    
O26   H11   1.013696 S    
N6    O36   1.302669 A    
O40   H14   1.013983 S    
O9    V2    2.007949 S    
C13   C15   1.408541 A    
O15   C32   1.284938 A    
O16   C31   1.285373 A    
O11   C30   1.305771 A    
O2    V2    2.013519 S    
C23   C25   1.493383 S    
O5    C4    1.285911 A    
C26   C36   1.524108 S    
O9    C4    1.310335 A    
H1    C9    1.084790 S    
C12   N2    1.436883 S    
H2    C10   1.084977 S    
O4    V1    2.011430 S    
O14   C30   1.304371 A    
O19   V4    1.999566 S    
C18   C20   1.418713 A    
C10   C12   1.369314 D    
O6    V1    2.014059 S    
C26   N6    1.475437 S    
N5    O34   1.302688 A    
O7    V2    1.710561 S    
O5    V1    2.015524 S    
C19   H7    1.075577 S    
O3    V1    2.009108 S    
V1    O10   1.708262 S    
O17   V4    1.707800 S    
O6    C3    1.285349 A    
C20   H8    1.072568 S    
O8    C3    1.311254 A    
N6    O35   1.299955 A    
C8    C12   1.491640 S    
C28   H10   1.112014 S    
C5    C7    1.367722 D    
C18   H6    1.082778 S    
C9    C11   1.368103 D    
C19   C21   1.408605 A    
C7    C11   1.491869 S    
O12   C29   1.306452 A    
O28   H12   1.009530 S    
O18   V4    1.998005 S    
C35   O38   1.396312 S    
V4    O20   2.159677 S    
N2    O24   1.300794 A    
C7    N3    1.436514 S    
O12   V4    1.991222 S    
C16   C18   1.414024 A    
