data_mof_unit_4770.cif
_audit_creation_date              2012-12-10T19:06:29-0500
_audit_creation_method            fapswitch 2.2
_symmetry_space_group_name_H-M    P1
_symmetry_Int_Tables_number       1
_space_group_crystal_system       triclinic
_cell_length_a                    23.47269
_cell_length_b                    10.810819
_cell_length_c                    9.543699
_cell_angle_alpha                 90.098065
_cell_angle_beta                  89.778611
_cell_angle_gamma                 90.049222
_cell_volume                      2421.77703729

loop_
_atom_site_label
_atom_site_type_symbol
_atom_type_description
_atom_site_fract_x
_atom_site_fract_y
_atom_site_fract_z
_atom_type_partial_charge
C1    C     C_R   0.498713 0.262310 0.499895 0.782829
C2    C     C_R   0.969029 0.362295 0.301611 -0.159179
C3    C     C_R   0.028470 0.361802 0.300710 -0.159740
C4    C     C_R   0.059059 0.431451 0.399550 -0.017185
C5    C     C_R   0.029315 0.502332 0.499866 -0.016619
C6    C     C_R   0.059558 0.572340 0.599583 -0.017326
C7    C     C_R   0.029462 0.642897 0.698998 -0.160163
C8    C     C_R   0.970016 0.643862 0.699514 -0.159186
C9    C     C_R   0.118826 0.431732 0.401254 0.539529
C10   C     C_R   0.119319 0.569873 0.597080 0.540300
C11   C     C_R   0.239338 0.552359 0.389761 -0.102551
C12   C     C_R   0.390960 0.497879 0.500307 0.810603
C13   C     C_R   0.298662 0.550403 0.390235 -0.280115
C14   C     C_R   0.328279 0.494096 0.500666 -0.065887
C15   C     C_R   0.297383 0.436225 0.610184 0.227173
C16   C     C_R   0.237713 0.440370 0.609334 -0.170073
C17   C     C_R   0.208702 0.498074 0.499585 0.321493
C18   C     C_R   0.760104 0.405147 0.562484 -0.092463
C19   C     C_R   0.700723 0.404622 0.561857 -0.304897
C20   C     C_R   0.670894 0.502767 0.500796 -0.138537
C21   C     C_R   0.700741 0.604561 0.445108 0.458223
C22   C     C_R   0.760337 0.603841 0.444748 -0.181323
C23   C     C_R   0.498615 0.737718 0.500040 0.813627
C24   C     C_R   0.789994 0.504365 0.503307 0.291483
C25   C     C_R   0.491549 0.063946 0.625645 0.123912
C26   C     C_R   0.492238 0.129317 0.499759 -0.097933
C27   C     C_R   0.483639 0.064297 0.373835 -0.227809
C28   C     C_R   0.483250 0.935271 0.374168 -0.219593
C29   C     C_R   0.492048 0.870758 0.500043 -0.100960
C30   C     C_R   0.491562 0.936783 0.625689 0.143487
C31   C     C_3   0.530428 0.930401 0.748768 -0.494735
C32   C     C_3   0.530486 0.070897 0.748825 -0.468021
C33   C     C_R   0.528935 0.589340 0.073711 0.151467
C34   C     C_R   0.608770 0.500196 0.499936 0.850415
C35   C     C_R   0.467227 0.419336 0.074578 -0.082177
C36   C     C_R   0.467164 0.419466 0.925730 -0.054403
C37   C     C_R   0.529430 0.588430 0.925888 0.164621
C38   C     C_3   0.591984 0.612619 0.916926 -0.567358
C39   C     C_3   0.591878 0.613160 0.076772 0.346773
C40   C     C_R   0.879657 0.573366 0.599422 0.543949
C41   C     C_R   0.879189 0.434353 0.404393 0.548021
C42   C     C_R   0.938942 0.432555 0.401270 -0.021136
C43   C     C_R   0.969182 0.503057 0.500594 -0.017204
C44   C     C_R   0.939430 0.574171 0.600737 -0.018905
Cu1   Cu    Cu3+1 0.500000 0.499980 0.640670 0.952476
Cu2   Cu    Cu3+1 0.500000 0.500020 0.359330 0.963523
H1    H     H_    0.946776 0.307450 0.224060 0.189453
H2    H     H_    0.677998 0.327034 0.607216 0.157972
H3    H     H_    0.783563 0.680750 0.399570 0.160361
H4    H     H_    0.479974 0.112285 0.274745 0.160288
H5    H     H_    0.478817 0.886768 0.275568 0.161975
H6    H     H_    0.508790 0.889945 0.841676 0.195202
H7    H     H_    0.572592 0.889710 0.722489 0.184535
H8    H     H_    0.509162 0.111495 0.842392 0.193258
H9    H     H_    0.572667 0.111721 0.722232 0.198058
H10   H     H_    0.441588 0.352335 0.130526 0.140269
H11   H     H_    0.050330 0.306566 0.222495 0.188852
H12   H     H_    0.441533 0.352560 0.870045 0.151670
H13   H     H_    0.615906 0.532720 0.872989 0.199796
H14   H     H_    0.601784 0.701611 0.864833 0.191709
H15   H     H_    0.615581 0.532851 0.119876 0.131249
H16   H     H_    0.051712 0.697538 0.776736 0.189095
H17   H     H_    0.948150 0.699221 0.777609 0.189829
H18   H     H_    0.217078 0.596990 0.304524 0.155788
H19   H     H_    0.321477 0.594790 0.305170 0.172358
H20   H     H_    0.213670 0.396413 0.692641 0.146075
H21   H     H_    0.782971 0.328440 0.608489 0.152258
N1    N     N_R   0.850989 0.504014 0.502403 -0.458937
N2    N     N_R   0.147599 0.500192 0.499059 -0.461436
N3    N     N_R   0.500360 0.500930 0.147930 -0.207303
N4    N     N_R   0.500360 0.500890 0.852020 -0.170402
O1    O     O_R   0.500000 0.319640 0.618810 -0.582977
O2    O     O_2   0.849442 0.367554 0.310075 -0.530436
O3    O     O_2   0.147996 0.363310 0.306870 -0.538205
O4    O     O_2   0.148985 0.637085 0.691182 -0.538383
O5    O     O_R   0.500010 0.319680 0.381230 -0.592477
O6    O     O_R   0.417880 0.499940 0.618820 -0.544355
O7    O     O_R   0.417880 0.499980 0.381240 -0.591751
O8    O     O_R   0.499990 0.680320 0.618770 -0.580283
O9    O     O_R   0.500000 0.680360 0.381190 -0.561872
O10   O     O_R   0.582120 0.500020 0.618760 -0.591203
O11   O     O_R   0.582120 0.500060 0.381180 -0.552796
O12   O     O_2   0.850360 0.640742 0.694526 -0.535427
O13   O     O_3   0.671958 0.703295 0.387359 -0.528831
C45   C     C_3   0.661736 0.791334 0.493633 -0.274705
H22   H     H_    0.636129 0.751507 0.581022 0.129087
H23   H     H_    0.636782 0.868684 0.448582 0.192396
H24   H     H_    0.702389 0.830222 0.534184 0.163362
O14   O     O_3   0.608862 0.724751 0.144911 -0.493901
C46   C     C_3   0.582343 0.833635 0.095388 -0.224655
H25   H     H_    0.536194 0.822269 0.074533 0.113404
H26   H     H_    0.604907 0.869207 0.001421 0.156672
H27   H     H_    0.586290 0.905812 0.177514 0.182692
N5    N     N_2   0.325741 0.371252 0.719217 -0.421316
H28   H     H_    0.304071 0.371974 0.813485 0.254486
C47   C     C_3   0.344116 0.248040 0.680447 -0.663777
H29   H     H_    0.306603 0.188802 0.657036 0.229142
H30   H     H_    0.368116 0.206112 0.768388 0.213883
H31   H     H_    0.372567 0.251032 0.587291 0.221830

loop_
_geom_bond_atom_site_label_1
_geom_bond_atom_site_label_2
_ccdc_geom_bond_type
C9    O3    S    
C4    C9    A    
C17   N2    S    
Cu1   N4    S    
C41   C42   A    
C19   C20   A    
C31   H6    S    
C15   N5    S    
Cu2   O5    S    
C7    C8    A    
C13   H19   S    
C45   H22   S    
C26   C27   A    
C29   C30   A    
C18   C24   A    
C23   C29   S    
C28   C29   A    
C9    N2    A    
C36   H12   S    
C5    C6    A    
C28   H5    S    
C15   C16   A    
C47   H31   S    
C18   C19   A    
Cu2   O11   S    
C35   C36   A    
C35   N3    A    
C16   C17   A    
C12   O7    A    
C34   O10   A    
C23   O9    A    
C32   H9    S    
C27   H4    S    
C20   C34   S    
C25   C32   S    
C5    C43   A    
C21   C22   A    
C47   H29   S    
Cu1   O1    S    
C40   O12   S    
C32   H8    S    
C41   N1    A    
C45   H23   S    
C38   C39   S    
C39   H15   S    
C1    O1    A    
O13   C45   S    
C11   H18   S    
Cu2   O7    S    
C19   H2    S    
C18   H21   S    
Cu1   Cu2   S    
C33   C37   A    
C47   H30   S    
C43   C44   A    
C7    H16   S    
C37   C38   S    
C10   O4    S    
C46   H26   S    
C31   C32   S    
C21   O13   S    
C12   O6    A    
Cu1   O8    S    
C33   C39   S    
C31   H7    S    
N5    C47   S    
C33   N3    A    
C22   H3    S    
C38   H14   S    
C3    H11   S    
C12   C14   S    
C37   N4    A    
C1    C26   S    
C22   C24   A    
C16   H20   S    
C42   C43   A    
C3    C4    A    
C46   H27   S    
C45   H24   S    
C25   C30   A    
C11   C17   A    
C35   H10   S    
C1    O5    A    
Cu1   O10   S    
C8    C44   A    
C4    C5    A    
C6    C10   A    
C36   N4    A    
C6    C7    A    
C2    H1    S    
C2    C3    A    
C25   C26   A    
Cu2   O9    S    
C11   C13   A    
C46   H25   S    
C30   C31   S    
C2    C42   A    
N5    H28   S    
Cu2   N3    S    
C24   N1    S    
C8    H17   S    
C41   O2    S    
C38   H13   S    
C10   N2    A    
C40   C44   A    
C20   C21   A    
C40   N1    A    
C27   C28   A    
C14   C15   A    
Cu1   O6    S    
C34   O11   A    
C23   O8    A    
O14   C46   S    
C13   C14   A    
C39   O14   S    
