data_mof_unit_1412.cif
_audit_creation_date              2012-10-26T19:42:19-0400
_audit_creation_method            fapswitch 2.2
_symmetry_space_group_name_H-M    P1
_symmetry_Int_Tables_number       1
_space_group_crystal_system       triclinic
_cell_length_a                    9.569494
_cell_length_b                    10.901772
_cell_length_c                    17.223983
_cell_angle_alpha                 93.125162
_cell_angle_beta                  86.159854
_cell_angle_gamma                 91.576204
_cell_volume                      1789.66847983

loop_
_atom_site_label
_atom_site_type_symbol
_atom_type_description
_atom_site_fract_x
_atom_site_fract_y
_atom_site_fract_z
_atom_type_partial_charge
C1    C     C_R   0.502344 0.737237 0.496558 0.567350
C2    C     C_R   0.527487 0.523540 0.266792 -0.009690
C3    C     C_R   0.292311 0.867528 0.419050 -0.079145
C4    C     C_R   0.482001 0.497488 0.650187 0.574989
C5    C     C_R   0.163446 0.918605 0.409330 -0.112559
C6    C     C_R   0.132167 0.032497 0.445089 -0.135664
C7    C     C_R   0.235273 0.101157 0.482726 -0.104948
C8    C     C_R   0.372174 0.055715 0.486146 -0.015315
C9    C     C_R   0.391620 0.930613 0.465097 -0.014341
C10   C     C_R   0.506296 0.871228 0.493005 0.009211
C11   C     C_R   0.614092 0.940640 0.528092 0.077590
C12   C     C_R   0.347375 0.526300 0.777841 -0.144073
C13   C     C_R   0.607910 0.069079 0.534400 0.075784
C14   C     C_R   0.489354 0.127882 0.510780 0.007054
C15   C     C_R   0.864167 0.340998 0.392618 -0.087048
C16   C     C_R   0.496720 0.262396 0.504479 0.564602
C17   C     C_R   0.941148 0.267162 0.338227 -0.181685
C18   C     C_R   0.085205 0.268293 0.337900 -0.164498
C19   C     C_R   0.152887 0.342252 0.392533 -0.093933
C20   C     C_R   0.078990 0.422370 0.447086 0.145288
C21   C     C_R   0.929244 0.422119 0.447131 0.162812
C22   C     C_R   0.922285 0.574333 0.550165 0.008244
C23   C     C_R   0.427153 0.609071 0.155868 0.052938
C24   C     C_R   0.070392 0.574250 0.550171 -0.003761
C25   C     C_R   0.518131 0.503762 0.350162 0.525135
C26   C     C_R   0.472779 0.493589 0.735578 0.028930
C27   C     C_R   0.588094 0.458800 0.775799 0.078951
C28   C     C_R   0.578537 0.464151 0.856935 -0.106734
C29   C     C_R   0.456239 0.503589 0.898844 0.078138
C30   C     C_R   0.337883 0.530860 0.859484 0.107656
C31   C     C_2   0.313575 0.679932 0.125699 0.560929
C32   C     C_R   0.417962 0.581887 0.234490 -0.136157
C33   C     C_R   0.648096 0.492502 0.220357 -0.129571
C34   C     C_R   0.656853 0.515162 0.141536 -0.136064
C35   C     C_R   0.546548 0.571346 0.108519 0.013955
C36   C     C_2   0.452469 0.513133 0.984211 -0.033535
C37   C     C_2   0.551739 0.575084 0.023176 0.113509
Cu1   Cu    Cu3+1 0.359340 0.500010 0.500010 0.907800
Cu2   Cu    Cu3+1 0.640660 0.499990 0.499990 0.977699
H1    H     H_    0.748080 0.484868 0.105730 0.124702
H2    H     H_    0.144952 0.208383 0.296693 0.136424
H3    H     H_    0.262703 0.330014 0.390912 0.188969
H4    H     H_    0.122833 0.635087 0.591239 0.118581
H5    H     H_    0.734159 0.448412 0.244613 0.135274
H6    H     H_    0.257691 0.551261 0.747409 0.120342
H7    H     H_    0.365286 0.468269 0.016102 0.122760
H8    H     H_    0.667378 0.437219 0.887431 0.124784
H9    H     H_    0.732302 0.327665 0.751630 0.224183
H10   H     H_    0.797529 0.473500 0.752272 0.223939
H11   H     H_    0.822896 0.910386 0.529949 0.225635
H12   H     H_    0.312644 0.778076 0.390932 0.140286
H13   H     H_    0.731046 0.902410 0.617895 0.221805
H14   H     H_    0.727815 0.114346 0.625640 0.225159
H15   H     H_    0.812947 0.123587 0.535910 0.223661
H16   H     H_    0.660542 0.733522 0.005761 0.262479
H17   H     H_    0.758145 0.606403 0.994547 0.219545
H18   H     H_    0.227360 0.653898 0.928179 0.255161
H19   H     H_    0.129837 0.573592 0.865016 0.219110
H20   H     H_    0.257108 0.799869 0.048945 0.333881
H21   H     H_    0.085952 0.867654 0.376777 0.131374
H22   H     H_    0.028441 0.068649 0.442692 0.116636
H23   H     H_    0.201824 0.185564 0.512648 0.154933
H24   H     H_    0.863745 0.635170 0.591226 0.133025
H25   H     H_    0.754255 0.329700 0.389253 0.179942
H26   H     H_    0.888222 0.206987 0.296891 0.124129
H27   H     H_    0.327143 0.610360 0.271408 0.156160
N1    N     N_R   0.852190 0.498790 0.499250 -0.239449
N2    N     N_R   0.148060 0.498710 0.499220 -0.248896
N3    N     N_3   0.714499 0.416357 0.734862 -0.590042
N4    N     N_3   0.729104 0.880279 0.558175 -0.613233
N5    N     N_3   0.718884 0.140272 0.568703 -0.588466
N6    N     N_3   0.662402 0.642788 0.982803 -0.616746
N7    N     N_3   0.210210 0.566117 0.902617 -0.624811
O1    O     O_R   0.381190 0.680360 0.500010 -0.519120
O2    O     O_R   0.342527 0.754998 0.063030 -0.701166
O3    O     O_R   0.618760 0.680340 0.500000 -0.459458
O4    O     O_R   0.367440 0.500030 0.613600 -0.519456
O5    O     O_R   0.605010 0.500010 0.613590 -0.452196
O6    O     O_R   0.381240 0.319660 0.500000 -0.548373
O7    O     O_R   0.618810 0.319640 0.499990 -0.479176
O8    O     O_R   0.394990 0.499990 0.386410 -0.533077
O9    O     O_R   0.632560 0.499970 0.386400 -0.525778
O10   O     O_2   0.195115 0.675368 0.157044 -0.533278

loop_
_geom_bond_atom_site_label_1
_geom_bond_atom_site_label_2
_ccdc_geom_bond_type
C28   H8    S    
C19   C20   A    
H9    N3    S    
C11   N4    S    
C7    C8    A    
C29   C36   S    
C26   C27   A    
C34   H1    S    
C1    O1    A    
C6    H22   S    
C36   C37   D    
C35   C37   S    
C18   C19   A    
Cu1   Cu2   S    
Cu1   O6    S    
C31   O10   D    
C2    C32   A    
C34   C35   A    
H18   N7    S    
C22   H24   S    
H15   N5    S    
C8    C9    A    
H17   N6    S    
C15   H25   S    
C36   H7    S    
C9    C10   A    
H16   N6    S    
C27   N3    S    
C19   H3    S    
H10   N3    S    
C13   C14   A    
C21   N1    A    
C25   O8    A    
C1    O3    A    
C33   C34   A    
Cu2   O5    S    
C18   H2    S    
C30   N7    S    
C3    H12   S    
C13   N5    S    
C12   C26   A    
C16   O7    A    
C23   C31   S    
C7    H23   S    
C4    O5    A    
C29   C30   A    
C3    C9    A    
C31   O2    S    
C17   C18   A    
Cu2   O3    S    
C2    C33   A    
Cu1   N2    S    
C23   C35   A    
Cu1   O8    S    
C25   O9    A    
C14   C16   S    
H14   N5    S    
H20   O2    S    
C32   H27   S    
Cu1   O1    S    
C15   C17   A    
C28   C29   A    
C8    C14   A    
C5    H21   S    
C12   C30   A    
C33   H5    S    
Cu2   N1    S    
C20   N2    A    
C1    C10   S    
Cu2   O9    S    
C12   H6    S    
C3    C5    A    
C4    C26   S    
C6    C7    A    
Cu1   O4    S    
C17   H26   S    
C16   O6    A    
C23   C32   A    
H11   N4    S    
C4    O4    A    
Cu2   O7    S    
C11   C13   A    
C5    C6    A    
C2    C25   S    
C22   C24   A    
C22   N1    A    
H13   N4    S    
C10   C11   A    
C24   N2    A    
C15   C21   A    
C20   C21   A    
C37   N6    S    
C27   C28   A    
C24   H4    S    
H19   N7    S    
