data_mof_unit_1894.cif
_audit_creation_date              2013-03-05T16:11:20-0500
_audit_creation_method            fapswitch 2.2
_symmetry_space_group_name_H-M    P1
_symmetry_Int_Tables_number       1
_space_group_crystal_system       triclinic
_cell_length_a                    10.696163
_cell_length_b                    9.892803
_cell_length_c                    10.676196
_cell_angle_alpha                 90.798214
_cell_angle_beta                  92.22446
_cell_angle_gamma                 91.399323
_cell_volume                      1128.38890171

loop_
_atom_site_label
_atom_site_type_symbol
_atom_site_description
_atom_site_fract_x
_atom_site_fract_y
_atom_site_fract_z
_atom_type_partial_charge
O1    O     O_R   0.316750 0.614620 0.499990 -0.616819
O2    O     O_R   0.316750 0.385380 0.499990 -0.618113
C1    C     C_R   0.260580 0.498499 0.497711 0.937342
O3    O     O_R   0.499970 0.614670 0.314790 -0.632472
O4    O     O_R   0.499970 0.385330 0.314790 -0.624976
C2    C     C_R   0.496175 0.498848 0.257977 0.857937
Zn1   Zn    Zn3+2 0.499980 0.653120 0.500000 0.961627
Zn2   Zn    Zn3+2 0.499980 0.346880 0.500000 0.985440
O5    O     O_R   0.683220 0.614710 0.500010 -0.652397
O6    O     O_R   0.683220 0.385290 0.500010 -0.576559
O7    O     O_R   0.500010 0.614660 0.685200 -0.611609
O8    O     O_R   0.500010 0.385340 0.685200 -0.598267
C3    C     C_R   0.739862 0.501340 0.499723 0.998609
C4    C     C_R   0.502325 0.500497 0.742706 0.918972
C5    C     C_3   0.384293 0.573545 0.067647 -0.393872
C6    C     C_3   0.494832 0.350001 0.069845 -0.396344
H1    H     H_    0.388060 0.681047 0.100139 0.207302
H2    H     H_    0.577512 0.294635 0.106949 0.206097
H3    H     H_    0.295647 0.526942 0.100107 0.169471
H4    H     H_    0.409045 0.294893 0.099332 0.192960
C7    C     C_3   0.384556 0.568241 0.924227 -0.403859
C8    C     C_3   0.496088 0.350851 0.927302 -0.411037
H5    H     H_    0.300967 0.507932 0.888733 0.170567
H6    H     H_    0.408821 0.299424 0.888575 0.195662
H7    H     H_    0.371328 0.670408 0.885383 0.238179
H8    H     H_    0.574893 0.289338 0.895974 0.232202
H9    H     H_    0.622538 0.675648 0.121839 0.208221
H10   H     H_    0.699943 0.519970 0.133046 0.180905
C9    C     C_3   0.619856 0.569722 0.084727 -0.436309
C10   C     C_3   0.498025 0.497328 0.122226 0.063257
C11   C     C_3   0.505335 0.499782 0.880171 -0.019125
C12   C     C_3   0.630917 0.568714 0.940129 0.534651
C13   C     C_R   0.059577 0.420378 0.407013 0.021585
C14   C     C_R   0.072394 0.574935 0.589206 0.014606
C15   C     C_R   0.929490 0.423796 0.406189 0.011752
C16   C     C_R   0.942954 0.579066 0.588047 0.018879
C17   C     C_R   0.872820 0.503224 0.496984 -0.058306
C18   C     C_R   0.128536 0.496231 0.498602 -0.059918
C19   C     C_R   0.588986 0.076735 0.567800 0.192595
C20   C     C_R   0.591214 0.933337 0.564985 0.119351
N1    N     N_R   0.499970 0.857200 0.499970 -0.105005
N2    N     N_R   0.499970 0.142800 0.499970 -0.097685
C21   C     C_R   0.409487 0.924727 0.434149 -0.093290
C22   C     C_R   0.410163 0.068259 0.433211 -0.126816
H11   H     H_    0.337106 0.868000 0.381176 0.143688
H12   H     H_    0.338336 0.119561 0.379430 0.147531
N3    N     N_R   0.650626 0.710060 0.900572 0.174560
O9    O     O_R   0.559822 0.794995 0.902769 -0.442098
O10   O     O_R   0.764032 0.760911 0.901741 -0.388523
N4    N     N_R   0.742124 0.490115 0.907668 0.167203
O11   O     O_R   0.745543 0.424414 0.801468 -0.452231
O12   O     O_R   0.846645 0.505841 0.973720 -0.423119
N5    N     N_3   0.122785 0.344111 0.314171 -0.468830
H13   H     H_    0.097379 0.380018 0.225407 0.191974
H14   H     H_    0.094432 0.242553 0.319188 0.188692
N6    N     N_3   0.148153 0.647639 0.683276 -0.453205
H15   H     H_    0.130635 0.750809 0.676779 0.198602
H16   H     H_    0.124510 0.614285 0.771894 0.188606
N7    N     N_3   0.854054 0.349630 0.313113 -0.457258
H17   H     H_    0.873106 0.246883 0.320587 0.196103
H18   H     H_    0.878047 0.382008 0.224266 0.213731
N8    N     N_3   0.882502 0.655401 0.681897 -0.405268
H19   H     H_    0.911432 0.618929 0.769129 0.283476
H20   H     H_    0.914583 0.755765 0.678022 0.192013
N9    N     N_3   0.681223 0.153705 0.640711 -0.352499
H21   H     H_    0.769524 0.131095 0.608569 0.186779
H22   H     H_    0.677345 0.123364 0.733922 0.212752
N10   N     N_3   0.695390 0.870903 0.624466 -0.439536
H23   H     H_    0.663520 0.785627 0.670194 0.296208
H24   H     H_    0.754153 0.842602 0.553408 0.195259

loop_
_geom_bond_atom_site_label_1
_geom_bond_atom_site_label_2
_geom_bond_distance
_ccdc_geom_bond_type
O4    Zn2   2.018786 S    
N4    O12   1.303307 A    
C21   C22   1.419945 A    
C14   N6    1.439036 S    
C9    C10   1.540847 S    
O2    C1    1.283091 A    
C9    C12   1.552769 S    
C7    C11   1.558806 S    
C19   N9    1.430473 S    
C3    C17   1.423246 S    
C11   C12   1.598578 S    
N9    H22   1.045482 S    
C6    H4    1.114026 S    
C4    C11   1.466824 S    
Zn2   O8    2.008281 S    
C12   N3    1.478857 S    
C15   N7    1.437126 S    
Zn1   N1    2.018930 S    
N4    O11   1.301225 A    
N7    H17   1.045077 S    
C21   H11   1.081724 S    
C6    H2    1.114232 S    
O1    Zn1   1.987368 S    
N5    H13   1.045082 S    
C5    H3    1.113680 S    
N1    C21   1.366975 A    
C12   N4    1.486354 S    
C7    H7    1.107997 S    
N8    H19   1.041977 S    
C8    H8    1.110835 S    
N2    C22   1.368254 A    
O3    Zn1   2.008377 S    
C16   N8    1.430165 S    
N10   H24   1.043387 S    
C16   C17   1.402305 A    
C2    C10   1.450080 S    
O8    C4    1.285824 A    
Zn1   O7    2.018694 S    
C19   N2    1.359473 A    
C14   C16   1.385690 A    
N5    H14   1.045044 S    
C7    H5    1.113676 S    
C13   N5    1.436988 S    
O4    C2    1.284520 A    
C13   C15   1.392352 A    
O7    C4    1.293278 A    
C8    H6    1.114464 S    
N7    H18   1.044782 S    
O3    C2    1.287977 A    
H9    C9    1.114454 S    
C8    C11   1.565604 S    
Zn2   N2    2.018916 S    
Zn1   O5    2.005544 S    
C5    C7    1.531459 S    
N6    H15   1.044960 S    
C5    C10   1.545939 S    
N3    O10   1.301333 A    
N9    H21   1.045545 S    
C20   N10   1.419848 S    
C19   C20   1.419310 A    
C5    H1    1.113339 S    
C20   N1    1.377887 A    
O5    C3    1.287700 A    
H10   C9    1.111550 S    
C13   C18   1.399932 A    
N8    H20   1.044450 S    
C22   H12   1.081865 S    
C15   C17   1.404333 A    
C14   C18   1.396229 A    
N6    H16   1.044576 S    
C6    C10   1.552909 S    
Zn2   O6    1.987324 S    
O2    Zn2   2.005629 S    
N3    O9    1.300372 A    
C1    C18   1.412390 S    
C6    C8    1.522544 S    
N10   H23   1.037580 S    
O1    C1    1.282807 A    
O6    C3    1.285058 A    
