data_mof_unit_3726.cif
_audit_creation_date              2012-12-10T17:46:32-0500
_audit_creation_method            fapswitch 2.2
_symmetry_space_group_name_H-M    P1
_symmetry_Int_Tables_number       1
_space_group_crystal_system       triclinic
_cell_length_a                    20.770484
_cell_length_b                    21.149942
_cell_length_c                    14.778718
_cell_angle_alpha                 90.185881
_cell_angle_beta                  127.6583
_cell_angle_gamma                 89.908142
_cell_volume                      5139.64983387

loop_
_atom_site_label
_atom_site_type_symbol
_atom_type_description
_atom_site_fract_x
_atom_site_fract_y
_atom_site_fract_z
_atom_type_partial_charge
C1    C     C_R   0.603008 0.913857 0.631539 0.848197
C2    C     C_R   0.396980 0.086136 0.368447 0.848200
C3    C     C_R   0.397573 0.913390 0.369033 0.850606
C4    C     C_R   0.602427 0.086610 0.630966 0.850573
C5    C     C_R   0.102651 0.413623 0.631085 0.849426
C6    C     C_R   0.897340 0.586367 0.368905 0.849434
C7    C     C_R   0.896267 0.414462 0.367421 0.846136
C8    C     C_R   0.103731 0.585540 0.632575 0.846155
C9    C     C_R   0.346439 0.761210 0.944529 -0.141269
C10   C     C_R   0.653461 0.238888 0.055330 -0.141348
C11   C     C_R   0.702221 0.796875 0.111128 -0.167459
C12   C     C_R   0.297365 0.202865 0.888465 -0.167551
C13   C     C_R   0.796369 0.299043 0.886035 -0.144279
C14   C     C_R   0.203719 0.700913 0.114039 -0.144253
C15   C     C_R   0.170054 0.275003 0.075617 -0.155956
C16   C     C_R   0.829940 0.725006 0.924400 -0.155975
C17   C     C_R   0.322893 0.011123 0.666423 0.284414
C18   C     C_R   0.677032 0.988642 0.333470 0.284440
C19   C     C_R   0.823817 0.516788 0.667361 0.289383
C20   C     C_R   0.176186 0.483221 0.332643 0.289375
C21   C     C_R   0.352303 0.004626 0.603676 0.711321
C22   C     C_R   0.647678 0.995231 0.396274 0.711125
C23   C     C_R   0.852576 0.507258 0.604129 0.708804
C24   C     C_R   0.147425 0.492746 0.395873 0.708844
C25   C     C_R   0.487810 0.999204 0.774182 -0.067901
C26   C     C_R   0.512163 0.000878 0.225823 -0.068128
C27   C     C_R   0.987671 0.497760 0.774389 -0.060615
C28   C     C_R   0.012330 0.502240 0.225611 -0.060628
C29   C     C_R   0.462219 0.000810 0.844675 -0.047831
C30   C     C_R   0.537695 0.999084 0.155262 -0.047912
C31   C     C_R   0.961936 0.500639 0.844682 -0.049493
C32   C     C_R   0.038068 0.499366 0.155321 -0.049485
C33   C     C_R   0.377528 0.007845 0.786873 -0.135887
C34   C     C_R   0.622370 0.991931 0.213023 -0.135725
C35   C     C_R   0.878270 0.512759 0.787753 -0.134195
C36   C     C_R   0.121735 0.487249 0.212251 -0.134187
C37   C     C_R   0.516259 0.997151 0.968551 -0.061317
C38   C     C_R   0.483625 0.002675 0.031367 -0.061434
C39   C     C_R   0.015493 0.494591 0.968083 -0.063093
C40   C     C_R   0.984512 0.505416 0.031920 -0.063107
C41   C     C_R   0.398429 0.012008 0.967280 0.545776
C42   C     C_R   0.601416 0.987656 0.032590 0.545647
C43   C     C_R   0.901568 0.522766 0.969590 0.544129
C44   C     C_R   0.098439 0.477245 0.030415 0.544103
C45   C     C_R   0.347657 0.013252 0.849041 -0.178268
C46   C     C_R   0.652201 0.986383 0.150822 -0.178129
C47   C     C_R   0.849945 0.523703 0.851091 -0.178722
C48   C     C_R   0.150061 0.476310 0.148915 -0.178765
C49   C     C_R   0.656392 0.139708 0.699256 -0.153013
C50   C     C_R   0.343613 0.860290 0.300748 -0.153048
C51   C     C_R   0.337224 0.134820 0.293326 -0.148493
C52   C     C_R   0.662735 0.865150 0.706626 -0.148581
C53   C     C_R   0.166648 0.631518 0.711703 -0.154773
C54   C     C_R   0.833333 0.368497 0.288274 -0.154766
C55   C     C_R   0.842403 0.638616 0.299617 -0.147543
C56   C     C_R   0.157532 0.361331 0.700315 -0.147530
C57   C     C_R   0.747448 0.223846 0.732383 0.620921
C58   C     C_R   0.252634 0.776105 0.267695 0.620922
C59   C     C_R   0.232076 0.209544 0.243998 0.592252
C60   C     C_R   0.767960 0.790485 0.756054 0.592225
C61   C     C_R   0.281585 0.697834 0.772494 0.620573
C62   C     C_R   0.718325 0.302249 0.227383 0.620527
C63   C     C_R   0.754328 0.724703 0.268823 0.587524
C64   C     C_R   0.245376 0.275104 0.730881 0.587598
C65   C     C_R   0.700623 0.171106 0.670045 -0.216470
C66   C     C_R   0.299435 0.828858 0.330015 -0.216427
C67   C     C_R   0.287421 0.162843 0.316143 -0.223394
C68   C     C_R   0.712617 0.837185 0.683902 -0.223405
C69   C     C_R   0.221678 0.654923 0.695000 -0.207751
C70   C     C_R   0.778258 0.345134 0.304915 -0.207748
C71   C     C_R   0.801491 0.672448 0.332055 -0.222706
C72   C     C_R   0.198326 0.327426 0.667760 -0.222702
C73   C     C_R   0.659651 0.161249 0.791336 -0.234851
C74   C     C_R   0.340315 0.838778 0.208624 -0.234698
C75   C     C_R   0.330514 0.153265 0.197221 -0.218969
C76   C     C_R   0.669338 0.846630 0.802613 -0.218886
C77   C     C_R   0.172775 0.650597 0.807233 -0.237065
C78   C     C_R   0.827236 0.349399 0.192771 -0.237091
C79   C     C_R   0.834911 0.656815 0.202887 -0.225154
C80   C     C_R   0.165044 0.343140 0.797065 -0.225158
C81   C     C_R   0.703014 0.215990 0.852103 0.016764
C82   C     C_R   0.296982 0.784024 0.147878 0.016728
C83   C     C_R   0.273359 0.198550 0.120645 0.019923
C84   C     C_R   0.726486 0.801348 0.879202 0.019905
C85   C     C_R   0.234423 0.691810 0.889072 0.020358
C86   C     C_R   0.765563 0.308215 0.110894 0.020359
C87   C     C_R   0.791249 0.711064 0.140808 0.018989
C88   C     C_R   0.208594 0.288832 0.859039 0.018994
C89   C     C_R   0.749205 0.246469 0.823489 0.017253
C90   C     C_R   0.250849 0.753506 0.176554 0.017244
C91   C     C_R   0.224951 0.227882 0.146777 0.020753
C92   C     C_R   0.775003 0.772094 0.853191 0.020753
C93   C     C_R   0.287855 0.717017 0.868817 0.014349
C94   C     C_R   0.712077 0.283051 0.131085 0.014396
C95   C     C_R   0.749022 0.744389 0.173589 0.031053
C96   C     C_R   0.250693 0.255427 0.826129 0.031134
C97   C     C_R   0.703155 0.240146 0.942172 0.106984
C98   C     C_R   0.296818 0.759890 0.057778 0.106952
C99   C     C_R   0.264458 0.216359 0.020570 0.100393
C100  C     C_R   0.735306 0.783490 0.979199 0.100255
C101  C     C_R   0.242377 0.710230 0.988149 0.108421
C102  C     C_R   0.757632 0.289781 0.011840 0.108422
C103  C     C_R   0.787694 0.732421 0.046483 0.096627
C104  C     C_R   0.212163 0.267489 0.953382 0.096633
C105  C     C_R   0.350417 0.782873 0.036492 -0.214835
C106  C     C_R   0.649503 0.217209 0.963390 -0.215099
C107  C     C_R   0.694776 0.815776 0.015415 -0.195906
C108  C     C_R   0.304821 0.183969 0.984191 -0.196177
C109  C     C_R   0.801262 0.320046 0.979082 -0.218916
C110  C     C_R   0.198804 0.679927 0.020969 -0.218892
C111  C     C_R   0.163765 0.294613 0.981095 -0.177580
C112  C     C_R   0.836192 0.705373 0.018882 -0.177511
Cu1   Cu    Cu3+1 0.526640 0.000000 0.436960 1.010825
Cu2   Cu    Cu3+1 0.473360 0.000000 0.563040 1.010866
Cu3   Cu    Cu3+1 0.026640 0.500000 0.436960 1.010870
Cu4   Cu    Cu3+1 0.973360 0.500000 0.563040 1.010865
H1    H     H_    0.388819 0.780201 0.931835 0.203464
H2    H     H_    0.611039 0.219932 0.067972 0.203458
H3    H     H_    0.670308 0.823487 0.135505 0.188878
H4    H     H_    0.329163 0.176185 0.863974 0.188677
H5    H     H_    0.830779 0.323836 0.864159 0.202734
H6    H     H_    0.169354 0.676090 0.135963 0.202738
H7    H     H_    0.131711 0.297383 0.093134 0.198656
H8    H     H_    0.868362 0.702684 0.906974 0.198688
H9    H     H_    0.371047 0.866409 0.184430 0.177973
H10   H     H_    0.628871 0.133647 0.815486 0.177729
H11   H     H_    0.627596 0.867398 0.814223 0.186478
H12   H     H_    0.372191 0.132454 0.185520 0.186224
H13   H     H_    0.872914 0.366001 0.185643 0.172027
H14   H     H_    0.127134 0.633958 0.814413 0.172030
H15   H     H_    0.136936 0.372892 0.823090 0.202374
H16   H     H_    0.863117 0.627112 0.176957 0.202384
H17   H     H_    0.301397 0.844819 0.401377 0.209210
H18   H     H_    0.698690 0.155123 0.598716 0.209171
H19   H     H_    0.708187 0.850855 0.609694 0.195910
H20   H     H_    0.291927 0.149227 0.390432 0.195901
H21   H     H_    0.781846 0.359646 0.378236 0.214715
H22   H     H_    0.218068 0.640427 0.621654 0.214697
H23   H     H_    0.193238 0.340966 0.592989 0.190498
H24   H     H_    0.806556 0.658894 0.406803 0.190532
H25   H     H_    0.398241 0.816335 0.091631 0.151558
H26   H     H_    0.601652 0.183773 0.908214 0.151456
H27   H     H_    0.658214 0.857230 0.973667 0.198313
H28   H     H_    0.341238 0.142432 0.025814 0.197888
H29   H     H_    0.837891 0.361658 0.021423 0.154354
H30   H     H_    0.162208 0.638298 0.978658 0.154370
H31   H     H_    0.118146 0.330005 0.929441 0.187423
H32   H     H_    0.881863 0.670023 0.070593 0.187377
H33   H     H_    0.283171 0.019761 0.805654 0.212414
H34   H     H_    0.716660 0.979722 0.194172 0.212467
H35   H     H_    0.786759 0.535692 0.808640 0.211148
H36   H     H_    0.213249 0.464326 0.191367 0.211145
H37   H     H_    0.449825 0.001175 0.192464 0.247119
H38   H     H_    0.550173 0.999166 0.807623 0.246917
H39   H     H_    0.949462 0.503154 0.190603 0.237703
H40   H     H_    0.050539 0.496841 0.809394 0.237706
N1    N     N_R   0.433280 0.000000 0.657760 -0.277130
N2    N     N_R   0.566720 0.000000 0.342240 -0.277071
N3    N     N_R   0.933280 0.500000 0.657760 -0.274313
N4    N     N_R   0.066720 0.500000 0.342240 -0.274324
O1    O     O_R   0.600040 0.935040 0.546740 -0.541206
O2    O     O_R   0.399960 0.064960 0.453260 -0.541241
O3    O     O_R   0.399960 0.935040 0.453260 -0.533935
O4    O     O_R   0.600040 0.064960 0.546740 -0.533992
O5    O     O_R   0.100040 0.435040 0.546740 -0.539996
O6    O     O_R   0.899960 0.564960 0.453260 -0.540024
O7    O     O_R   0.899960 0.435040 0.453260 -0.535038
O8    O     O_R   0.100040 0.564960 0.546740 -0.535030
O9    O     O_R   0.555010 0.935070 0.653220 -0.593464
O10   O     O_R   0.444990 0.064930 0.346780 -0.593704
O11   O     O_R   0.444990 0.935070 0.346780 -0.603248
O12   O     O_R   0.555010 0.064930 0.653220 -0.603381
O13   O     O_R   0.055010 0.435070 0.653220 -0.591599
O14   O     O_R   0.944990 0.564930 0.346780 -0.591619
O15   O     O_R   0.944990 0.435070 0.346780 -0.605140
O16   O     O_R   0.055010 0.564930 0.653220 -0.605135
F1    F     F_    0.360648 0.021790 0.014840 -0.721807
F2    F     F_    0.639097 0.977591 0.984954 -0.721936
F3    F     F_    0.868362 0.542596 0.019974 -0.721066
F4    F     F_    0.131649 0.457422 0.980035 -0.721092
F5    F     F_    0.333130 0.720782 0.752965 -0.646898
F6    F     F_    0.666729 0.279343 0.246850 -0.646926
F7    F     F_    0.714681 0.756393 0.301584 -0.695600
F8    F     F_    0.284886 0.243330 0.697983 -0.695539
F9    F     F_    0.790485 0.253007 0.703021 -0.648529
F10   F     F_    0.209652 0.746906 0.297115 -0.648495
F11   F     F_    0.185661 0.236888 0.269459 -0.684144
F12   F     F_    0.814469 0.763207 0.730700 -0.684135
F13   F     F_    0.700318 0.994608 0.512067 -0.634943
F14   F     F_    0.299688 0.005211 0.487881 -0.634748
F15   F     F_    0.200193 0.491557 0.511638 -0.635467
F16   F     F_    0.799807 0.508448 0.488364 -0.635505
O17   O     O_3   0.240327 0.019117 0.609468 -0.555202
C113  C     C_3   0.222413 0.084319 0.588112 0.094139
H41   H     H_    0.231448 0.101529 0.525432 0.192722
H42   H     H_    0.261115 0.112681 0.668315 0.161377
C114  C     C_3   0.134091 0.095161 0.538463 -0.687856
H43   H     H_    0.123563 0.079043 0.599919 0.241648
H44   H     H_    0.119528 0.146335 0.521539 0.214846
H45   H     H_    0.093378 0.068543 0.457054 0.262248
O18   O     O_3   0.759566 0.980494 0.390339 -0.555255
C115  C     C_3   0.777340 0.915282 0.411863 0.093756
H46   H     H_    0.738103 0.886780 0.331922 0.161772
H47   H     H_    0.768957 0.898394 0.475357 0.193223
C116  C     C_3   0.865357 0.904167 0.460227 -0.688551
H48   H     H_    0.906617 0.930986 0.541261 0.262291
H49   H     H_    0.879856 0.853000 0.477499 0.215026
H50   H     H_    0.875166 0.919871 0.397832 0.241486
O19   O     O_3   0.742086 0.528979 0.611010 -0.550741
C117  C     C_3   0.728798 0.594520 0.588397 0.085495
H51   H     H_    0.738467 0.608510 0.524913 0.189012
H52   H     H_    0.769832 0.623018 0.667968 0.157529
C118  C     C_3   0.641557 0.610162 0.539236 -0.689899
H53   H     H_    0.630406 0.597357 0.601432 0.244374
H54   H     H_    0.630565 0.661610 0.521246 0.209354
H55   H     H_    0.598702 0.583521 0.458470 0.263607
O20   O     O_3   0.257920 0.471038 0.388999 -0.550752
C119  C     C_3   0.271215 0.405497 0.411604 0.085552
H56   H     H_    0.230211 0.377003 0.332020 0.157609
H57   H     H_    0.261509 0.391491 0.475045 0.188992
C120  C     C_3   0.358474 0.389870 0.460836 -0.689881
H58   H     H_    0.401299 0.416507 0.541618 0.263585
H59   H     H_    0.369471 0.338422 0.478817 0.209371
H60   H     H_    0.369664 0.402691 0.398687 0.244388

loop_
_geom_bond_atom_site_label_1
_geom_bond_atom_site_label_2
_ccdc_geom_bond_type
Cu2   O9    S    
C113  H42   S    
C88   C96   A    
C14   H6    S    
C29   C33   A    
C58   F10   S    
C33   C45   A    
O18   C115  S    
C5    C56   S    
C17   O17   S    
C6    C55   S    
C53   C69   A    
C44   F4    S    
C6    O6    A    
C21   F14   S    
Cu1   O11   S    
C2    O2    A    
C118  H53   S    
Cu2   O12   S    
C99   C108  A    
C43   F3    S    
C120  H58   S    
C98   C105  A    
C57   C89   A    
Cu4   O13   S    
C32   C36   A    
C41   F1    S    
C78   H13   S    
C51   C75   A    
C120  H60   S    
C50   C74   A    
C117  H51   S    
C105  H25   S    
Cu3   O8    S    
C61   C93   A    
Cu2   O2    S    
C74   H9    S    
C10   C94   A    
C27   N3    A    
C73   H10   S    
C63   C95   A    
C28   N4    A    
C13   H5    S    
C62   C70   A    
C75   H12   S    
C20   O20   S    
Cu2   O3    S    
C37   C42   A    
C114  H44   S    
C14   C90   A    
C13   C109  A    
C8    O8    A    
C77   C85   A    
C59   C67   A    
C12   H4    S    
C85   C93   A    
C58   C66   A    
C40   C43   A    
C20   C24   A    
C56   C72   A    
C115  C116  S    
C7    O15   A    
C28   H39   S    
Cu3   O15   S    
C4    O4    A    
Cu4   O7    S    
C59   F11   S    
C26   H37   S    
C34   C46   A    
C5    O5    A    
Cu1   N2    S    
Cu3   O5    S    
C86   C94   A    
C57   F9    S    
C97   C102  A    
C52   C68   A    
C3    O3    A    
C69   H22   S    
C81   C89   A    
C78   C86   A    
C116  H49   S    
C99   C104  A    
C1    O1    A    
C60   F12   S    
C80   H15   S    
C83   C99   A    
C79   C87   A    
C82   C98   A    
Cu4   O6    S    
C15   H7    S    
C17   C33   A    
C74   C82   A    
C73   C81   A    
C23   F16   S    
C88   C104  A    
C3    C50   S    
C106  H26   S    
C36   C48   A    
C118  H54   S    
C25   C29   A    
C76   C84   A    
C63   F7    S    
C115  H46   S    
C30   C34   A    
C27   C31   A    
C84   C100  A    
C75   C83   A    
C15   C111  A    
C28   C32   A    
C64   C96   A    
C38   C41   A    
C11   H3    S    
C39   C40   A    
C12   C108  A    
C31   C35   A    
Cu4   O16   S    
C20   C36   A    
C51   C67   A    
C6    O14   A    
C101  C110  A    
C116  H48   S    
Cu1   O1    S    
C100  C103  A    
C17   C21   A    
C112  H32   S    
C23   N3    A    
C103  C112  A    
C64   F8    S    
C114  H45   S    
C19   C23   A    
Cu2   N1    S    
C115  H47   S    
C37   C38   A    
C10   H2    S    
C111  H31   S    
C62   F6    S    
C66   H17   S    
C55   C79   A    
C119  H57   S    
C54   C70   A    
C8    O16   A    
O19   C117  S    
C7    C54   S    
C59   C91   A    
C22   F13   S    
C50   C66   A    
C60   C68   A    
C39   C44   A    
C49   C65   A    
Cu4   N3    S    
C87   C103  A    
C97   C106  A    
C46   H34   S    
C2    O10   A    
C16   C92   A    
C117  H52   S    
C48   H36   S    
C42   C46   A    
C53   C77   A    
C49   C73   A    
C10   C106  A    
C5    O13   A    
C107  H27   S    
C83   C91   A    
C86   C102  A    
C9    C93   A    
C108  H28   S    
C32   C40   A    
C85   C101  A    
C16   C112  A    
C119  C120  S    
Cu1   Cu2   S    
C118  H55   S    
C11   C95   A    
C27   H40   S    
C14   C110  A    
C7    O7    A    
C87   C95   A    
C100  C107  A    
C4    O12   A    
C13   C89   A    
C25   H38   S    
C18   C22   A    
C26   N2    A    
C21   N1    A    
C68   H19   S    
C109  H29   S    
C65   H18   S    
C57   C65   A    
C43   C47   A    
C52   C76   A    
C82   C90   A    
C8    C53   S    
C104  C111  A    
C24   N4    A    
C26   C30   A    
C71   H24   S    
C42   F2    S    
Cu3   O14   S    
C117  C118  S    
C22   N2    A    
Cu1   O10   S    
Cu3   N4    S    
C61   F5    S    
C56   C80   A    
C98   C101  A    
C4    C49   S    
C58   C90   A    
C61   C69   A    
C62   C94   A    
C67   H20   S    
C16   H8    S    
C80   C88   A    
C19   C35   A    
Cu1   O4    S    
C11   C107  A    
C3    O11   A    
C119  H56   S    
C81   C97   A    
C18   C34   A    
C79   H16   S    
O20   C119  S    
C1    O9    A    
C31   C39   A    
C24   F15   S    
C113  H41   S    
C18   O18   S    
C45   H33   S    
C77   H14   S    
C64   C72   A    
C114  H43   S    
C1    C52   S    
C2    C51   S    
C47   H35   S    
C25   N1    A    
C15   C91   A    
C113  C114  S    
C72   H23   S    
C70   H21   S    
C120  H59   S    
O17   C113  S    
C29   C37   A    
C76   H11   S    
C41   C45   A    
C12   C96   A    
C102  C109  A    
C116  H50   S    
C84   C92   A    
C30   C38   A    
Cu3   Cu4   S    
C35   C47   A    
C110  H30   S    
C60   C92   A    
C9    C105  A    
C63   C71   A    
C55   C71   A    
C9    H1    S    
C44   C48   A    
C19   O19   S    
C54   C78   A    
