data_mof_unit_1660.cif
_audit_creation_date              2012-12-11T17:12:51-0500
_audit_creation_method            fapswitch 2.2
_symmetry_space_group_name_H-M    P1
_symmetry_Int_Tables_number       1
_space_group_crystal_system       triclinic
_cell_length_a                    17.111798
_cell_length_b                    6.929765
_cell_length_c                    14.616074
_cell_angle_alpha                 90.000879
_cell_angle_beta                  109.677636
_cell_angle_gamma                 89.999466
_cell_volume                      1631.9704115

loop_
_atom_site_label
_atom_site_type_symbol
_atom_type_description
_atom_site_fract_x
_atom_site_fract_y
_atom_site_fract_z
_atom_type_partial_charge
O1    O     O_R   0.314130 0.635770 0.168990 -0.540708
O2    O     O_R   0.685870 0.364230 0.831010 -0.541911
O3    O     O_R   0.185870 0.135770 0.331010 -0.540710
O4    O     O_R   0.814130 0.864230 0.668990 -0.541911
O5    O     O_R   0.146800 0.302460 0.139760 -0.536947
O6    O     O_R   0.853200 0.697540 0.860240 -0.536915
O7    O     O_R   0.353200 0.802460 0.360240 -0.536936
O8    O     O_R   0.646800 0.197540 0.639760 -0.536916
C1    C     C_R   0.112742 0.475378 0.114897 0.694702
C2    C     C_R   0.887868 0.524537 0.883916 0.702489
C3    C     C_R   0.387257 0.975378 0.385104 0.694729
C4    C     C_R   0.612132 0.024537 0.616084 0.702493
O9    O     O_R   0.311100 0.305780 0.157130 -0.546326
O10   O     O_R   0.688900 0.694220 0.842870 -0.544863
O11   O     O_R   0.188900 0.805780 0.342870 -0.546345
O12   O     O_R   0.811100 0.194220 0.657130 -0.544859
O13   O     O_R   0.351340 0.139640 0.348510 -0.534598
O14   O     O_R   0.648660 0.860360 0.651490 -0.536383
O15   O     O_R   0.148660 0.639640 0.151490 -0.534592
O16   O     O_R   0.851340 0.360360 0.848510 -0.536376
C5    C     C_R   0.329319 0.476276 0.131740 0.717196
C6    C     C_R   0.669737 0.524710 0.867155 0.722779
C7    C     C_R   0.170681 0.976279 0.368260 0.717233
C8    C     C_R   0.830262 0.024710 0.632846 0.722786
C9    C     C_1   0.532477 0.008842 0.534773 -0.196164
C10   C     C_1   0.466586 0.990968 0.466867 -0.197689
C11   C     C_1   0.967523 0.508841 0.965227 -0.196163
C12   C     C_1   0.033414 0.490968 0.033133 -0.197660
O17   O     O_3   0.263010 0.470920 0.312770 -0.372897
O18   O     O_3   0.736990 0.529080 0.687230 -0.373857
O19   O     O_3   0.236990 0.970920 0.187230 -0.372902
O20   O     O_3   0.763010 0.029080 0.812770 -0.373855
V1    V     V_3+5 0.247590 0.194450 0.238360 1.397452
V2    V     V_3+5 0.752410 0.805550 0.761640 1.397617
V3    V     V_3+5 0.252410 0.694450 0.261640 1.397443
V4    V     V_3+5 0.747590 0.305550 0.738360 1.397625
C13   C     C_R   0.122522 0.992064 0.436664 -0.098943
C14   C     C_R   0.877300 0.015840 0.563349 -0.093221
C15   C     C_R   0.377472 0.492047 0.063328 -0.098911
C16   C     C_R   0.622698 0.515831 0.936649 -0.093217
C17   C     C_R   0.895632 0.023342 0.402604 -0.034923
C18   C     C_R   0.103042 0.056786 0.593698 -0.032782
C19   C     C_R   0.604362 0.523347 0.097390 -0.034924
C20   C     C_R   0.396948 0.556663 0.906280 -0.032816
C21   C     C_R   0.841644 0.035743 0.459725 0.237041
C22   C     C_R   0.156171 0.055892 0.535727 0.241513
C23   C     C_R   0.658349 0.535766 0.040271 0.237045
C24   C     C_R   0.343825 0.555872 0.964262 0.241508
C25   C     C_R   0.963587 0.005352 0.605702 -0.284764
C26   C     C_R   0.036751 0.962518 0.396295 -0.282920
C27   C     C_R   0.536413 0.505247 0.894294 -0.284802
C28   C     C_R   0.463244 0.462499 0.103696 -0.282908
C29   C     C_R   0.016826 0.017800 0.550268 0.057094
C30   C     C_R   0.982667 0.998544 0.449215 0.056268
C31   C     C_R   0.483168 0.517714 0.949719 0.057137
C32   C     C_R   0.517328 0.498519 0.050777 0.056280
H1    H     H_    0.011750 0.920269 0.320597 0.139555
H2    H     H_    0.989164 0.994017 0.684102 0.139328
H3    H     H_    0.488244 0.420266 0.179395 0.139552
H4    H     H_    0.510842 0.493833 0.815896 0.139312
N1    N     N_2   0.241830 0.111020 0.580386 -0.563185
H5    H     H_    0.261567 0.155991 0.651056 0.271698
C33   C     C_3   0.287843 0.205308 0.527131 -0.513532
H6    H     H_    0.345056 0.272247 0.577962 0.184144
H7    H     H_    0.250345 0.319363 0.478989 0.219053
H8    H     H_    0.309060 0.094784 0.488183 0.193347
N2    N     N_2   0.754104 0.064373 0.409917 -0.549840
H9    H     H_    0.737086 0.124605 0.342490 0.270563
C34   C     C_3   0.696007 0.116676 0.457215 -0.519425
H10   H     H_    0.633777 0.141636 0.402068 0.182591
H11   H     H_    0.714473 0.252800 0.498235 0.216417
H12   H     H_    0.690137 0.994688 0.502153 0.185128
N3    N     N_2   0.258183 0.611165 0.919609 -0.563098
H13   H     H_    0.238560 0.656679 0.849023 0.271653
C35   C     C_3   0.212151 0.705272 0.972894 -0.513624
H14   H     H_    0.154912 0.772157 0.922083 0.184101
H15   H     H_    0.249613 0.819351 0.021049 0.219068
H16   H     H_    0.190971 0.594665 0.011827 0.193323
N4    N     N_2   0.745887 0.564421 0.090080 -0.549856
H17   H     H_    0.762906 0.624609 0.157517 0.270566
C36   C     C_3   0.803983 0.616753 0.042786 -0.519409
H18   H     H_    0.866209 0.641743 0.097935 0.182588
H19   H     H_    0.785506 0.752870 0.001763 0.216428
H20   H     H_    0.809865 0.494771 0.997851 0.185117
C37   C     C_R   0.864241 0.063540 0.295403 0.078892
C38   C     C_R   0.905072 0.199691 0.255644 -0.151678
C39   C     C_R   0.881259 0.224936 0.155358 -0.092178
C40   C     C_R   0.810141 0.133906 0.094147 -0.050708
C41   C     C_R   0.764733 0.012639 0.133378 -0.140006
C42   C     C_R   0.794759 0.967445 0.232292 -0.179778
H21   H     H_    0.957627 0.280746 0.301988 0.119160
H22   H     H_    0.917326 0.317881 0.125558 0.111026
H23   H     H_    0.789724 0.158242 0.016545 0.122823
H24   H     H_    0.707873 0.947782 0.086410 0.135878
H25   H     H_    0.761832 0.863593 0.260686 0.155588
C43   C     C_R   0.134679 0.119007 0.697570 0.081458
C44   C     C_R   0.096606 0.273118 0.729407 -0.159097
C45   C     C_R   0.119708 0.316455 0.828188 -0.104130
C46   C     C_R   0.186035 0.218914 0.894878 -0.049814
C47   C     C_R   0.229628 0.080253 0.862481 -0.150992
C48   C     C_R   0.200651 0.021346 0.765633 -0.177169
H26   H     H_    0.046568 0.353708 0.678220 0.121247
H27   H     H_    0.087249 0.428173 0.852656 0.120076
H28   H     H_    0.205207 0.254541 0.971203 0.126178
H29   H     H_    0.284738 0.014932 0.912793 0.138905
H30   H     H_    0.231562 0.905211 0.742392 0.150971
C49   C     C_R   0.635749 0.563538 0.204592 0.078894
C50   C     C_R   0.594913 0.699676 0.244355 -0.151661
C51   C     C_R   0.618717 0.724890 0.344643 -0.092178
C52   C     C_R   0.689832 0.633849 0.405853 -0.050691
C53   C     C_R   0.735246 0.512600 0.366619 -0.139996
C54   C     C_R   0.705227 0.467432 0.267701 -0.179792
H31   H     H_    0.542358 0.780737 0.198013 0.119158
H32   H     H_    0.582645 0.817818 0.374446 0.111017
H33   H     H_    0.710243 0.658159 0.483457 0.122813
H34   H     H_    0.792104 0.447735 0.413587 0.135865
H35   H     H_    0.738156 0.363586 0.239304 0.155585
C55   C     C_R   0.365290 0.618742 0.802383 0.081323
C56   C     C_R   0.403360 0.772741 0.770467 -0.159083
C57   C     C_R   0.380193 0.816016 0.671674 -0.104293
C58   C     C_R   0.313790 0.718565 0.605056 -0.050061
C59   C     C_R   0.270201 0.580031 0.637534 -0.150847
C60   C     C_R   0.299246 0.521146 0.734386 -0.176954
H36   H     H_    0.453445 0.853307 0.821599 0.121258
H37   H     H_    0.412652 0.927618 0.647145 0.120136
H38   H     H_    0.294566 0.754172 0.528725 0.126286
H39   H     H_    0.215051 0.514749 0.587278 0.138945
H40   H     H_    0.268336 0.405102 0.757675 0.151240

loop_
_geom_bond_atom_site_label_1
_geom_bond_atom_site_label_2
_ccdc_geom_bond_type
C2    C11   S    
C16   C23   A    
C31   C32   A    
C33   H7    S    
O1    C5    A    
C49   C54   A    
O3    C7    A    
C53   C54   A    
C23   N4    S    
C39   C40   A    
C44   C45   A    
C42   H25   S    
C14   C25   A    
C56   H36   S    
O7    C3    A    
C47   H29   S    
C26   C30   A    
C18   C43   S    
O20   V4    S    
C38   H21   S    
C18   C29   A    
C18   C22   A    
C54   H35   S    
O4    C8    A    
O3    V1    S    
C45   H27   S    
O17   V1    S    
C41   H24   S    
C50   C51   A    
C34   H11   S    
O8    V4    S    
C59   H39   S    
N1    C33   S    
C55   C56   A    
C14   C21   A    
C52   C53   A    
C1    O15   A    
C2    O16   A    
O5    V1    S    
C21   N2    S    
C8    C14   S    
C49   C50   A    
O19   V1    S    
C53   H34   S    
C44   H26   S    
O11   C7    A    
C46   H28   S    
C33   H8    S    
O12   C8    A    
C43   C48   A    
N3    C35   S    
C34   H10   S    
O13   V1    S    
O11   V3    S    
C36   H19   S    
C36   H18   S    
N3    H13   S    
O4    V2    S    
O18   V2    S    
C22   N1    S    
N2    H9    S    
N4    C36   S    
C38   C39   A    
C3    C10   S    
C9    C10   T    
C7    C13   S    
C25   H2    S    
N4    H17   S    
N2    C34   S    
O20   V2    S    
C50   H31   S    
C34   H12   S    
C35   H14   S    
O5    C1    A    
C28   H3    S    
C35   H15   S    
C46   C47   A    
C5    C15   S    
C20   C55   S    
O8    C4    A    
C6    C16   S    
C43   C44   A    
O9    C5    A    
C19   C49   S    
C56   C57   A    
O14   V2    S    
C58   C59   A    
C51   H32   S    
C45   C46   A    
O19   V3    S    
C36   H20   S    
C39   H22   S    
C57   C58   A    
O1    V3    S    
O2    V4    S    
C48   H30   S    
C40   H23   S    
C3    O13   A    
C57   H37   S    
C26   H1    S    
O7    V3    S    
C24   N3    S    
C37   C38   A    
O10   V2    S    
C37   C42   A    
C29   C30   A    
C16   C27   A    
C17   C37   S    
O17   V3    S    
O18   V4    S    
C4    C9    S    
O10   C6    A    
C41   C42   A    
C58   H38   S    
O15   V3    S    
O2    C6    A    
O12   V4    S    
C13   C26   A    
C20   C31   A    
C60   H40   S    
C28   C32   A    
C25   C29   A    
C47   C48   A    
C15   C28   A    
C27   C31   A    
C55   C60   A    
N1    H5    S    
C35   H16   S    
C17   C30   A    
O6    C2    A    
C33   H6    S    
O16   V4    S    
O6    V2    S    
C19   C32   A    
C40   C41   A    
O9    V1    S    
C4    O14   A    
C11   C12   T    
C59   C60   A    
C17   C21   A    
C27   H4    S    
C13   C22   A    
C51   C52   A    
C19   C23   A    
C52   H33   S    
C20   C24   A    
C1    C12   S    
C15   C24   A    
