data_mof_unit_4488.cif
_audit_creation_date              2012-12-10T20:45:29-0500
_audit_creation_method            fapswitch 2.2
_symmetry_space_group_name_H-M    P1
_symmetry_Int_Tables_number       1
_space_group_crystal_system       triclinic
_cell_length_a                    10.714786
_cell_length_b                    10.686401
_cell_length_c                    9.895382
_cell_angle_alpha                 88.850095
_cell_angle_beta                  89.416025
_cell_angle_gamma                 91.796481
_cell_volume                      1132.19461237

loop_
_atom_site_label
_atom_site_type_symbol
_atom_type_description
_atom_site_fract_x
_atom_site_fract_y
_atom_site_fract_z
_atom_type_partial_charge
C1    C     C_R   0.502568 0.260254 0.500926 0.865562
C2    C     C_R   0.234100 0.793548 0.075741 -0.108297
C3    C     C_R   0.936052 0.548416 0.391116 -0.217576
C4    C     C_R   0.872403 0.490335 0.500073 -0.099277
C5    C     C_R   0.936581 0.439393 0.610970 0.000914
C6    C     C_R   0.064902 0.448483 0.609214 -0.255320
C7    C     C_R   0.128097 0.508740 0.501053 -0.075223
C8    C     C_R   0.063953 0.563131 0.392128 -0.019764
C9    C     C_R   0.882826 0.427239 0.857563 -0.117664
C10   C     C_R   0.824027 0.367137 0.968939 -0.128643
C11   C     C_R   0.757889 0.253756 0.952739 -0.143530
C12   C     C_R   0.260501 0.504657 0.500288 0.854629
C13   C     C_R   0.750674 0.200214 0.825232 -0.113187
C14   C     C_R   0.807757 0.260857 0.713094 -0.118731
C15   C     C_R   0.874200 0.374958 0.728656 0.124191
C16   C     C_R   0.515394 0.061838 0.623288 0.119726
C17   C     C_R   0.519096 0.129343 0.501786 -0.102452
C18   C     C_R   0.541920 0.068710 0.379951 -0.252863
C19   C     C_R   0.539453 0.939724 0.378977 -0.192929
C20   C     C_R   0.516792 0.872332 0.499636 -0.116421
C21   C     C_R   0.515154 0.934178 0.622327 0.154383
C22   C     C_3   0.423604 0.921828 0.737280 -0.488897
C23   C     C_R   0.501642 0.740048 0.499257 0.898356
C24   C     C_3   0.423344 0.063656 0.737688 -0.495562
C25   C     C_R   0.443806 0.403441 0.074051 0.120081
C26   C     C_R   0.572264 0.585534 0.064827 0.455951
C27   C     C_R   0.568593 0.585244 0.922232 -0.161761
C28   C     C_R   0.442628 0.404330 0.931979 0.210960
C29   C     C_3   0.307943 0.364741 0.930339 -0.506074
C30   C     C_3   0.310845 0.359836 0.083969 -0.472186
C31   C     C_R   0.739635 0.494561 0.499952 0.895580
C32   C     C_R   0.257127 0.820415 0.210949 -0.110534
C33   C     C_R   0.203126 0.744852 0.314204 -0.095372
C34   C     C_R   0.125001 0.641567 0.282676 0.131931
C35   C     C_R   0.099665 0.617490 0.146216 -0.126711
C36   C     C_R   0.155280 0.692233 0.043362 -0.115976
H1    H     H_    0.276313 0.852020 0.996166 0.137755
H2    H     H_    0.712805 0.207039 0.039085 0.128839
H3    H     H_    0.701486 0.111273 0.813670 0.143078
H4    H     H_    0.801026 0.218733 0.614666 0.110775
H5    H     H_    0.552733 0.119656 0.284541 0.176014
H6    H     H_    0.546158 0.893882 0.283377 0.243679
H7    H     H_    0.332672 0.878024 0.707576 0.195264
H8    H     H_    0.465862 0.880273 0.829288 0.236559
H9    H     H_    0.332483 0.102486 0.707243 0.200603
H10   H     H_    0.464501 0.104032 0.830458 0.208441
H11   H     H_    0.315935 0.900562 0.235637 0.133489
H12   H     H_    0.622223 0.654076 0.862180 0.206997
H13   H     H_    0.247980 0.439396 0.889685 0.206833
H14   H     H_    0.292600 0.271273 0.885231 0.196910
H15   H     H_    0.250810 0.428573 0.132516 0.224785
H16   H     H_    0.301002 0.263088 0.126978 0.199725
H17   H     H_    0.221168 0.767516 0.418546 0.092749
H18   H     H_    0.038752 0.539294 0.119451 0.130978
H19   H     H_    0.885915 0.588655 0.307711 0.235000
H20   H     H_    0.115613 0.405250 0.691177 0.154910
H21   H     H_    0.934077 0.514956 0.871295 0.149602
H22   H     H_    0.829892 0.408241 0.067864 0.157488
N1    N     N_R   0.499160 0.499140 0.142800 -0.174502
N2    N     N_R   0.499160 0.499180 0.857150 -0.143677
O1    O     O_R   0.500020 0.316790 0.614690 -0.611385
O2    O     O_R   0.500000 0.316760 0.385350 -0.631486
O3    O     O_R   0.316770 0.500030 0.614670 -0.628188
O4    O     O_R   0.316750 0.499990 0.385330 -0.619428
O5    O     O_R   0.500000 0.683240 0.614650 -0.629933
O6    O     O_R   0.499980 0.683210 0.385310 -0.561569
O7    O     O_R   0.683250 0.500010 0.614670 -0.610171
O8    O     O_R   0.683230 0.499970 0.385330 -0.581309
Zn1   Zn    Zn3+2 0.500010 0.500020 0.653130 0.955966
Zn2   Zn    Zn3+2 0.499990 0.499980 0.346870 1.002564
S1    S     S_3+6 0.682016 0.701409 0.121003 -0.028195
O9    O     O_2   0.701297 0.712331 0.269413 -0.303284
O10   O     O_2   0.805858 0.674830 0.056708 -0.379482
O11   O     O_3   0.636589 0.840245 0.058811 -0.634143
H23   H     H_    0.710184 0.897831 0.067679 0.379244
H24   H     H_    0.136878 0.671829 0.938587 0.131190

loop_
_geom_bond_atom_site_label_1
_geom_bond_atom_site_label_2
_ccdc_geom_bond_type
C27   H12   S    
C30   H15   S    
C16   C21   A    
C35   C36   A    
C1    O2    A    
C7    C8    A    
C29   H13   S    
C25   C28   A    
C31   O7    A    
C26   C27   A    
C24   H9    S    
C23   O6    A    
C28   C29   S    
C10   H22   S    
C18   C19   A    
C27   N2    A    
C5    C6    A    
C12   O4    A    
O1    Zn1   S    
O2    Zn2   S    
C2    C32   A    
C34   C35   A    
C36   H24   S    
C3    H19   S    
C22   H8    S    
C19   C20   A    
C16   C17   A    
O4    Zn2   S    
C26   N1    A    
C19   H6    S    
C16   C24   S    
C21   C22   S    
C35   H18   S    
C26   S1    S    
C7    C12   S    
C17   C18   A    
C29   H14   S    
C28   N2    A    
C33   H17   S    
C31   O8    A    
C5    C15   S    
O11   H23   S    
O3    Zn1   S    
C3    C8    A    
C18   H5    S    
S1    O10   D    
C12   O3    A    
O7    Zn1   S    
C11   H2    S    
C29   C30   S    
C22   H7    S    
C20   C23   S    
C33   C34   A    
C8    C34   S    
C32   H11   S    
C22   C24   S    
C3    C4    A    
C9    C10   A    
C2    C36   A    
C25   C30   S    
C30   H16   S    
C6    H20   S    
C4    C5    A    
C1    O1    A    
S1    O11   S    
C6    C7    A    
C1    C17   S    
C24   H10   S    
C32   C33   A    
C23   O5    A    
C9    C15   A    
S1    O9    D    
C11   C13   A    
C2    H1    S    
O6    Zn2   S    
N2    Zn1   S    
O5    Zn1   S    
C9    H21   S    
C13   H3    S    
C4    C31   S    
C10   C11   A    
N1    Zn2   S    
C14   H4    S    
C20   C21   A    
O8    Zn2   S    
C14   C15   A    
C25   N1    A    
C13   C14   A    
