data_mof_unit_4757.cif
_audit_creation_date              2012-12-11T14:56:26-0500
_audit_creation_method            fapswitch 2.2
_symmetry_space_group_name_H-M    P1
_symmetry_Int_Tables_number       1
_space_group_crystal_system       triclinic
_cell_length_a                    10.523877
_cell_length_b                    10.676148
_cell_length_c                    17.061899
_cell_angle_alpha                 80.257521
_cell_angle_beta                  89.904493
_cell_angle_gamma                 119.276622
_cell_volume                      1640.04258501

loop_
_atom_site_label
_atom_site_type_symbol
_atom_type_description
_atom_site_fract_x
_atom_site_fract_y
_atom_site_fract_z
_atom_type_partial_charge
C1    C     C_R   0.278609 0.888521 0.132793 0.558735
C2    C     C_R   0.710395 0.256941 0.301624 -0.128503
C3    C     C_R   0.712099 0.245230 0.222742 -0.125310
C4    C     C_R   0.638867 0.297839 0.170083 0.032027
C5    C     C_1   0.685228 0.831684 0.201727 -0.042983
C6    C     C_1   0.703541 0.807247 0.270472 -0.044090
C7    C     C_1   0.227484 0.853886 0.215544 -0.031184
C8    C     C_1   0.178885 0.834596 0.283126 -0.031828
C9    C     C_1   0.661737 0.357892 0.780480 -0.046975
C10   C     C_1   0.684526 0.401923 0.709916 -0.048611
C11   C     C_R   0.624356 0.712823 0.805037 -0.137816
C12   C     C_R   0.633828 0.271392 0.090067 0.537743
C13   C     C_R   0.610373 0.697749 0.726687 -0.137532
C14   C     C_R   0.670027 0.822255 0.665517 0.031503
C15   C     C_R   0.749800 0.962237 0.683012 -0.142921
C16   C     C_R   0.760120 0.977709 0.762082 -0.140161
C17   C     C_R   0.691182 0.852685 0.823116 0.022300
C18   C     C_R   0.082608 0.883431 0.790297 -0.135084
C19   C     C_R   0.066449 0.880219 0.710720 -0.124504
C20   C     C_R   0.113946 0.801828 0.672192 0.031655
C21   C     C_R   0.164766 0.715188 0.715513 -0.137380
C22   C     C_R   0.182649 0.719648 0.795545 -0.123836
C23   C     C_R   0.643570 0.855754 0.124247 0.541111
C24   C     C_R   0.149356 0.810890 0.831557 0.026523
C25   C     C_R   0.711338 0.772429 0.353568 0.562510
C26   C     C_R   0.681913 0.385639 0.399018 0.551862
C27   C     C_R   0.108254 0.812555 0.359939 0.551022
C28   C     C_R   0.677567 0.800168 0.585480 0.542893
C29   C     C_R   0.717379 0.446168 0.625993 0.561656
C30   C     C_R   0.089742 0.798524 0.589522 0.543930
C31   C     C_R   0.216054 0.857922 0.902537 0.559214
C32   C     C_R   0.640260 0.290740 0.861907 0.552855
C33   C     C_R   0.647888 0.866763 0.899690 0.546765
C34   C     C_R   0.554299 0.351801 0.198127 -0.136385
C35   C     C_R   0.554291 0.365646 0.277385 -0.130785
C36   C     C_R   0.638528 0.324670 0.328090 0.027014
Cr1   Cr    Cr6+3 0.402240 0.783890 0.019450 1.025834
Cr2   Cr    Cr6+3 0.382360 0.097900 0.991800 1.024168
Cr3   Cr    Cr6+3 0.715380 0.118170 0.988700 1.021646
Cr4   Cr    Cr6+3 0.936650 0.882420 0.465510 1.019699
Cr5   Cr    Cr6+3 0.605770 0.565620 0.493360 1.021252
Cr6   Cr    Cr6+3 0.921340 0.550490 0.496380 1.021060
H1    H     H_    0.492262 0.386507 0.158494 0.132110
H2    H     H_    0.018315 0.941041 0.679123 0.148979
H3    H     H_    0.195333 0.649204 0.686978 0.129908
H4    H     H_    0.233029 0.661067 0.827116 0.143326
H5    H     H_    0.497428 0.417950 0.297156 0.143133
H6    H     H_    0.773576 0.222405 0.340432 0.143197
H7    H     H_    0.572235 0.615360 0.851610 0.130976
H8    H     H_    0.802202 0.058503 0.635758 0.134940
H9    H     H_    0.812157 0.086941 0.775170 0.146633
H10   H     H_    0.053123 0.951296 0.817757 0.134732
O1    O     O_R   0.521780 0.757110 0.108900 -0.517360
O2    O     O_R   0.513330 0.228330 0.898660 -0.495006
O3    O     O_R   0.739230 0.266130 0.888050 -0.508466
O4    O     O_R   0.712580 0.991850 0.918770 -0.503892
O5    O     O_3   0.499990 0.999980 0.999980 -0.267428
O6    O     O_R   0.083770 0.911170 0.376030 -0.507103
O7    O     O_R   0.808770 0.880340 0.383890 -0.491301
O8    O     O_R   0.584340 0.689460 0.394160 -0.504136
O9    O     O_R   0.614320 0.443940 0.423590 -0.516108
O10   O     O_R   0.805020 0.410040 0.421340 -0.512471
O11   O     O_R   0.049240 0.685450 0.403290 -0.491130
O12   O     O_R   0.275160 0.783810 0.101120 -0.487227
O13   O     O_R   0.077520 0.903010 0.551800 -0.518422
O14   O     O_R   0.802980 0.872780 0.546830 -0.506953
O15   O     O_R   0.578090 0.681300 0.569920 -0.521644
O16   O     O_R   0.608530 0.436370 0.586530 -0.492914
O17   O     O_R   0.798770 0.401880 0.597100 -0.506770
O18   O     O_R   0.043450 0.677890 0.566230 -0.516544
O19   O     O_3   0.821250 0.666180 0.485090 -0.295606
O20   O     O_R   0.237900 0.972600 0.090980 -0.505077
O21   O     O_R   0.511190 0.220540 0.061620 -0.518771
O22   O     O_R   0.736920 0.257720 0.063840 -0.518605
O23   O     O_R   0.710450 0.984050 0.081720 -0.502071
O24   O     O_R   0.524090 0.765520 0.933110 -0.520782
O25   O     O_R   0.277300 0.791600 0.938160 -0.500646
O26   O     O_R   0.240210 0.981010 0.915190 -0.512887
H11   H     H_    0.770848 0.194582 0.203080 0.147304
H12   H     H_    0.554967 0.588224 0.714015 0.134992

loop_
_geom_bond_atom_site_label_1
_geom_bond_atom_site_label_2
_ccdc_geom_bond_type
Cr4   O19   S    
C12   O22   A    
C19   C20   A    
C16   H9    S    
Cr5   O9    S    
C3    H11   S    
C18   H10   S    
C7    C8    T    
Cr5   O15   S    
C20   C30   S    
C18   C24   A    
C26   O9    A    
C34   C35   A    
C5    C6    T    
C15   H8    S    
C6    C25   S    
C15   C16   A    
Cr2   O5    S    
Cr6   O18   S    
C18   C19   A    
Cr3   O22   S    
C9    C32   S    
Cr3   O3    S    
C35   C36   A    
C16   C17   A    
C5    C23   S    
C12   O21   A    
C31   O25   A    
C25   O8    A    
Cr3   O23   S    
C4    C12   S    
C9    C10   T    
Cr6   O10   S    
C32   O3    A    
C21   H3    S    
Cr5   O19   S    
Cr1   O1    S    
C33   O4    A    
C13   H12   S    
C35   H5    S    
Cr4   O7    S    
Cr4   O14   S    
C13   C14   A    
C17   C33   S    
C32   O2    A    
C30   O18   A    
C23   O1    A    
Cr5   O16   S    
C29   O17   A    
Cr2   O20   S    
C1    O20   A    
Cr4   O6    S    
C28   O15   A    
Cr2   O26   S    
C2    H6    S    
Cr1   O25   S    
Cr6   O17   S    
C28   O14   A    
C11   H7    S    
C29   O16   A    
C33   O24   A    
Cr3   O4    S    
Cr2   O2    S    
C27   O11   A    
C26   C36   S    
C22   H4    S    
Cr1   O24   S    
Cr4   O13   S    
C22   C24   A    
C3    C4    A    
C1    O12   A    
Cr1   O12   S    
C19   H2    S    
C31   O26   A    
C2    C36   A    
C11   C17   A    
C1    C7    S    
C34   H1    S    
Cr5   O8    S    
C23   O23   A    
C27   O6    A    
C2    C3    A    
C26   O10   A    
C24   C31   S    
C11   C13   A    
C10   C29   S    
Cr6   O19   S    
C4    C34   A    
C30   O13   A    
C20   C21   A    
C8    C27   S    
C14   C15   A    
C25   O7    A    
C14   C28   S    
C21   C22   A    
Cr6   O11   S    
Cr1   O5    S    
Cr2   O21   S    
Cr3   O5    S    
