data_mof_unit_1095.cif
_audit_creation_date              2012-12-11T14:04:19-0500
_audit_creation_method            fapswitch 2.2
_symmetry_space_group_name_H-M    P1
_symmetry_Int_Tables_number       1
_space_group_crystal_system       triclinic
_cell_length_a                    18.820846
_cell_length_b                    11.022959
_cell_length_c                    18.7802
_cell_angle_alpha                 90.41071
_cell_angle_beta                  89.935777
_cell_angle_gamma                 89.901226
_cell_volume                      3896.05845284

loop_
_atom_site_label
_atom_site_type_symbol
_atom_type_description
_atom_site_fract_x
_atom_site_fract_y
_atom_site_fract_z
_atom_type_partial_charge
C1    C     C_R   0.225262 0.519549 0.638758 0.567851
C2    C     C_R   0.994052 0.653030 0.574878 -0.027416
C3    C     C_R   0.503589 0.171393 0.426049 -0.029208
C4    C     C_R   0.494017 0.153035 0.574897 -0.027114
C5    C     C_R   0.973702 0.892200 0.438832 -0.036715
C6    C     C_R   0.948095 0.859587 0.583377 -0.071383
C7    C     C_R   0.473700 0.392193 0.438841 -0.036764
C8    C     C_R   0.448084 0.359603 0.583387 -0.071413
C9    C     C_R   0.943007 0.985122 0.479283 -0.097078
C10   C     C_R   0.928870 0.967832 0.551076 -0.105642
C11   C     C_R   0.443015 0.485130 0.479289 -0.097053
C12   C     C_R   0.773514 0.514794 0.362431 0.563973
C13   C     C_R   0.428870 0.467849 0.551082 -0.105674
C14   C     C_R   0.977162 0.763503 0.542751 0.002664
C15   C     C_R   0.985494 0.775878 0.468255 0.000827
C16   C     C_R   0.477140 0.263506 0.542765 0.002903
C17   C     C_R   0.485476 0.275869 0.468268 0.000650
C18   C     C_R   0.003861 0.547844 0.531343 -0.015496
C19   C     C_R   0.022395 0.562509 0.460160 -0.005514
C20   C     C_R   0.503798 0.047837 0.531370 -0.015221
C21   C     C_R   0.522338 0.062476 0.460187 -0.005757
C22   C     C_R   0.997898 0.428311 0.557521 -0.076610
C23   C     C_R   0.725261 0.019551 0.638758 0.567548
C24   C     C_R   0.051269 0.463081 0.422124 -0.110720
C25   C     C_R   0.497822 0.928321 0.557565 -0.076532
C26   C     C_R   0.551208 0.963023 0.422170 -0.110805
C27   C     C_R   0.023975 0.327545 0.519328 0.015583
C28   C     C_R   0.049580 0.345103 0.449190 -0.014087
C29   C     C_R   0.523918 0.827537 0.519402 0.015688
C30   C     C_R   0.549536 0.845058 0.449263 -0.014270
C31   C     C_2   0.223188 0.852627 0.934973 -0.106979
C32   C     C_2   0.742327 0.935821 0.085897 -0.105784
C33   C     C_2   0.723081 0.352381 0.935001 -0.106429
C34   C     C_R   0.273514 0.014792 0.362430 0.564444
C35   C     C_2   0.242232 0.435880 0.085950 -0.104166
C36   C     C_2   0.243862 0.888065 0.088213 -0.109254
C37   C     C_2   0.727496 0.987850 0.933420 -0.102104
C38   C     C_2   0.743799 0.387853 0.088263 -0.107723
C39   C     C_2   0.228034 0.486819 0.933346 -0.107505
C40   C     C_R   0.228843 0.878408 0.649783 0.560905
C41   C     C_R   0.771387 0.877784 0.350112 0.543238
C42   C     C_R   0.728842 0.378406 0.649781 0.561143
C43   C     C_R   0.271386 0.377785 0.350111 0.543133
C44   C     C_2   0.180710 0.897734 0.055627 -0.145896
C45   C     C_2   0.308703 0.894164 0.547795 -0.173450
C46   C     C_2   0.766754 0.055229 0.977966 -0.165245
C47   C     C_2   0.680620 0.397276 0.055681 -0.149642
C48   C     C_2   0.266498 0.555207 0.978054 -0.161372
C49   C     C_2   0.169551 0.859141 0.981680 -0.160847
C50   C     C_2   0.780489 0.020055 0.051717 -0.150731
C51   C     C_2   0.669467 0.358224 0.981777 -0.164731
C52   C     C_2   0.280367 0.520103 0.051765 -0.147203
C53   C     C_2   0.011681 0.656401 0.927055 -0.105630
C54   C     C_2   0.010944 0.663467 0.084020 -0.105066
C55   C     C_2   0.490217 0.164794 0.916837 -0.104838
C56   C     C_2   0.717732 0.855095 0.463667 -0.162263
C57   C     C_2   0.489725 0.154852 0.073662 -0.095200
C58   C     C_2   0.024601 0.564257 0.045490 -0.160078
C59   C     C_2   0.038509 0.569802 0.969687 -0.158279
C60   C     C_2   0.461514 0.070431 0.029960 -0.150573
C61   C     C_2   0.475689 0.065460 0.954169 -0.160193
C62   C     C_R   0.026968 0.653059 0.646408 0.526393
C63   C     C_R   0.972221 0.656790 0.354156 0.523082
C64   C     C_R   0.526959 0.153061 0.646415 0.524742
C65   C     C_R   0.472217 0.156787 0.354160 0.524893
C66   C     C_R   0.224219 0.517970 0.858676 0.545128
C67   C     C_2   0.808707 0.394174 0.547797 -0.173336
C68   C     C_R   0.759934 0.462108 0.150633 0.565983
C69   C     C_R   0.724104 0.018306 0.858613 0.548953
C70   C     C_R   0.259953 0.962153 0.150624 0.562382
C71   C     C_R   0.208784 0.827376 0.860721 0.542437
C72   C     C_R   0.771151 0.876247 0.148425 0.556416
C73   C     C_R   0.708736 0.327262 0.860710 0.543262
C74   C     C_R   0.271133 0.376256 0.148433 0.555851
C75   C     C_R   0.031798 0.651857 0.852613 0.536666
C76   C     C_R   0.972394 0.652458 0.150377 0.556305
C77   C     C_R   0.527945 0.153004 0.849942 0.535444
C78   C     C_2   0.217743 0.355081 0.463670 -0.162245
C79   C     C_R   0.468699 0.151306 0.147745 0.552459
C80   C     C_2   0.256843 0.941546 0.588255 -0.107608
C81   C     C_2   0.745081 0.929895 0.415038 -0.109534
C82   C     C_2   0.756842 0.441546 0.588253 -0.107318
C83   C     C_2   0.245083 0.429889 0.415040 -0.109603
C84   C     C_2   0.264657 0.975059 0.435418 -0.114454
C85   C     C_2   0.734625 0.988042 0.565050 -0.101012
C86   C     C_2   0.764659 0.475061 0.435418 -0.114267
C87   C     C_2   0.234628 0.488036 0.565052 -0.101167
C88   C     C_2   0.319793 0.936648 0.474702 -0.171456
C89   C     C_R   0.003617 0.671414 0.426031 -0.028702
C90   C     C_2   0.700719 0.894681 0.535417 -0.145360
C91   C     C_2   0.819797 0.436661 0.474703 -0.171452
C92   C     C_2   0.200735 0.394658 0.535422 -0.145469
C93   C     C_2   0.031456 0.210633 0.557620 0.208422
C94   C     C_2   0.072252 0.246075 0.399812 0.187978
C95   C     C_2   0.531393 0.710659 0.557733 0.208325
C96   C     C_2   0.572245 0.746017 0.399908 0.188275
Cr1   Cr    Cr6+3 0.113970 0.508630 0.747920 1.047389
Cr2   Cr    Cr6+3 0.887700 0.820070 0.250200 1.017790
Cr3   Cr    Cr6+3 0.612300 0.320070 0.749800 1.041578
Cr4   Cr    Cr6+3 0.387700 0.320070 0.250200 1.019235
Cr5   Cr    Cr6+3 0.886030 0.508630 0.252080 1.020488
Cr6   Cr    Cr6+3 0.613970 0.008630 0.747920 1.047370
Cr7   Cr    Cr6+3 0.386030 0.008630 0.252080 1.018267
Cr8   Cr    Cr6+3 0.269200 0.666740 0.749850 1.033127
Cr9   Cr    Cr6+3 0.730800 0.666740 0.250150 1.024130
Cr10  Cr    Cr6+3 0.769200 0.166740 0.749850 1.036053
Cr11  Cr    Cr6+3 0.230800 0.166740 0.250150 1.021325
Cr12  Cr    Cr6+3 0.112300 0.820070 0.749800 1.042882
H1    H     H_    0.372429 0.927821 0.451433 0.168482
H2    H     H_    0.698249 0.908875 0.950916 0.115824
H3    H     H_    0.786475 0.333588 0.065585 0.096445
H4    H     H_    0.199776 0.406665 0.950659 0.108663
H5    H     H_    0.278051 0.866401 0.950729 0.105037
H6    H     H_    0.692407 0.902111 0.064996 0.103536
H7    H     H_    0.777893 0.366832 0.950725 0.111427
H8    H     H_    0.192271 0.402291 0.065027 0.097663
H9    H     H_    0.020641 0.474314 0.068463 0.153972
H10   H     H_    0.068789 0.494201 0.947837 0.152149
H11   H     H_    0.429399 0.996798 0.050772 0.154683
H12   H     H_    0.665372 0.838088 0.566404 0.161981
H13   H     H_    0.478557 0.975682 0.930038 0.160252
H14   H     H_    0.018496 0.753497 0.062103 0.099872
H15   H     H_    0.981530 0.733153 0.947446 0.101964
H16   H     H_    0.521545 0.229770 0.054311 0.087031
H17   H     H_    0.483696 0.254804 0.939911 0.107371
H18   H     H_    0.339685 0.817011 0.565802 0.158123
H19   H     H_    0.710027 0.759350 0.451793 0.150496
H20   H     H_    0.839693 0.317027 0.565805 0.158139
H21   H     H_    0.210037 0.259337 0.451793 0.150406
H22   H     H_    0.211202 0.978119 0.457282 0.131975
H23   H     H_    0.872434 0.427846 0.451437 0.168552
H24   H     H_    0.775327 0.037833 0.536716 0.091924
H25   H     H_    0.711203 0.478112 0.457281 0.132109
H26   H     H_    0.275321 0.537844 0.536715 0.091977
H27   H     H_    0.228237 0.022019 0.571272 0.111791
H28   H     H_    0.754138 0.025662 0.424864 0.099812
H29   H     H_    0.728232 0.522015 0.571270 0.111771
H30   H     H_    0.254138 0.525656 0.424867 0.099818
H31   H     H_    0.930777 0.071436 0.455006 0.149197
H32   H     H_    0.904355 0.039506 0.582156 0.172671
H33   H     H_    0.430800 0.571449 0.455009 0.149115
H34   H     H_    0.165400 0.338052 0.566414 0.161969
H35   H     H_    0.404359 0.539532 0.582158 0.172639
H36   H     H_    0.988826 0.913993 0.384970 0.175947
H37   H     H_    0.936919 0.849125 0.639579 0.140469
H38   H     H_    0.488830 0.413979 0.384980 0.175965
H39   H     H_    0.436908 0.349149 0.639591 0.140023
H40   H     H_    0.072253 0.477055 0.368991 0.115528
H41   H     H_    0.973206 0.413017 0.608736 0.188798
H42   H     H_    0.572205 0.976972 0.369040 0.116350
H43   H     H_    0.473122 0.913065 0.608781 0.188282
H44   H     H_    0.136884 0.945192 0.081293 0.153003
H45   H     H_    0.115136 0.848461 0.963454 0.136653
H46   H     H_    0.796434 0.132043 0.957699 0.137543
H47   H     H_    0.636788 0.444793 0.081296 0.154729
H48   H     H_    0.295475 0.632910 0.957956 0.135347
H49   H     H_    0.063516 0.137327 0.536458 0.176554
H50   H     H_    0.097532 0.268984 0.349735 0.134868
H51   H     H_    0.563463 0.637339 0.536612 0.176752
H52   H     H_    0.597394 0.768915 0.349774 0.135366
H53   H     H_    0.828166 0.057562 0.075816 0.153888
H54   H     H_    0.615069 0.346614 0.963625 0.131263
H55   H     H_    0.328021 0.557733 0.075844 0.152845
H56   H     H_    0.286559 0.833892 0.065503 0.090319
O1    O     O_R   0.043230 0.549300 0.667990 -0.521795
O2    O     O_R   0.832470 0.905110 0.169660 -0.512308
O3    O     O_R   0.667530 0.405110 0.830340 -0.482933
O4    O     O_R   0.332470 0.405110 0.169660 -0.511709
O5    O     O_R   0.054010 0.748440 0.822860 -0.514862
O6    O     O_R   0.945990 0.748440 0.177140 -0.494930
O7    O     O_R   0.554010 0.248440 0.822860 -0.518498
O8    O     O_R   0.445990 0.248440 0.177140 -0.491164
O9    O     O_3   0.165160 0.665150 0.749190 -0.315313
O10   O     O_3   0.834840 0.665150 0.250810 -0.259232
O11   O     O_3   0.665160 0.165150 0.749190 -0.314553
O12   O     O_R   0.956770 0.549300 0.332010 -0.526001
O13   O     O_3   0.334840 0.165150 0.250810 -0.260157
O14   O     O_R   0.178620 0.457600 0.674100 -0.475566
O15   O     O_R   0.821380 0.457600 0.325900 -0.491715
O16   O     O_R   0.678620 0.957600 0.674100 -0.476025
O17   O     O_R   0.321380 0.957600 0.325900 -0.490654
O18   O     O_R   0.284680 0.542100 0.669460 -0.512755
O19   O     O_R   0.715320 0.542100 0.330540 -0.492746
O20   O     O_R   0.784680 0.042100 0.669460 -0.512887
O21   O     O_R   0.215320 0.042100 0.330540 -0.492415
O22   O     O_R   0.262860 0.790390 0.676650 -0.506550
O23   O     O_R   0.543230 0.049300 0.667990 -0.523108
O24   O     O_R   0.737140 0.790390 0.323350 -0.528174
O25   O     O_R   0.762860 0.290390 0.676650 -0.506333
O26   O     O_R   0.237140 0.290390 0.323350 -0.528249
O27   O     O_R   0.167460 0.907030 0.670940 -0.491155
O28   O     O_R   0.832540 0.907030 0.329060 -0.511687
O29   O     O_R   0.667460 0.407030 0.670940 -0.491256
O30   O     O_R   0.332540 0.407030 0.329060 -0.511628
O31   O     O_R   0.053950 0.750220 0.675100 -0.490473
O32   O     O_R   0.946050 0.750220 0.324900 -0.514751
O33   O     O_R   0.553950 0.250220 0.675100 -0.491141
O34   O     O_R   0.456770 0.049300 0.332010 -0.524318
O35   O     O_R   0.446050 0.250220 0.324900 -0.513703
O36   O     O_R   0.043300 0.547370 0.827390 -0.510716
O37   O     O_R   0.956700 0.547370 0.172610 -0.515396
O38   O     O_R   0.543300 0.047370 0.827390 -0.514190
O39   O     O_R   0.456700 0.047370 0.172610 -0.517534
O40   O     O_R   0.178690 0.455820 0.821860 -0.486000
O41   O     O_R   0.821310 0.455820 0.178140 -0.492158
O42   O     O_R   0.678690 0.955820 0.821860 -0.480851
O43   O     O_R   0.321310 0.955820 0.178140 -0.499522
O44   O     O_R   0.284750 0.540170 0.828860 -0.492464
O45   O     O_R   0.262920 0.788600 0.824420 -0.511289
O46   O     O_R   0.715250 0.540170 0.171140 -0.507632
O47   O     O_R   0.784750 0.040170 0.828860 -0.494297
O48   O     O_R   0.215250 0.040170 0.171140 -0.507096
O49   O     O_2   0.004344 0.196461 0.616090 -0.542228
O50   O     O_2   0.061473 0.139350 0.412084 -0.570060
O51   O     O_2   0.504259 0.696531 0.616197 -0.542976
O52   O     O_2   0.561670 0.639278 0.412276 -0.569991
O53   O     O_R   0.737080 0.788600 0.175580 -0.499297
O54   O     O_R   0.762920 0.288600 0.824420 -0.509351
O55   O     O_R   0.237080 0.288600 0.175580 -0.501104
O56   O     O_R   0.167530 0.905110 0.830340 -0.483372

loop_
_geom_bond_atom_site_label_1
_geom_bond_atom_site_label_2
_ccdc_geom_bond_type
C44   C49   S    
C1    C87   S    
Cr8   O18   S    
C21   C26   A    
C35   C74   S    
C8    C13   A    
C37   C69   S    
C2    C18   A    
C43   C83   S    
C57   C79   S    
C42   C82   S    
C73   O3    A    
C68   O46   A    
C77   O38   A    
C74   O4    A    
C53   C59   D    
C56   C81   D    
C32   C72   S    
C3    C65   S    
C75   O36   A    
C7    C11   A    
C72   O53   A    
C69   O42   A    
C44   H44   S    
C80   H27   S    
C10   H32   S    
C60   H11   S    
C43   O30   A    
C95   H51   S    
C62   O31   A    
Cr9   O24   S    
C49   H45   S    
Cr4   O4    S    
C78   H21   S    
Cr7   O43   S    
C82   H29   S    
C86   C91   D    
C85   H24   S    
C55   C77   S    
C12   O19   A    
C91   H23   S    
C20   C25   A    
Cr2   O6    S    
C70   O48   A    
C34   O17   A    
C61   H13   S    
C18   C19   A    
C56   H19   S    
C35   H8    S    
C30   C96   S    
C65   O35   A    
C78   C83   D    
C25   H43   S    
C95   O51   D    
C55   H17   S    
C43   O26   A    
C5    H36   S    
C16   C17   A    
C71   O45   A    
C74   O55   A    
C75   O5    A    
Cr10  O11   S    
C40   C80   S    
Cr12  O27   S    
C3    C17   A    
C69   O47   A    
C13   H35   S    
C92   H34   S    
C9    C10   A    
C37   C46   D    
C36   C44   D    
C48   C52   S    
C7    H38   S    
C66   O40   A    
C56   C90   S    
C48   H48   S    
C22   H41   S    
C94   H50   S    
Cr7   O17   S    
C64   O33   A    
Cr11  O13   S    
C50   H53   S    
Cr1   O36   S    
Cr3   O33   S    
Cr5   O10   S    
C53   C75   S    
C34   C84   S    
Cr8   O45   S    
C31   C49   D    
Cr4   O13   S    
C9    H31   S    
C32   H6    S    
C36   C70   S    
C46   C50   S    
Cr3   O3    S    
C25   C29   A    
C46   H46   S    
C94   O50   D    
C33   H7    S    
C93   O49   D    
C64   O23   A    
C24   C28   A    
C63   O12   A    
C45   C88   S    
Cr1   O9    S    
C51   H54   S    
Cr2   O28   S    
Cr11  O21   S    
C24   H40   S    
C29   C95   S    
C6    H37   S    
C76   O37   A    
C28   C94   S    
C47   C51   S    
Cr11  O48   S    
C7    C17   A    
C70   O43   A    
C58   H9    S    
C71   O56   A    
C41   O24   A    
C60   C61   S    
Cr6   O11   S    
Cr7   O34   S    
C90   H12   S    
C79   O8    A    
C4    C16   A    
C34   O21   A    
C76   O6    A    
C63   O32   A    
C5    C9    A    
C29   C30   A    
C19   C89   A    
Cr5   O15   S    
C6    C14   A    
C66   O44   A    
C1    O14   A    
C86   H25   S    
C26   H42   S    
C45   H18   S    
C77   O7    A    
C41   C81   S    
Cr12  O9    S    
C63   C89   S    
C27   C28   A    
C67   C91   S    
C87   H26   S    
C23   O16   A    
Cr2   O32   S    
C15   C89   A    
Cr9   O19   S    
Cr12  O31   S    
C93   H49   S    
C11   H33   S    
Cr10  O20   S    
C38   C47   D    
Cr2   O2    S    
Cr5   O41   S    
Cr6   O42   S    
C54   C76   S    
C88   H1    S    
C33   C73   S    
C39   H4    S    
Cr10  O54   S    
C38   C68   S    
C26   C30   A    
C59   H10   S    
Cr9   O53   S    
C22   C27   A    
C53   H15   S    
C39   C66   S    
Cr11  O55   S    
C3    C21   A    
C8    H39   S    
C37   H2    S    
C62   O1    A    
Cr1   O40   S    
C68   O41   A    
C87   C92   D    
Cr4   O8    S    
C81   H28   S    
C54   C58   D    
Cr3   O29   S    
C41   O28   A    
C96   H52   S    
C18   C22   A    
C72   O2    A    
C84   C88   D    
C57   C60   D    
C6    C10   A    
C85   C90   D    
Cr8   O9    S    
Cr4   O30   S    
C33   C51   D    
Cr8   O22   S    
C4    C64   S    
C79   O39   A    
Cr6   O23   S    
C96   O52   D    
C12   C86   S    
Cr6   O16   S    
Cr9   O10   S    
C78   C92   S    
C19   C24   A    
C58   C59   S    
C23   O20   A    
Cr5   O37   S    
C67   H20   S    
Cr12  O56   S    
C11   C13   A    
C42   O25   A    
Cr1   O14   S    
C40   O27   A    
C47   H47   S    
Cr1   O1    S    
Cr10  O47   S    
C55   C61   D    
Cr11  O26   S    
C84   H22   S    
C73   O54   A    
C32   C50   D    
C45   C80   D    
Cr8   O44   S    
Cr6   O38   S    
C2    C14   A    
Cr7   O39   S    
C1    O18   A    
C5    C15   A    
Cr3   O11   S    
C27   C93   S    
Cr9   O46   S    
C52   H55   S    
C42   O29   A    
C65   O34   A    
C4    C20   A    
Cr4   O35   S    
C54   H14   S    
C12   O15   A    
C40   O22   A    
C20   C21   A    
C67   C82   D    
C8    C16   A    
C23   C85   S    
C35   C52   D    
C36   H56   S    
C14   C15   A    
C39   C48   D    
Cr5   O12   S    
Cr10  O25   S    
Cr7   O13   S    
C38   H3    S    
Cr12  O5    S    
C31   H5    S    
C83   H30   S    
C2    C62   S    
Cr3   O7    S    
C31   C71   S    
C57   H16   S    
Cr2   O10   S    
