data_mof_unit_4683.cif
_audit_creation_date              2013-03-05T16:44:34-0500
_audit_creation_method            fapswitch 2.2
_symmetry_space_group_name_H-M    P1
_symmetry_Int_Tables_number       1
_space_group_crystal_system       triclinic
_cell_length_a                    26.945255
_cell_length_b                    10.652996
_cell_length_c                    9.860387
_cell_angle_alpha                 89.597262
_cell_angle_beta                  90.478225
_cell_angle_gamma                 90.031074
_cell_volume                      2830.2325062

loop_
_atom_site_label
_atom_site_type_symbol
_atom_site_description
_atom_site_fract_x
_atom_site_fract_y
_atom_site_fract_z
_atom_type_partial_charge
O1    O     O_R   0.500010 0.316790 0.614690 -0.634325
O2    O     O_R   0.500000 0.316760 0.385350 -0.602470
C1    C     C_R   0.503959 0.260256 0.500375 0.890376
O3    O     O_R   0.428760 0.500040 0.614660 -0.597964
O4    O     O_R   0.428750 0.500000 0.385310 -0.599532
C2    C     C_R   0.405621 0.498995 0.499524 0.985342
Zn1   Zn    Zn3+2 0.500000 0.500020 0.653130 0.966276
Zn2   Zn    Zn3+2 0.500000 0.499980 0.346870 1.004118
O5    O     O_R   0.500000 0.683240 0.614650 -0.608365
O6    O     O_R   0.499990 0.683210 0.385310 -0.608532
O7    O     O_R   0.571250 0.500000 0.614690 -0.634941
O8    O     O_R   0.571240 0.499960 0.385340 -0.598829
C3    C     C_R   0.501284 0.740160 0.499632 0.936451
C4    C     C_R   0.594520 0.496118 0.500821 0.862891
C5    C     C_R   0.182093 0.276465 0.432796 0.579858
O9    O     O_2   0.207399 0.243387 0.321059 -0.515906
N1    N     N_R   0.205546 0.340918 0.534207 -0.340106
C6    C     C_R   0.181502 0.373816 0.650108 0.584853
C7    C     C_R   0.265898 0.505142 0.487924 -0.173808
C8    C     C_R   0.314662 0.550422 0.479493 -0.119735
C9    C     C_R   0.343830 0.336985 0.525623 -0.197096
C10   C     C_R   0.295306 0.292569 0.536867 0.048450
C11   C     C_R   0.256089 0.378624 0.518090 0.203941
C12   C     C_R   0.105511 0.285228 0.559290 -0.046020
C13   C     C_R   0.131672 0.245826 0.444363 -0.049684
C14   C     C_R   0.107371 0.174170 0.345860 -0.164481
C15   C     C_R   0.131010 0.346912 0.664764 -0.026990
C16   C     C_R   0.353667 0.463977 0.499862 -0.125326
H1    H     H_    0.374679 0.272862 0.541164 0.155989
C17   C     C_R   0.647037 0.463411 0.505258 -0.017992
C18   C     C_R   0.975703 0.228211 0.447357 0.073161
C19   C     C_R   0.975154 0.299765 0.683979 0.034617
C20   C     C_R   0.949457 0.270579 0.562673 0.081019
C21   C     C_R   0.949502 0.216344 0.323579 -0.138764
C22   C     C_R   0.898643 0.235602 0.315930 -0.129722
C23   C     C_R   0.872402 0.274445 0.429822 -0.023681
C24   C     C_R   0.897546 0.290973 0.554388 -0.052575
C25   C     C_R   0.871200 0.333176 0.668798 -0.091660
C26   C     C_R   0.821723 0.373025 0.649416 0.531532
N2    N     N_R   0.797767 0.353614 0.528262 -0.354848
C27   C     C_R   0.821744 0.302463 0.420332 0.511630
C28   C     C_R   0.730239 0.473084 0.415455 -0.071432
C29   C     C_R   0.680442 0.509376 0.408798 -0.202977
C30   C     C_R   0.663208 0.377604 0.604645 -0.195734
C31   C     C_R   0.712253 0.338626 0.608565 -0.082653
C32   C     C_R   0.746343 0.387571 0.515820 0.280314
O10   O     O_2   0.796743 0.280014 0.303800 -0.529207
C33   C     C_R   0.028004 0.211719 0.455800 -0.021630
C34   C     C_R   0.053629 0.266937 0.566623 0.071245
C35   C     C_R   0.027558 0.308203 0.682535 0.067024
C36   C     C_R   0.056398 0.149820 0.354686 -0.070902
H2    H     H_    0.668221 0.574512 0.330576 0.149050
H3    H     H_    0.756323 0.512173 0.343666 0.161121
H4    H     H_    0.880311 0.224773 0.218554 0.204356
O11   O     O_2   0.206403 0.433546 0.750029 -0.528442
C37   C     C_R   0.105411 0.383528 0.780478 -0.106762
H5    H     H_    0.124297 0.430631 0.863175 0.200647
C38   C     C_R   0.947488 0.325147 0.801188 -0.247220
C39   C     C_R   0.896049 0.339672 0.795916 -0.007502
O12   O     O_2   0.798313 0.436547 0.747951 -0.522242
C40   C     C_R   0.054595 0.364635 0.789495 -0.186594
H6    H     H_    0.965223 0.330074 0.899622 0.166800
H7    H     H_    0.637589 0.338517 0.677847 0.159095
H8    H     H_    0.037095 0.402068 0.878439 0.157542
C41   C     C_R   0.507341 0.062842 0.622907 0.111773
C42   C     C_R   0.515261 0.129175 0.502686 -0.172741
C43   C     C_R   0.532480 0.064190 0.386770 -0.046285
C44   C     C_R   0.528097 0.933780 0.386106 -0.252603
C45   C     C_R   0.509728 0.871465 0.500750 -0.127128
C46   C     C_R   0.504702 0.935446 0.621660 0.112934
C47   C     C_3   0.464131 0.930466 0.723623 -0.390140
C48   C     C_3   0.467271 0.072347 0.726558 -0.453126
H9    H     H_    0.428551 0.894870 0.680646 0.236661
H10   H     H_    0.476313 0.885132 0.820191 0.220140
H11   H     H_    0.433209 0.119652 0.687352 0.219446
H12   H     H_    0.481956 0.107420 0.824839 0.213566
C49   C     C_R   0.457087 0.479281 0.070796 0.184230
N3    N     N_R   0.499670 0.499140 0.142800 -0.118556
C50   C     C_R   0.541521 0.530438 0.072549 -0.086678
H13   H     H_    0.575277 0.553351 0.126983 0.159114
C51   C     C_R   0.541579 0.529964 0.928727 -0.132822
H14   H     H_    0.575387 0.552195 0.875384 0.163719
N4    N     N_R   0.499670 0.499180 0.857150 -0.124120
C52   C     C_R   0.456728 0.482020 0.927901 0.225417
C53   C     C_3   0.423695 0.369211 0.920494 -0.376497
C54   C     C_3   0.425926 0.363203 0.075869 -0.376979
H15   H     H_    0.442443 0.289713 0.870851 0.147856
H16   H     H_    0.447220 0.280512 0.114208 0.180137
H17   H     H_    0.234808 0.568610 0.474413 0.189031
C55   C     C_2   0.870172 0.356167 0.926850 0.985296
O13   O     O_2   0.832559 0.296113 0.951354 -0.563562
O14   O     O_R   0.890142 0.436680 0.024540 -0.808137
H18   H     H_    0.869184 0.440662 0.109315 0.352510
H19   H     H_    0.724033 0.271399 0.685195 0.167701
C56   C     C_2   0.553967 0.126944 0.265863 0.945789
O15   O     O_2   0.581511 0.217374 0.279418 -0.608351
O16   O     O_R   0.544154 0.079518 0.136479 -0.818124
H20   H     H_    0.560892 0.129993 0.062239 0.339861
H21   H     H_    0.537978 0.881649 0.296231 0.199571
C57   C     C_2   0.287010 0.157966 0.572419 1.019729
O17   O     O_2   0.320177 0.081372 0.555465 -0.613886
O18   O     O_R   0.242002 0.118196 0.627711 -0.783596
H22   H     H_    0.241340 0.024686 0.647483 0.369579
C58   C     C_2   0.373004 0.396095 0.860479 1.015779
O19   O     O_2   0.343957 0.309305 0.843798 -0.604532
O20   O     O_R   0.358649 0.519049 0.828449 -0.746271
H23   H     H_    0.323439 0.523884 0.791729 0.363756
C59   C     C_2   0.377420 0.381714 0.148615 1.034654
O21   O     O_2   0.359651 0.294497 0.213118 -0.589589
O22   O     O_R   0.352666 0.497011 0.141143 -0.759796
H24   H     H_    0.319966 0.495781 0.191176 0.353388
H25   H     H_    0.128549 0.132504 0.264748 0.227682
H26   H     H_    0.968073 0.198987 0.229036 0.147113
C60   C     C_2   0.035992 0.046619 0.270099 0.904371
O23   O     O_2   0.053203 0.025959 0.158016 -0.607103
O24   O     O_R   0.997958 0.970502 0.320500 -0.776774
H27   H     H_    0.987347 0.903258 0.254016 0.357606
C61   C     C_2   0.323275 0.686793 0.452310 0.969624
O25   O     O_2   0.288455 0.754394 0.419246 -0.575983
O26   O     O_R   0.370679 0.739171 0.465205 -0.815279
H28   H     H_    0.371252 0.832516 0.444393 0.369576

loop_
_geom_bond_atom_site_label_1
_geom_bond_atom_site_label_2
_geom_bond_distance
_ccdc_geom_bond_type
C38   H6    1.079867 S    
Zn1   N4    2.011767 S    
Zn2   N3    2.012237 S    
C56   O15   1.223165 D    
C12   C15   1.408079 A    
C19   C38   1.408389 A    
C48   H12   1.110785 S    
C8    C61   1.493787 S    
C51   H14   1.081032 S    
C31   C32   1.399552 A    
C59   O21   1.222032 D    
C21   H26   1.078867 S    
N2    C32   1.436318 S    
N1    C11   1.429503 S    
C23   C24   1.409843 A    
C48   H11   1.112477 S    
C28   H3    1.082731 S    
C53   C54   1.533622 S    
C25   C26   1.410417 A    
O7    C4    1.291497 A    
C54   H16   1.113725 S    
C29   H2    1.083192 S    
C5    C13   1.402474 A    
O20   H23   1.013847 S    
C41   C46   1.359116 A    
O16   H20   1.013973 S    
C37   H5    1.083611 S    
C5    N1    1.367233 A    
C21   C22   1.387132 A    
C28   C32   1.406455 A    
O5    C3    1.283000 A    
O22   H24   1.013446 S    
C57   O17   1.223770 D    
Zn1   O7    1.960010 S    
C61   O25   1.223727 D    
C33   C36   1.427153 A    
C2    C16   1.448591 S    
C7    C8    1.402381 A    
C44   C45   1.400705 A    
C18   C20   1.420478 A    
C46   C47   1.492057 S    
C42   C43   1.421706 A    
C9    C10   1.395249 A    
C22   H4    1.082960 S    
C43   C56   1.484358 S    
C17   C30   1.402331 A    
C23   C27   1.399622 A    
C45   C46   1.385100 A    
C4    C17   1.457764 S    
O3    Zn1   1.953592 S    
C31   H19   1.083142 S    
C58   O20   1.399191 S    
C58   O19   1.222166 D    
C51   N4    1.367623 A    
C60   O23   1.223527 D    
C53   H15   1.105654 S    
C30   H7    1.083829 S    
C54   C59   1.509815 S    
C36   C60   1.487028 S    
C10   C57   1.490930 S    
C43   C44   1.394263 A    
C12   C13   1.406290 A    
O3    C2    1.290778 A    
C26   N2    1.370044 A    
C50   C51   1.418204 A    
C15   C37   1.396228 A    
C8    C16   1.409934 A    
C49   C52   1.409048 A    
C38   C39   1.395228 A    
C49   N3    1.361493 A    
C9    H1    1.085388 S    
C20   C24   1.417251 A    
C50   H13   1.080952 S    
O1    C1    1.286935 A    
C39   C55   1.483988 S    
C40   H8    1.078234 S    
C7    C11   1.403620 A    
C24   C25   1.414072 A    
C7    H17   1.083588 S    
O4    Zn2   1.960012 S    
C55   O14   1.398405 S    
N4    C52   1.367624 A    
Zn2   O8    1.953592 S    
C57   O18   1.398130 S    
N1    C6    1.366335 A    
C27   O10   1.349861 S    
C18   C21   1.411285 A    
C37   C40   1.387340 A    
C52   C53   1.496928 S    
C19   C35   1.415017 A    
C53   C58   1.510759 S    
C6    O11   1.350224 S    
N2    C27   1.366349 A    
C9    C16   1.400311 A    
O8    C4    1.295846 A    
C49   C54   1.495099 S    
C41   C42   1.393703 A    
C18   C33   1.421925 A    
C17   C29   1.400660 A    
C1    C42   1.429375 S    
C28   C29   1.397481 A    
C14   H25   1.084072 S    
C30   C31   1.385601 A    
C47   H9    1.112457 S    
C12   C34   1.413764 A    
Zn1   O5    1.985759 S    
C33   C34   1.418774 A    
O1    Zn1   1.991024 S    
C10   C11   1.409528 A    
O2    Zn2   1.985760 S    
C6    C15   1.398694 A    
O6    C3    1.284111 A    
C47   H10   1.111826 S    
C60   O24   1.398836 S    
C56   O16   1.398593 S    
C41   C48   1.496842 S    
C19   C20   1.413505 A    
O2    C1    1.283959 A    
C13   C14   1.397881 A    
C44   H21   1.084287 S    
C47   C48   1.514248 S    
C14   C36   1.400940 A    
N3    C50   1.368231 A    
C55   O13   1.223145 D    
O4    C2    1.291657 A    
C3    C45   1.417155 S    
C26   O12   1.348981 S    
O14   H18   1.013843 S    
C59   O22   1.399200 S    
O24   H27   1.013853 S    
O18   H22   1.013896 S    
C61   O26   1.398789 S    
C25   C39   1.418230 A    
Zn2   O6    1.991023 S    
C34   C35   1.419096 A    
C35   C40   1.414253 A    
O26   H28   1.014079 S    
C22   C23   1.397302 A    
C5    O9    1.349552 S    
