data_mof_unit_2558.cif
_audit_creation_date              2012-12-11T17:15:55-0500
_audit_creation_method            fapswitch 2.2
_symmetry_space_group_name_H-M    P1
_symmetry_Int_Tables_number       1
_space_group_crystal_system       triclinic
_cell_length_a                    14.613791
_cell_length_b                    7.225372
_cell_length_c                    13.451931
_cell_angle_alpha                 90.005523
_cell_angle_beta                  99.493333
_cell_angle_gamma                 89.964308
_cell_volume                      1400.93761797

loop_
_atom_site_label
_atom_site_type_symbol
_atom_type_description
_atom_site_fract_x
_atom_site_fract_y
_atom_site_fract_z
_atom_type_partial_charge
O1    O     O_R   0.398210 0.494340 0.401550 -0.530301
O2    O     O_R   0.601790 0.994340 0.598450 -0.529621
O3    O     O_R   0.586310 0.821730 0.403360 -0.545717
O4    O     O_R   0.413690 0.321730 0.596640 -0.545457
C1    C     C_R   0.616265 0.655520 0.383091 0.653550
C2    C     C_R   0.383222 0.155751 0.616344 0.653229
O5    O     O_R   0.397970 0.823900 0.389580 -0.535704
O6    O     O_R   0.602030 0.323900 0.610420 -0.535871
O7    O     O_R   0.412100 0.996500 0.584560 -0.537688
O8    O     O_R   0.587900 0.496500 0.415440 -0.538045
C3    C     C_R   0.364983 0.655253 0.363098 0.726236
C4    C     C_R   0.634998 0.155201 0.636924 0.725997
O9    O     O_3   0.504860 0.661550 0.563990 -0.374896
O10   O     O_3   0.495140 0.161550 0.436010 -0.375034
V1    V     V_3+5 0.499100 0.935510 0.488130 1.387254
V2    V     V_3+5 0.500900 0.435510 0.511870 1.386464
C5    C     C_1   0.716054 0.144548 0.716794 -0.186599
C6    C     C_1   0.283916 0.644628 0.283245 -0.185467
C7    C     C_1   0.783951 0.134067 0.783195 -0.185198
C8    C     C_1   0.216023 0.634025 0.216849 -0.186863
C9    C     C_3   0.288997 0.138848 0.871467 0.011388
C10   C     C_3   0.710777 0.670023 0.128101 0.009869
H1    H     H_    0.301405 0.001797 0.909358 0.126273
H2    H     H_    0.691212 0.544408 0.081316 0.123884
C11   C     C_3   0.359369 0.159361 0.796246 -0.356757
C12   C     C_3   0.641259 0.688020 0.204431 -0.350973
H3    H     H_    0.412696 0.048301 0.811556 0.129174
H4    H     H_    0.582547 0.590268 0.182327 0.123877
H5    H     H_    0.178103 0.437460 0.787948 0.127098
H6    H     H_    0.839028 0.927073 0.230704 0.129972
H7    H     H_    0.281327 0.445362 0.680532 0.132028
H8    H     H_    0.732812 0.935717 0.335112 0.131907
C13   C     C_3   0.170640 0.308716 0.742088 -0.317438
C14   C     C_3   0.837409 0.789770 0.267647 -0.317750
C15   C     C_3   0.178792 0.962758 0.740672 -0.358867
C16   C     C_3   0.809387 0.449538 0.245931 -0.357476
C17   C     C_3   0.187054 0.135316 0.811526 0.039027
C18   C     C_3   0.811724 0.635473 0.187163 0.037922
H9    H     H_    0.108843 0.959439 0.693089 0.144063
H10   H     H_    0.878505 0.422549 0.292327 0.147814
C19   C     C_3   0.310101 0.148573 0.684976 0.040106
C20   C     C_3   0.689011 0.647821 0.314123 0.038734
C21   C     C_3   0.240241 0.315448 0.665647 0.020380
C22   C     C_3   0.766970 0.797290 0.343255 0.018106
C23   C     C_3   0.254042 0.964891 0.672154 -0.333317
C24   C     C_3   0.734815 0.453362 0.314989 -0.331393
H11   H     H_    0.301519 0.845153 0.692114 0.152327
H12   H     H_    0.681062 0.347419 0.288217 0.151666
H13   H     H_    0.221131 0.945916 0.592253 0.133944
H14   H     H_    0.766498 0.413578 0.392939 0.135042
H15   H     H_    0.097516 0.307099 0.702406 0.140681
H16   H     H_    0.909248 0.764160 0.307588 0.137516
O11   O     O_R   0.912140 0.786650 0.084610 -0.542007
O12   O     O_R   0.087860 0.286650 0.915390 -0.540948
O13   O     O_R   0.102040 0.454810 0.110430 -0.536001
O14   O     O_R   0.897960 0.954810 0.889570 -0.536807
C25   C     C_R   0.134986 0.623520 0.136942 0.722265
C26   C     C_R   0.865001 0.123561 0.863080 0.720696
O15   O     O_R   0.913690 0.457060 0.096650 -0.542149
O16   O     O_R   0.086310 0.957060 0.903350 -0.542823
O17   O     O_R   0.898200 0.284560 0.901540 -0.530400
O18   O     O_R   0.101800 0.784560 0.098460 -0.530003
C27   C     C_R   0.884185 0.625475 0.117294 0.647068
C28   C     C_R   0.114853 0.125502 0.881629 0.647212
O19   O     O_3   0.995160 0.617270 0.936040 -0.373893
O20   O     O_3   0.004840 0.117270 0.063960 -0.373744
V3    V     V_3+5 0.000900 0.343280 0.011870 1.382903
V4    V     V_3+5 0.999100 0.843280 0.988130 1.381833
C29   C     C_3   0.306339 0.287562 0.955911 -0.348870
C30   C     C_3   0.400618 0.263740 0.023745 -0.791094
H17   H     H_    0.406186 0.123707 0.058305 0.223229
H18   H     H_    0.458448 0.283776 0.980745 0.226406
H19   H     H_    0.407869 0.368211 0.085127 0.219136
H20   H     H_    0.302164 0.428830 0.922876 0.177627
H21   H     H_    0.253165 0.276798 0.005656 0.189719
C31   C     C_3   0.701787 0.836582 0.054002 -0.346244
C32   C     C_3   0.605908 0.847806 0.987994 -0.797428
H22   H     H_    0.589505 0.716087 0.946283 0.225864
H23   H     H_    0.550993 0.877282 0.033725 0.227027
H24   H     H_    0.605456 0.961451 0.932302 0.217824
H25   H     H_    0.716145 0.968776 0.095830 0.177512
H26   H     H_    0.752218 0.822292 0.001370 0.193954
C33   C     C_3   0.188214 0.324641 0.555177 -0.341417
C34   C     C_3   0.146305 0.515860 0.528622 -0.793812
H27   H     H_    0.097831 0.555614 0.580423 0.227212
H28   H     H_    0.202275 0.620812 0.533080 0.218530
H29   H     H_    0.107432 0.514347 0.450375 0.217690
H30   H     H_    0.236117 0.294209 0.501247 0.178712
H31   H     H_    0.132028 0.219428 0.542540 0.182550
C35   C     C_3   0.817148 0.780929 0.454104 -0.342282
C36   C     C_3   0.871267 0.956542 0.489791 -0.792089
H32   H     H_    0.925563 0.985153 0.443080 0.224085
H33   H     H_    0.823527 0.077026 0.485834 0.218084
H34   H     H_    0.905545 0.938815 0.569268 0.217799
H35   H     H_    0.766196 0.757448 0.505548 0.177284
H36   H     H_    0.865609 0.661210 0.462589 0.183284
H37   H     H_    0.397107 0.293458 0.807346 0.141313
H38   H     H_    0.610689 0.829339 0.202215 0.145557
H39   H     H_    0.186427 0.832676 0.785594 0.147310
H40   H     H_    0.794174 0.331669 0.192454 0.143229

loop_
_geom_bond_atom_site_label_1
_geom_bond_atom_site_label_2
_ccdc_geom_bond_type
C1    C20   S    
C3    C6    S    
C21   C33   S    
O1    C3    A    
C34   H29   S    
C10   C31   S    
O2    C4    A    
C2    O7    A    
O3    V1    S    
C25   O18   A    
C32   H22   S    
O5    C3    A    
H7    C21   S    
C15   C17   S    
C34   H28   S    
C10   C18   S    
H5    C13   S    
C20   C24   S    
C23   H11   S    
O11   V4    S    
O15   V3    S    
C2    C19   S    
C4    C5    S    
C16   C24   S    
C30   H17   S    
C26   O17   A    
O5    V1    S    
C33   H30   S    
O6    V2    S    
C19   C21   S    
C20   C22   S    
C15   H39   S    
C32   H23   S    
C7    C26   S    
C33   H31   S    
C24   H12   S    
H6    C14   S    
C13   C21   S    
C16   H10   S    
C14   C22   S    
C31   C32   S    
O4    C2    A    
C31   H26   S    
C36   H32   S    
O12   V3    S    
O14   V4    S    
C13   C17   S    
C9    C29   S    
O4    V2    S    
C15   H9    S    
C36   H33   S    
O17   V3    S    
C33   C34   S    
C23   H13   S    
O6    C4    A    
O19   V4    S    
C30   H19   S    
H8    C22   S    
C29   H20   S    
C16   H40   S    
O1    V2    S    
C34   H27   S    
O2    V1    S    
C12   H38   S    
C11   H37   S    
O13   C25   A    
C10   H2    S    
O15   C27   A    
C13   H15   S    
C29   H21   S    
C11   C19   S    
C15   C23   S    
C17   C28   S    
C22   C35   S    
C12   C20   S    
C18   C27   S    
C32   H24   S    
C9    C11   S    
C14   C18   S    
C14   H16   S    
O3    C1    A    
C35   H35   S    
C31   H25   S    
O13   V3    S    
C35   H36   S    
C11   H3    S    
C24   H14   S    
C12   H4    S    
O18   V4    S    
O16   C28   A    
C9    H1    S    
O7    V1    S    
C1    O8    A    
O8    V2    S    
C36   H34   S    
O11   C27   A    
C35   C36   S    
O12   C28   A    
C16   C18   S    
C5    C7    T    
O14   C26   A    
O20   V3    S    
C6    C8    T    
C29   C30   S    
C9    C17   S    
O16   V4    S    
C10   C12   S    
O9    V2    S    
C19   C23   S    
O10   V1    S    
C30   H18   S    
C8    C25   S    
