data_mof_unit_3134.cif
_audit_creation_date              2012-12-11T18:34:55-0500
_audit_creation_method            fapswitch 2.2
_symmetry_space_group_name_H-M    P1
_symmetry_Int_Tables_number       1
_space_group_crystal_system       triclinic
_cell_length_a                    8.347074
_cell_length_b                    14.352949
_cell_length_c                    22.775995
_cell_angle_alpha                 93.795486
_cell_angle_beta                  89.175325
_cell_angle_gamma                 92.11727
_cell_volume                      2720.64204578

loop_
_atom_site_label
_atom_site_type_symbol
_atom_type_description
_atom_site_fract_x
_atom_site_fract_y
_atom_site_fract_z
_atom_type_partial_charge
Ba1   Ba    Ba6+2 0.846250 0.544220 0.470860 1.929339
Ba2   Ba    Ba6+2 0.343570 0.455860 0.529140 1.836017
Br1   Br    Br    0.666717 0.895575 0.340788 -0.539894
Br2   Br    Br    0.939611 0.125884 0.371348 -0.496851
Br3   Br    Br    0.823180 0.709024 0.706436 -0.543588
Br4   Br    Br    0.621666 0.115591 0.777256 -0.385587
Br5   Br    Br    0.047222 0.215896 0.066668 -0.392423
Br6   Br    Br    0.231435 0.795768 0.059110 -0.442740
Br7   Br    Br    0.337640 0.851444 0.626967 -0.555100
C1    C     C_3   0.532499 0.811295 0.237028 -0.280521
C2    C     C_R   0.081243 0.580268 0.938811 -0.076758
C3    C     C_R   0.038129 0.574588 0.878452 0.647554
C4    C     C_3   0.134850 0.802663 0.303269 0.871206
C5    C     C_R   0.982312 0.410086 0.881792 0.676856
C6    C     C_R   0.027038 0.413554 0.941572 -0.071622
C7    C     C_R   0.076065 0.499122 0.970532 -0.049715
C8    C     C_R   0.128438 0.665638 0.968110 -0.043430
C9    C     C_R   0.169045 0.671910 0.027708 0.304104
C10   C     C_R   0.164843 0.590546 0.060534 -0.062728
C11   C     C_R   0.119248 0.503448 0.031246 -0.115239
C12   C     C_3   0.582532 0.784327 0.297493 0.532820
C13   C     C_R   0.022408 0.332558 0.972860 -0.047547
C14   C     C_R   0.065926 0.334782 0.031899 0.313014
C15   C     C_R   0.116144 0.420591 0.062275 -0.056254
C16   C     C_3   0.079115 0.834739 0.244806 -0.159771
C17   C     C_R   0.164169 0.426528 0.122109 0.630492
C18   C     C_R   0.203483 0.592948 0.121317 0.637421
C19   C     C_2   0.798232 0.443488 0.771819 0.606121
C20   C     C_3   0.774753 0.410680 0.708137 -0.119543
C21   C     C_1   0.006746 0.512551 0.684286 0.031583
C22   C     C_2   0.052865 0.517301 0.740541 -0.173676
C23   C     C_3   0.501791 0.324078 0.353278 0.280624
C24   C     C_2   0.941132 0.484286 0.788397 0.135729
C25   C     C_R   0.401867 0.556217 0.230273 -0.054462
C26   C     C_R   0.444578 0.562446 0.289790 -0.039555
C27   C     C_R   0.195952 0.480923 0.315521 0.006209
C28   C     C_3   0.165853 0.762100 0.604262 0.861871
C29   C     C_R   0.150122 0.477833 0.256006 -0.055494
C30   C     C_R   0.251899 0.515946 0.212736 0.250154
C31   C     C_2   0.878910 0.462328 0.665433 -0.230007
C32   C     C_R   0.680499 0.941770 0.532690 0.707405
C33   C     C_R   0.514805 0.801876 0.494749 0.035829
C34   C     C_3   0.453953 0.294113 0.290379 -0.267977
C35   C     C_R   0.384462 0.768625 0.459823 0.364683
C36   C     C_R   0.278079 0.830580 0.437559 -0.125446
C37   C     C_R   0.317786 0.925716 0.439669 0.474035
C38   C     C_R   0.458689 0.960443 0.467541 -0.095786
C39   C     C_R   0.553089 0.900274 0.498759 -0.201765
C40   C     C_3   0.026489 0.824275 0.600827 -0.115266
C41   C     C_R   0.639970 0.093424 0.495109 -0.100968
C42   C     C_R   0.731744 0.034958 0.527625 0.019245
C43   C     C_R   0.687425 0.188606 0.493707 0.031789
C44   C     C_R   0.828727 0.222687 0.521021 -0.234921
C45   C     C_3   0.109840 0.253864 0.693423 0.296158
C46   C     C_R   0.924191 0.163804 0.550276 0.010017
C47   C     C_R   0.873987 0.070648 0.555023 -0.001675
C48   C     C_R   0.502419 0.055577 0.466190 0.060212
C49   C     C_3   0.937868 0.253393 0.348012 0.437176
C50   C     C_3   0.924181 0.251460 0.280847 0.407623
C51   C     C_3   0.641336 0.679215 0.656193 0.915161
C52   C     C_3   0.505607 0.686924 0.701407 -0.169868
C53   C     C_3   0.133724 0.226292 0.755895 -0.223793
C54   C     C_3   0.574582 0.207312 0.671711 0.267121
C55   C     C_3   0.544404 0.112668 0.697239 0.742490
C56   C     C_R   0.340361 0.526422 0.331903 -0.194160
F1    F     F_    0.841791 0.327248 0.264762 -0.730582
F2    F     F_    0.648161 0.589643 0.630352 -0.738119
F3    F     F_    0.624100 0.044985 0.663553 -0.661641
F4    F     F_    0.173234 0.709614 0.295675 -0.756947
F5    F     F_    0.687734 0.417596 0.812704 -0.647476
F6    F     F_    0.351888 0.675452 0.452070 -0.682979
F7    F     F_    0.217118 0.984567 0.415621 -0.667613
F8    F     F_    0.745363 0.896662 0.575537 -0.691013
F9    F     F_    0.195916 0.716404 0.550412 -0.721197
H1    H     H_    0.020270 0.875787 0.639421 0.143966
H2    H     H_    0.391611 0.687870 0.679940 0.132980
H3    H     H_    0.475627 0.759397 0.322470 -0.036871
H4    H     H_    0.450125 0.870326 0.241460 0.109830
H5    H     H_    0.395872 0.352696 0.377034 0.011276
H6    H     H_    0.598821 0.379063 0.352432 0.054387
H7    H     H_    0.344755 0.247558 0.290613 0.128366
H8    H     H_    0.429374 0.355926 0.265757 0.048829
H9    H     H_    0.551920 0.255718 0.267319 0.187720
H10   H     H_    0.470557 0.751129 0.212997 0.132273
H11   H     H_    0.176695 0.828591 0.211391 0.124219
H12   H     H_    0.034521 0.862192 0.560024 0.100117
H13   H     H_    0.193635 0.313938 0.685781 0.078546
H14   H     H_    0.984376 0.274975 0.689141 -0.056520
H15   H     H_    0.244020 0.186302 0.758868 0.146414
H16   H     H_    0.147695 0.290243 0.785601 0.109692
H17   H     H_    0.029419 0.182850 0.770314 0.174437
H18   H     H_    0.706466 0.222006 0.671097 -0.053631
H19   H     H_    0.530027 0.202574 0.625778 0.014977
H20   H     H_    0.414365 0.093733 0.696840 0.054710
H21   H     H_    0.984288 0.266031 0.951290 0.173401
H22   H     H_    0.484881 0.582131 0.197705 0.076111
H23   H     H_    0.917826 0.780736 0.603253 0.171736
H24   H     H_    0.133528 0.728891 0.944584 0.173155
H25   H     H_    0.170846 0.546265 0.752333 0.142321
H26   H     H_    0.036188 0.446007 0.242966 0.173156
H27   H     H_    0.376127 0.529049 0.377423 0.109583
H28   H     H_    0.241824 0.846525 0.317088 -0.093464
H29   H     H_    0.867267 0.440295 0.619135 0.086577
H30   H     H_    0.947559 0.026174 0.579146 0.124635
H31   H     H_    0.866799 0.295226 0.518385 0.053610
H32   H     H_    0.429566 0.099162 0.441341 0.174043
H33   H     H_    0.973938 0.791069 0.228884 0.149375
H34   H     H_    0.833780 0.285164 0.370330 0.044423
H35   H     H_    0.044860 0.908897 0.250224 0.102539
H36   H     H_    0.856200 0.187589 0.263874 0.087028
H37   H     H_    0.044859 0.251931 0.259664 0.066546
H38   H     H_    0.639512 0.833001 0.211030 0.154831
H39   H     H_    0.515292 0.754093 0.728643 0.144940
H40   H     H_    0.505639 0.628652 0.731033 0.105320
N1    N     N_R   0.988458 0.490018 0.850402 -0.418031
N2    N     N_R   0.205052 0.511763 0.150966 -0.444770
O1    O     O_2   0.901900 0.448470 0.362340 -0.453377
O2    O     O_2   0.257068 0.166635 0.547884 -0.453249
O3    O     O_3   0.141494 0.177601 0.653792 -0.596268
O4    O     O_3   0.142240 0.449440 0.433360 -0.446769
O5    O     O_3   0.549340 0.612930 0.525560 -0.356988
O6    O     O_2   0.396530 0.270940 0.479440 -0.434529
O7    O     O_3   0.555914 0.245959 0.379747 -0.625625
O8    O     O_2   0.442070 0.455960 0.711120 -0.456424
O9    O     O_3   0.492786 0.276627 0.705729 -0.612767
O10   O     O_2   0.042538 0.645251 0.851268 -0.530715
O11   O     O_2   0.937735 0.335265 0.857670 -0.548149
O12   O     O_3   0.628237 0.748597 0.615172 -0.552580
O13   O     O_2   0.172377 0.355749 0.148581 -0.533219
O14   O     O_2   0.234051 0.667423 0.148367 -0.548988
O15   O     O_3   0.645560 0.619080 0.391970 -0.461930
O16   O     O_2   0.773447 0.545125 0.292685 -0.430055
O17   O     O_3   0.081296 0.297977 0.367953 -0.648438
O18   O     O_3   0.705224 0.719565 0.290551 -0.568151
O19   O     O_2   0.793170 0.729090 0.520590 -0.458220
O20   O     O_3   0.052800 0.667320 0.419180 -0.364025
O21   O     O_2   0.949837 0.832583 0.455845 -0.449295
O22   O     O_3   0.009976 0.813800 0.344597 -0.529985
O23   O     O_2   0.287790 0.551560 0.637690 -0.447276
O24   O     O_3   0.047460 0.550640 0.566640 -0.425607
O25   O     O_3   0.544140 0.380990 0.608030 -0.454165
O26   O     O_3   0.133418 0.700561 0.648955 -0.617215
O27   O     O_3   0.640350 0.387150 0.474440 -0.490123
O28   O     O_3   0.136890 0.332750 0.580830 -0.516247
P1    P     P_3+3 0.074990 0.420800 0.372080 1.031461
P2    P     P_3+3 0.618830 0.715330 0.538180 1.254292
P3    P     P_3+3 0.076116 0.787524 0.413871 1.236567
P4    P     P_3+3 0.114710 0.579280 0.627920 1.143285
P5    P     P_3+3 0.114486 0.210679 0.582097 0.992642
P6    P     P_3+3 0.640583 0.611090 0.314997 1.030578
P7    P     P_3+3 0.573792 0.272014 0.455531 0.967702
P8    P     P_3+3 0.562983 0.385565 0.684133 1.092707

loop_
_geom_bond_atom_site_label_1
_geom_bond_atom_site_label_2
_ccdc_geom_bond_type
O3    P5    S    
C46   C47   A    
O16   P6    D    
C13   H21   S    
Ba1   P1    S    
C10   C11   A    
C56   H27   S    
C28   F9    S    
O24   P4    S    
C1    H4    S    
C36   C37   A    
C43   C44   A    
Ba2   O23   S    
C55   F3    S    
C19   C20   S    
C25   H22   S    
C25   C26   A    
C50   F1    S    
C29   C30   A    
C3    O10   D    
C26   C56   A    
Ba2   P4    S    
C6    C7    A    
O18   P6    S    
C53   H15   S    
C34   H9    S    
C50   H36   S    
Ba2   O28   S    
C35   F6    S    
O1    P1    D    
Ba1   Ba2   S    
Br4   C55   S    
C32   C39   A    
C6    C13   A    
C11   C15   A    
C51   F2    S    
C54   H18   S    
Ba2   O6    S    
C50   H37   S    
C14   C15   A    
C40   H1    S    
C1    H38   S    
C26   P6    S    
C22   H25   S    
Ba1   O20   S    
C10   C18   A    
C8    H24   S    
C37   F7    S    
C16   H35   S    
C18   O14   D    
C3    N1    Am   
C18   N2    Am   
O27   P7    S    
C48   H32   S    
O8    P8    D    
O4    P1    S    
C49   O17   S    
C45   O3    S    
Ba2   O27   S    
C23   O7    S    
C4    C16   S    
Ba1   P2    S    
C33   C35   A    
Br7   C28   S    
C46   P5    S    
C17   N2    Am   
C44   C46   A    
C52   H2    S    
O7    P7    S    
O23   P4    D    
C24   N1    S    
C28   O26   S    
C25   C30   A    
O26   P4    S    
C51   O12   S    
C47   H30   S    
C29   H26   S    
Ba2   O4    S    
C27   C56   A    
C9    C10   A    
Ba1   O1    S    
C45   C53   S    
C49   C50   S    
C40   H23   S    
Br6   C9    S    
C5    O11   D    
C51   C52   S    
Ba1   O4    S    
O2    P5    D    
O28   P5    S    
Ba1   O27   S    
O9    P8    S    
C23   H6    S    
C28   C40   S    
C2    C7    A    
C41   C43   A    
C38   C39   A    
O22   P3    S    
C7    C11   A    
O19   P2    D    
C53   H17   S    
C16   H11   S    
C41   C42   A    
C21   C31   D    
C33   C39   A    
C17   O13   D    
C54   O9    S    
Ba1   O24   S    
C19   C24   D    
C52   H39   S    
C34   H7    S    
Br1   C12   S    
O17   P1    S    
C12   H3    S    
C33   P2    S    
C12   O18   S    
C35   C36   A    
C16   H33   S    
Ba2   O5    S    
C34   H8    S    
C37   C38   A    
C2    C8    A    
C22   C24   S    
Br3   C51   S    
C36   P3    S    
C41   C48   A    
C40   H12   S    
O21   P3    D    
C13   C14   A    
C19   F5    S    
C42   C47   A    
C15   C17   A    
Ba1   O15   S    
C1    C12   S    
C2    C3    A    
C21   P4    S    
C23   H5    S    
C54   H19   S    
C8    C9    A    
Ba2   O24   S    
C4    O22   S    
C27   C29   A    
C55   H20   S    
O6    P7    D    
C31   H29   S    
C45   H14   S    
C21   C22   D    
O12   P2    S    
C45   H13   S    
C4    F4    S    
C43   P7    S    
Br5   C14   S    
C53   H16   S    
C20   C31   S    
C1    H10   S    
C23   C34   S    
C49   H34   S    
Ba1   O5    S    
O20   P3    S    
C32   F8    S    
C54   C55   S    
O5    P2    S    
C44   H31   S    
C27   P1    S    
C30   N2    S    
Br2   C49   S    
C52   H40   S    
Ba2   O25   S    
C5    C6    A    
O15   P6    S    
C4    H28   S    
Ba1   O19   S    
C38   C48   A    
C32   C42   A    
C5    N1    Am   
O25   P8    S    
C20   P8    S    
