data_mof_unit_2317.cif
_audit_creation_date              2012-12-11T14:30:44-0500
_audit_creation_method            fapswitch 2.2
_symmetry_space_group_name_H-M    P1
_symmetry_Int_Tables_number       1
_space_group_crystal_system       triclinic
_cell_length_a                    17.453736
_cell_length_b                    24.666841
_cell_length_c                    14.84601
_cell_angle_alpha                 90.674202
_cell_angle_beta                  125.357236
_cell_angle_gamma                 89.955611
_cell_volume                      5212.25443158

loop_
_atom_site_label
_atom_site_type_symbol
_atom_type_description
_atom_site_fract_x
_atom_site_fract_y
_atom_site_fract_z
_atom_type_partial_charge
C1    C     C_R   0.812850 0.629033 0.910334 0.505978
C2    C     C_R   0.039107 0.502810 0.714441 0.089553
C3    C     C_R   0.576582 0.003270 0.372331 0.084161
C4    C     C_R   0.540776 0.002833 0.716305 0.086818
C5    C     C_R   0.690793 0.498023 0.641084 0.198992
C6    C     C_R   0.323376 0.500910 0.275073 0.161361
C7    C     C_R   0.191593 0.997711 0.640099 0.197609
C8    C     C_R   0.823442 0.000975 0.275767 0.165971
C9    C     C_3   0.523844 0.451078 0.499916 0.273602
C10   C     C_3   0.495027 0.456949 0.380923 0.284736
C11   C     C_3   0.025897 0.949286 0.495429 0.272133
C12   C     C_R   0.142221 0.653522 0.094326 0.490645
C13   C     C_3   0.996126 0.958833 0.376847 0.286205
C14   C     C_3   0.453077 0.494597 0.479544 0.477163
C15   C     C_3   0.569234 0.502375 0.419501 0.497827
C16   C     C_3   0.954045 0.990997 0.479283 0.474697
C17   C     C_3   0.069027 0.005352 0.419034 0.499996
C18   C     C_3   0.423477 0.500324 0.360418 -0.308038
C19   C     C_3   0.597685 0.496199 0.537709 -0.307821
C20   C     C_3   0.923634 0.000347 0.360696 -0.309790
C21   C     C_3   0.098410 0.995591 0.536765 -0.307021
C22   C     C_3   0.496582 0.546035 0.397145 -0.253100
C23   C     C_R   0.312881 0.129012 0.911623 0.515792
C24   C     C_3   0.526136 0.539925 0.517103 -0.240628
C25   C     C_3   0.995385 0.047167 0.401031 -0.251402
C26   C     C_3   0.025726 0.037430 0.520369 -0.240415
C27   C     C_2   0.205511 0.761957 0.046004 0.515479
C28   C     C_2   0.667381 0.680401 0.947830 0.525040
C29   C     C_2   0.703959 0.261016 0.041636 0.507878
C30   C     C_2   0.171544 0.181873 0.959511 0.481963
C31   C     C_2   0.119419 0.742274 0.997989 -0.172899
C32   C     C_2   0.757423 0.670609 0.024204 -0.257400
C33   C     C_2   0.618106 0.242257 0.998249 -0.164941
C34   C     C_R   0.641949 0.153567 0.094284 0.492575
C35   C     C_2   0.263221 0.173884 0.029150 -0.271238
C36   C     C_2   0.714582 0.296623 0.973470 0.171666
C37   C     C_2   0.137187 0.230668 0.980616 0.193087
C38   C     C_2   0.219500 0.796756 0.979424 0.178841
C39   C     C_2   0.628816 0.727737 0.967477 0.211296
C40   C     C_R   0.905200 0.378440 0.094291 0.530042
C41   C     C_R   0.061273 0.355069 0.902235 0.474911
C42   C     C_R   0.404619 0.879847 0.094690 0.522247
C43   C     C_R   0.558396 0.853175 0.903606 0.472080
C44   C     C_2   0.739641 0.348101 0.007017 0.348782
C45   C     C_R   0.813917 0.371031 0.003694 -0.099577
C46   C     C_2   0.170753 0.279552 0.976452 0.287760
C47   C     C_2   0.239633 0.849145 0.008178 0.348927
C48   C     C_2   0.669417 0.777371 0.983461 0.248741
C49   C     C_2   0.127138 0.460749 0.545426 -0.107287
C50   C     C_2   0.119349 0.463076 0.638689 -0.035662
C51   C     C_2   0.627318 0.960767 0.545685 -0.096693
C52   C     C_2   0.620207 0.962928 0.639532 -0.029357
C53   C     C_2   0.121394 0.505378 0.490970 -0.114518
C54   C     C_2   0.080105 0.505845 0.653216 -0.161447
C55   C     C_2   0.621228 0.005406 0.491030 -0.109813
C56   C     C_R   0.134213 0.328441 0.990181 -0.004962
C57   C     C_2   0.582653 0.005957 0.655962 -0.159684
C58   C     C_R   0.054199 0.547359 0.305810 -0.078851
C59   C     C_R   0.011714 0.547550 0.744844 -0.072288
C60   C     C_R   0.554201 0.047348 0.305837 -0.077206
C61   C     C_R   0.512655 0.047549 0.745905 -0.069029
C62   C     C_R   0.742519 0.454380 0.700772 -0.038613
C63   C     C_R   0.267288 0.455761 0.249281 0.008461
C64   C     C_R   0.242965 0.954229 0.700591 -0.046118
C65   C     C_R   0.767293 0.955758 0.249112 0.008309
C66   C     C_R   0.060029 0.457869 0.308855 0.005607
C67   C     C_R   0.312988 0.873461 0.004569 -0.092766
C68   C     C_R   0.012543 0.456776 0.743489 -0.051252
C69   C     C_R   0.560118 0.957883 0.308916 -0.001062
C70   C     C_R   0.513838 0.956797 0.744971 -0.046236
C71   C     C_R   0.740541 0.544220 0.696550 -0.040906
C72   C     C_R   0.268876 0.546555 0.249024 -0.019505
C73   C     C_R   0.240988 0.044037 0.695820 -0.041335
C74   C     C_R   0.768964 0.046598 0.249701 -0.020548
C75   C     C_R   0.810271 0.383178 0.911274 -0.034531
C76   C     C_R   0.158651 0.355072 0.086098 -0.083692
C77   C     C_R   0.309697 0.884629 0.911901 -0.034201
C78   C     C_R   0.627394 0.824953 0.992618 0.016979
C79   C     C_R   0.655187 0.853747 0.087188 -0.071171
C80   C     C_R   0.905140 0.624511 0.094769 -0.120080
C81   C     C_R   0.053304 0.652624 0.911115 -0.132032
C82   C     C_R   0.406396 0.124807 0.095850 -0.145567
C83   C     C_R   0.552357 0.152768 0.911109 -0.124788
C84   C     C_R   0.817879 0.639491 0.006654 0.084839
C85   C     C_R   0.108845 0.684783 0.002707 0.059193
C86   C     C_R   0.319265 0.140004 0.008844 0.095827
C87   C     C_R   0.607461 0.184896 0.002680 0.053220
C88   C     C_R   0.076614 0.503270 0.372283 0.088921
Cl1   Cl    Cl    0.741304 0.662333 0.784105 -0.536938
Cl2   Cl    Cl    0.976275 0.324720 0.773401 -0.502057
Cl3   Cl    Cl    0.452825 0.849220 0.222956 -0.518591
Cl4   Cl    Cl    0.475833 0.824939 0.771861 -0.500096
Cl5   Cl    Cl    0.175700 0.678789 0.223710 -0.527530
Cl6   Cl    Cl    0.237991 0.160871 0.784581 -0.523437
Cl7   Cl    Cl    0.677682 0.178757 0.224544 -0.534317
Cl8   Cl    Cl    0.308236 0.730170 0.156049 -0.416250
Cl9   Cl    Cl    0.592941 0.635683 0.836151 -0.437311
Cl10  Cl    Cl    0.807816 0.228051 0.146884 -0.415477
Cl11  Cl    Cl    0.093747 0.137500 0.849273 -0.437250
Cl12  Cl    Cl    0.954126 0.348403 0.223200 -0.510309
H1    H     H_    0.484375 0.584675 0.353264 0.231057
H2    H     H_    0.129141 0.425524 0.681472 0.154770
H3    H     H_    0.618688 0.920782 0.509709 0.157138
H4    H     H_    0.628794 0.925101 0.680991 0.158928
H5    H     H_    0.135634 0.545347 0.528839 0.157350
H6    H     H_    0.067896 0.543539 0.610299 0.140555
H7    H     H_    0.635422 0.045396 0.528749 0.159081
H8    H     H_    0.571950 0.044004 0.614696 0.140479
H9    H     H_    0.073573 0.588942 0.334354 0.147428
H10   H     H_    0.020832 0.589655 0.733454 0.125751
H11   H     H_    0.573660 0.088914 0.334454 0.146236
H12   H     H_    0.539088 0.573739 0.574511 0.246864
H13   H     H_    0.522068 0.089663 0.734872 0.125953
H14   H     H_    0.732017 0.412859 0.672545 0.189578
H15   H     H_    0.289668 0.414378 0.269986 0.173337
H16   H     H_    0.232730 0.912611 0.673062 0.191954
H17   H     H_    0.789623 0.914278 0.268748 0.174867
H18   H     H_    0.090432 0.418710 0.341556 0.155434
H19   H     H_    0.022489 0.415593 0.728402 0.165674
H20   H     H_    0.590525 0.918721 0.341616 0.151860
H21   H     H_    0.524882 0.915623 0.731209 0.162897
H22   H     H_    0.727106 0.583681 0.660279 0.190178
H23   H     H_    0.981962 0.087040 0.360700 0.231922
H24   H     H_    0.292275 0.588303 0.264942 0.173941
H25   H     H_    0.227593 0.083538 0.659635 0.192304
H26   H     H_    0.792366 0.088336 0.265805 0.174135
H27   H     H_    0.749245 0.380861 0.827330 0.194060
H28   H     H_    0.204591 0.340261 0.169375 0.173788
H29   H     H_    0.248502 0.882249 0.828109 0.192219
H30   H     H_    0.701288 0.839796 0.171137 0.159367
H31   H     H_    0.933809 0.629231 0.181308 0.148497
H32   H     H_    0.005490 0.666589 0.827312 0.156885
H33   H     H_    0.436440 0.130188 0.182647 0.150918
H34   H     H_    0.038057 0.069445 0.580754 0.246779
H35   H     H_    0.504233 0.166701 0.827332 0.158255
H36   H     H_    0.435689 0.324227 0.534556 0.393989
H37   H     H_    0.565409 0.352470 0.265941 0.406819
H38   H     H_    0.940722 0.817318 0.514009 0.391309
H39   H     H_    0.066975 0.859386 0.253955 0.409180
H40   H     H_    0.685292 0.184392 0.792055 0.390026
H41   H     H_    0.068401 0.134840 0.048654 0.369525
H42   H     H_    0.221323 0.680513 0.824824 0.379974
H43   H     H_    0.394730 0.686995 0.845350 0.393857
H44   H     H_    0.732044 0.462030 0.161022 0.400951
H45   H     H_    0.061180 0.762655 0.925730 0.146954
H46   H     H_    0.268504 0.361422 0.861635 0.387878
H47   H     H_    0.218730 0.964962 0.147851 0.398365
H48   H     H_    0.814589 0.866834 0.944167 0.403888
H49   H     H_    0.282431 0.436406 0.519907 0.372415
H50   H     H_    0.778562 0.467913 0.431524 0.380252
H51   H     H_    0.778423 0.929659 0.509649 0.368928
H52   H     H_    0.276308 0.976545 0.423028 0.379195
H53   H     H_    0.792706 0.692334 0.103043 0.151624
H54   H     H_    0.558590 0.263182 0.928344 0.148353
H55   H     H_    0.303054 0.198765 0.104256 0.152966
H56   H     H_    0.118607 0.420737 0.509593 0.160132
N1    N     N_R   0.892320 0.603520 0.941090 -0.112624
N2    N     N_R   0.973240 0.529450 0.794410 -0.055440
N3    N     N_R   0.526760 0.029450 0.205590 -0.057703
N4    N     N_R   0.473240 0.029450 0.794410 -0.055750
N5    N     N_R   0.819350 0.473090 0.793940 -0.081418
N6    N     N_R   0.180650 0.473090 0.206060 -0.070121
N7    N     N_R   0.319350 0.973090 0.793940 -0.081355
N8    N     N_R   0.680650 0.973090 0.206060 -0.071634
N9    N     N_R   0.027860 0.473090 0.206590 -0.071334
N10   N     N_R   0.972140 0.473090 0.793410 -0.054568
N11   N     N_R   0.527860 0.973090 0.206590 -0.071041
N12   N     N_R   0.107680 0.603520 0.058910 -0.112828
N13   N     N_R   0.472140 0.973090 0.793410 -0.053374
N14   N     N_R   0.818250 0.529450 0.792940 -0.075343
N15   N     N_R   0.181750 0.529450 0.207060 -0.057285
N16   N     N_R   0.318250 0.029450 0.792940 -0.075876
N17   N     N_R   0.681750 0.029450 0.207060 -0.057951
N18   N     N_R   0.896320 0.399020 0.944720 -0.071366
N19   N     N_R   0.103680 0.399020 0.055280 -0.088061
N20   N     N_R   0.396320 0.899020 0.944720 -0.070617
N21   N     N_R   0.603680 0.899020 0.055280 -0.089482
N22   N     N_R   0.949790 0.603520 0.054810 -0.078512
N23   N     N_R   0.392320 0.103520 0.941090 -0.114864
N24   N     N_R   0.050210 0.603520 0.945190 -0.085536
N25   N     N_R   0.449790 0.103520 0.054810 -0.077612
N26   N     N_R   0.550210 0.103520 0.945190 -0.085856
N27   N     N_R   0.607680 0.103520 0.058910 -0.111518
N28   N     N_R   0.953790 0.399020 0.058440 -0.100344
N29   N     N_R   0.046210 0.399020 0.941560 -0.104527
N30   N     N_R   0.453790 0.899020 0.058440 -0.100383
N31   N     N_R   0.546210 0.899020 0.941560 -0.105715
N32   N     N_R   0.026760 0.529450 0.205590 -0.058904
Ni1   Ni    Ni4+2 0.934100 0.565890 0.869590 0.252770
Ni2   Ni    Ni4+2 0.065900 0.565890 0.130410 0.286962
Ni3   Ni    Ni4+2 0.434100 0.065890 0.869590 0.252414
Ni4   Ni    Ni4+2 0.565900 0.065890 0.130410 0.284461
Ni5   Ni    Ni4+2 0.068420 0.436630 0.132700 0.287822
Ni6   Ni    Ni4+2 0.931580 0.436630 0.867300 0.309719
Ni7   Ni    Ni4+2 0.568420 0.936630 0.132700 0.280721
Ni8   Ni    Ni4+2 0.431580 0.936630 0.867300 0.310547
O1    O     O_2   0.598268 0.350902 0.555368 -0.201626
O2    O     O_2   0.916092 0.863616 0.269951 -0.236490
O3    O     O_2   0.930972 0.934765 0.166838 -0.224992
O4    O     O_3   0.081509 0.883067 0.316443 -0.395272
O5    O     O_2   0.651477 0.291533 0.760363 -0.236303
O6    O     O_2   0.815750 0.266682 0.896012 -0.162645
O7    O     O_3   0.686895 0.198562 0.855834 -0.522504
O8    O     O_2   0.140757 0.225194 0.162587 -0.268020
O9    O     O_2   0.001792 0.265883 0.001664 -0.183520
O10   O     O_3   0.018579 0.161441 0.001616 -0.386842
O11   O     O_2   0.174150 0.786828 0.773383 -0.234935
O12   O     O_2   0.568363 0.397057 0.680109 -0.255506
O13   O     O_2   0.337143 0.768001 0.926267 -0.189000
O14   O     O_3   0.209927 0.696347 0.877677 -0.524237
O15   O     O_2   0.544360 0.659875 0.023994 -0.221061
O16   O     O_2   0.531791 0.756489 0.051819 -0.227246
O17   O     O_3   0.433321 0.717824 0.850130 -0.386050
O18   O     O_2   0.608401 0.378400 0.037037 -0.234114
O19   O     O_2   0.762359 0.354314 0.202493 -0.188022
O20   O     O_3   0.746873 0.446668 0.110863 -0.504638
O21   O     O_2   0.324843 0.264623 0.975082 -0.253979
O22   O     O_2   0.170203 0.268670 0.796421 -0.167908
O23   O     O_3   0.426114 0.357864 0.493545 -0.445682
O24   O     O_3   0.244842 0.357866 0.907950 -0.510442
O25   O     O_2   0.103568 0.877171 0.031415 -0.245733
O26   O     O_2   0.258554 0.858680 0.200873 -0.189440
O27   O     O_3   0.236159 0.949154 0.100434 -0.506102
O28   O     O_2   0.849723 0.769737 0.046481 -0.256024
O29   O     O_2   0.723996 0.771891 0.847597 -0.193780
O30   O     O_3   0.768146 0.860972 0.961245 -0.497447
O31   O     O_2   0.440286 0.490585 0.651124 -0.187946
O32   O     O_2   0.323243 0.545176 0.493396 -0.260469
O33   O     O_3   0.305824 0.440286 0.473418 -0.519807
O34   O     O_2   0.418233 0.358828 0.288190 -0.254103
O35   O     O_2   0.601907 0.504959 0.263380 -0.184694
O36   O     O_2   0.699724 0.563591 0.426994 -0.277068
O37   O     O_3   0.732531 0.459976 0.448411 -0.477255
O38   O     O_2   0.942653 0.981957 0.651370 -0.185720
O39   O     O_2   0.821935 0.036152 0.495509 -0.267592
O40   O     O_3   0.810821 0.931218 0.472753 -0.514298
O41   O     O_2   0.099746 0.015934 0.262223 -0.201313
O42   O     O_2   0.198616 0.070159 0.432376 -0.275146
O43   O     O_3   0.231375 0.966780 0.440669 -0.474692
O44   O     O_2   0.425947 0.425775 0.172729 -0.219881
O45   O     O_3   0.580406 0.378293 0.325775 -0.395993
O46   O     O_2   0.104150 0.849904 0.542965 -0.202934
O47   O     O_2   0.069364 0.889059 0.668782 -0.255689
O48   O     O_3   0.930550 0.852454 0.477124 -0.448972
S1    S     S_3+6 0.532640 0.387516 0.561694 0.069561
S2    S     S_3+6 0.229915 0.290789 0.912530 0.029367
S3    S     S_3+6 0.207663 0.883038 0.087960 0.029922
S4    S     S_3+6 0.755822 0.793205 0.959313 0.013358
S5    S     S_3+6 0.379373 0.493864 0.527267 0.039027
S6    S     S_3+6 0.651945 0.509224 0.386366 0.046857
S7    S     S_3+6 0.881094 0.986130 0.527670 0.039118
S8    S     S_3+6 0.150746 0.016239 0.385536 0.042220
S9    S     S_3+6 0.476201 0.403496 0.287283 0.083216
S10   S     S_3+6 0.036068 0.883441 0.550448 0.068604
S11   S     S_3+6 0.977496 0.908709 0.277684 0.092928
S12   S     S_3+6 0.718522 0.264099 0.868419 0.027364
S13   S     S_3+6 0.073436 0.222074 0.038867 0.064684
S14   S     S_3+6 0.236468 0.762581 0.886061 0.012173
S15   S     S_3+6 0.534012 0.715470 0.977753 0.074919
S16   S     S_3+6 0.712605 0.381354 0.092186 0.035435

loop_
_geom_bond_atom_site_label_1
_geom_bond_atom_site_label_2
_ccdc_geom_bond_type
O2    S11   D    
C28   Cl9   S    
C63   N6    A    
C83   C87   A    
C21   C26   S    
C49   C53   D    
O15   S15   D    
C31   C85   S    
N31   Ni8   S    
C58   H9    S    
C11   C13   S    
C14   C18   S    
C49   H56   S    
C67   C77   A    
C60   N3    A    
O39   S7    D    
N29   Ni6   S    
C80   C84   A    
O34   S9    D    
N27   Ni4   S    
C59   H10   S    
C47   S3    S    
N8    Ni7   S    
H47   O27   S    
C7    C73   A    
H36   O23   S    
O9    S13   D    
C1    C84   A    
C6    C72   A    
C29   C36   S    
O44   S9    D    
C50   C54   D    
C22   H1    S    
C12   C85   A    
C8    C74   A    
C64   H16   S    
O22   S2    D    
C3    C69   A    
C70   N13   A    
C37   S13   S    
C62   H14   S    
C2    C68   A    
C10   C15   S    
C68   H19   S    
C66   C88   A    
N22   Ni2   S    
C35   C86   S    
C14   S5    S    
N20   Ni8   S    
C62   N5    A    
C44   S16   S    
C20   C25   S    
H51   O40   S    
C27   C38   S    
C14   C24   S    
N28   Ni5   S    
C13   S11   S    
C29   C33   D    
C11   S10   S    
N12   Ni2   S    
N4    Ni3   S    
N32   Ni2   S    
C42   Cl3   S    
O26   S3    D    
C48   C78   S    
H41   O10   S    
C71   H22   S    
N26   N27   A    
C3    C55   S    
O28   S4    D    
C15   C22   S    
O6    S12   D    
N6    N15   A    
C30   C37   S    
C10   S9    S    
O1    S1    D    
C23   C86   A    
C24   H12   S    
C4    C57   S    
C5    C62   A    
N4    N13   A    
C79   N21   A    
O41   S8    D    
O33   S5    S    
C45   C75   A    
C9    S1    S    
C9    C10   S    
O12   S1    D    
C23   N23   A    
C66   N9    A    
C65   N8    A    
H43   O17   S    
H37   O45   S    
C3    C60   A    
C42   N30   A    
O29   S4    D    
C41   Cl2   S    
O32   S5    D    
C8    C65   A    
C80   H31   S    
O48   S10   S    
C72   H24   S    
C75   N18   A    
C82   N25   A    
O18   S16   D    
C27   Cl8   S    
C64   N7    A    
C32   C84   S    
C38   S14   S    
C4    C70   A    
C16   S7    S    
C9    C19   S    
O37   S6    S    
N13   Ni8   S    
C76   N19   A    
N16   Ni3   S    
C16   C26   S    
C40   C45   A    
C6    C18   S    
N9    N32   A    
C54   H6    S    
N23   Ni3   S    
C58   N32   A    
C51   C52   S    
C72   N15   A    
N30   Ni7   S    
C28   C32   D    
H48   O30   S    
C34   Cl7   S    
C46   S2    S    
C74   N17   A    
C2    C54   S    
N2    Ni1   S    
N18   N28   A    
H44   O20   S    
C70   H21   S    
C78   C79   A    
N3    Ni4   S    
C81   H32   S    
C77   H29   S    
O25   S3    D    
C28   C39   S    
O27   S3    S    
C25   C26   S    
N12   N24   A    
C79   H30   S    
C27   C31   D    
C4    C61   A    
C11   C21   S    
C17   C21   S    
C83   N26   A    
C55   H7    S    
C43   C78   A    
H42   O14   S    
C80   N22   A    
O19   S16   D    
C15   C19   S    
C9    C14   S    
C69   N11   A    
C41   C56   A    
C12   N12   A    
C26   H34   S    
C36   S12   S    
N19   N29   A    
C6    C63   A    
C11   C16   S    
O47   S10   D    
N14   Ni1   S    
C43   N31   A    
C16   C20   S    
O23   S1    S    
C71   N14   A    
C41   N29   A    
C34   N27   A    
C47   C67   S    
C8    C20   S    
O21   S2    D    
C73   N16   A    
O30   S4    S    
N7    N16   A    
C25   H23   S    
C38   C47   D    
C39   S15   S    
H46   O24   S    
N5    N14   A    
C29   Cl10  S    
C2    C59   A    
O10   S13   S    
N18   Ni6   S    
C77   N20   A    
C56   C76   A    
C61   H13   S    
C42   C67   A    
C76   H28   S    
C22   C24   S    
C12   Cl5   S    
H40   O7    S    
C69   H20   S    
O36   S6    D    
N26   Ni3   S    
O20   S16   S    
O40   S7    S    
O5    S12   D    
H38   O48   S    
C44   C45   S    
N2    N10   A    
O7    S12   S    
O24   S2    S    
C52   H4    S    
C1    Cl1   S    
C61   N4    A    
N21   Ni7   S    
C13   C20   S    
O42   S8    D    
O43   S8    S    
C33   H54   S    
N11   Ni7   S    
C83   H35   S    
C50   H2    S    
N10   Ni6   S    
C81   N24   A    
C35   H55   S    
C17   C25   S    
C58   C88   A    
O38   S7    D    
C40   Cl12  S    
N20   N30   A    
C5    C19   S    
C15   S6    S    
H39   O4    S    
H50   O37   S    
C30   C35   D    
N17   Ni4   S    
C43   Cl4   S    
N21   N31   A    
C23   Cl6   S    
C13   C17   S    
N24   Ni1   S    
H49   O33   S    
N1    N22   A    
C82   H33   S    
C18   C22   S    
C19   C24   S    
C33   C87   S    
C63   H15   S    
C5    C71   A    
C60   H11   S    
C82   C86   A    
C7    C21   S    
O11   S14   D    
O16   S15   D    
O3    S11   D    
O13   S14   D    
C74   H26   S    
H52   O43   S    
N7    Ni8   S    
C10   C18   S    
C17   S8    S    
C73   H25   S    
O14   S14   S    
C30   Cl11  S    
N6    Ni5   S    
C1    N1    A    
C59   N2    A    
N3    N11   A    
N5    Ni6   S    
C53   C88   S    
O31   S5    D    
C34   C87   A    
N8    N17   A    
N1    Ni1   S    
C7    C64   A    
O46   S10   D    
C36   C44   D    
C52   C57   D    
O4    S11   S    
C32   H53   S    
C31   H45   S    
N25   Ni4   S    
C53   H5    S    
C57   H8    S    
O45   S9    S    
N15   Ni2   S    
C81   C85   A    
C49   C50   S    
C66   H18   S    
C46   C56   S    
C51   C55   D    
C65   H17   S    
C48   S4    S    
N23   N25   A    
O8    S13   D    
N9    Ni5   S    
C37   C46   D    
O35   S6    D    
C51   H3    S    
N19   Ni5   S    
O17   S15   S    
C39   C48   D    
C40   N28   A    
C75   H27   S    
C68   N10   A    
