data_mof_unit_3832.cif
_audit_creation_date              2012-12-10T17:07:51-0500
_audit_creation_method            fapswitch 2.2
_symmetry_space_group_name_H-M    P1
_symmetry_Int_Tables_number       1
_space_group_crystal_system       triclinic
_cell_length_a                    10.659516
_cell_length_b                    10.574494
_cell_length_c                    10.07435
_cell_angle_alpha                 88.840083
_cell_angle_beta                  90.85881
_cell_angle_gamma                 91.272837
_cell_volume                      1134.93762721

loop_
_atom_site_label
_atom_site_type_symbol
_atom_type_description
_atom_site_fract_x
_atom_site_fract_y
_atom_site_fract_z
_atom_type_partial_charge
C1    C     C_R   0.480795 0.263942 0.500990 0.805266
C2    C     C_2   0.507497 0.601325 0.073334 -0.196112
C3    C     C_R   0.258332 0.491587 0.499315 0.876145
C4    C     C_R   0.499939 0.738132 0.498415 0.921641
C5    C     C_R   0.742097 0.495593 0.501182 0.869690
C6    C     C_3   0.075074 0.405063 0.618650 -0.558651
C7    C     C_3   0.931060 0.417386 0.633876 -0.185935
C8    C     C_3   0.077962 0.625115 0.511225 -0.426830
C9    C     C_3   0.067421 0.427340 0.370195 0.563389
C10   C     C_3   0.122189 0.487510 0.498926 -0.083644
C11   C     C_2   0.372608 0.117699 0.266802 0.471210
C12   C     C_3   0.879398 0.490742 0.504300 -0.238762
C13   C     C_2   0.614073 0.702120 0.876983 0.597751
C14   C     C_2   0.398352 0.422466 0.894953 0.560976
C15   C     C_2   0.871514 0.284743 0.646962 0.595535
C16   C     C_2   0.908375 0.487057 0.762595 0.540050
C17   C     C_2   0.879248 0.727357 0.575959 0.484429
C18   C     C_3   0.935429 0.629617 0.487987 0.499644
C19   C     C_3   0.924055 0.416067 0.380622 -0.376061
C20   C     C_2   0.408734 0.928057 0.414809 0.395446
C21   C     C_2   0.496234 0.872370 0.492038 0.437648
C22   C     C_2   0.406338 0.065258 0.400223 -0.246106
C23   C     C_2   0.435387 0.134560 0.507645 0.494024
C24   C     C_2   0.536387 0.595394 0.928108 -0.080860
F1    F     F_    0.914579 0.671313 0.357642 -0.566910
F2    F     F_    0.323752 0.857408 0.343996 -0.667061
F3    F     F_    0.588813 0.938227 0.556833 -0.601040
F4    F     F_    0.423840 0.081931 0.631875 -0.584774
F5    F     F_    0.098327 0.500663 0.259024 -0.574335
H1    H     H_    0.124823 0.430810 0.712612 0.232685
H2    H     H_    0.393079 0.064329 0.179102 0.124309
H3    H     H_    0.612111 0.792973 0.925052 0.055050
H4    H     H_    0.334023 0.452293 0.970265 0.060837
H5    H     H_    0.791408 0.256918 0.585634 0.047094
H6    H     H_    0.968777 0.566323 0.789947 0.037614
H7    H     H_    0.906145 0.734561 0.679428 0.047432
H8    H     H_    0.881586 0.452229 0.286092 0.283358
H9    H     H_    0.125956 0.688851 0.437626 0.282415
H10   H     H_    0.502391 0.692982 0.119231 0.192814
H11   H     H_    0.101353 0.305285 0.601552 0.215742
H12   H     H_    0.526078 0.417528 0.106136 0.192787
H13   H     H_    0.105403 0.660215 0.611312 0.111979
H14   H     H_    0.106162 0.331547 0.357468 0.105677
H15   H     H_    0.894976 0.314648 0.387752 0.108275
N1    N     N_2   0.501360 0.501330 0.852150 -0.131156
N2    N     N_2   0.501390 0.501360 0.147810 -0.164409
O1    O     O_R   0.499980 0.319060 0.613040 -0.524762
O2    O     O_2   0.686503 0.688669 0.786579 -0.518914
O3    O     O_2   0.378437 0.320351 0.843874 -0.491189
O4    O     O_2   0.910510 0.208917 0.730062 -0.490281
O5    O     O_2   0.827143 0.452073 0.840393 -0.497033
O6    O     O_2   0.805751 0.803894 0.529630 -0.437750
O7    O     O_R   0.500020 0.319100 0.386900 -0.637058
O8    O     O_R   0.314770 0.499960 0.613070 -0.645158
O9    O     O_R   0.314820 0.500000 0.386930 -0.526504
O10   O     O_R   0.499980 0.680900 0.613100 -0.591812
O11   O     O_R   0.500020 0.680940 0.386960 -0.602266
O12   O     O_R   0.685180 0.500000 0.613070 -0.571389
O13   O     O_R   0.685230 0.500040 0.386930 -0.577851
O14   O     O_2   0.314488 0.215491 0.253868 -0.557736
Zn1   Zn    Zn3+2 0.499970 0.499970 0.650990 1.079125
Zn2   Zn    Zn3+2 0.500030 0.500030 0.349010 1.062311

loop_
_geom_bond_atom_site_label_1
_geom_bond_atom_site_label_2
_ccdc_geom_bond_type
C4    O11   A    
C6    C10   S    
C13   O2    D    
H12   N2    S    
O1    Zn1   S    
C6    C7    S    
O8    Zn1   S    
C19   H8    S    
C9    C10   S    
C13   H3    S    
C16   O5    D    
C9    F5    S    
C20   C21   D    
O12   Zn1   S    
C7    C15   S    
C17   C18   S    
C21   F3    S    
C11   H2    S    
O11   Zn2   S    
C3    C10   S    
C23   F4    S    
C4    O10   A    
C4    C21   S    
C18   F1    S    
C8    H9    S    
C5    O12   A    
N2    Zn2   S    
C24   N1    D    
C17   O6    D    
N1    Zn1   S    
C7    C16   S    
C17   H7    S    
C8    H13   S    
C1    C23   S    
C14   N1    S    
C2    N2    D    
C16   H6    S    
C2    C24   S    
C7    C12   S    
C14   H4    S    
C6    H11   S    
C9    H14   S    
C14   O3    D    
C5    O13   A    
C11   O14   D    
O9    Zn2   S    
C19   H15   S    
C12   C19   S    
C5    C12   S    
C8    C10   S    
O7    Zn2   S    
C15   O4    D    
C12   C18   S    
C1    O7    A    
C22   C23   D    
C1    O1    A    
O13   Zn2   S    
C11   C22   S    
C15   H5    S    
C6    H1    S    
O10   Zn1   S    
C3    O9    A    
C2    H10   S    
C9    C19   S    
C8    C18   S    
C3    O8    A    
C13   C24   S    
C20   C22   S    
C20   F2    S    
