data_mof_unit_3036.cif
_audit_creation_date              2012-10-26T19:40:10-0400
_audit_creation_method            fapswitch 2.2
_symmetry_space_group_name_H-M    P1
_symmetry_Int_Tables_number       1
_space_group_crystal_system       triclinic
_cell_length_a                    14.99634
_cell_length_b                    8.740771
_cell_length_c                    7.466389
_cell_angle_alpha                 102.564636
_cell_angle_beta                  93.497291
_cell_angle_gamma                 91.878618
_cell_volume                      952.407782702

loop_
_atom_site_label
_atom_site_type_symbol
_atom_type_description
_atom_site_fract_x
_atom_site_fract_y
_atom_site_fract_z
_atom_type_partial_charge
C1    C     C_R   0.495480 0.200684 0.454938 0.512975
C2    C     C_R   0.183157 0.376772 0.414050 -0.154799
C3    C     C_R   0.766738 0.493284 0.489292 -0.002295
C4    C     C_R   0.233181 0.509347 0.509890 0.010974
C5    C     C_R   0.808117 0.361989 0.389622 0.008244
C6    C     C_R   0.191182 0.642850 0.604208 0.043951
C7    C     C_R   0.902828 0.357288 0.408591 0.002778
C8    C     C_R   0.096613 0.646809 0.581909 0.010583
C9    C     C_R   0.952826 0.498338 0.494241 0.035263
C10   C     C_R   0.046775 0.505423 0.497460 0.027247
C11   C     C_R   0.908958 0.632491 0.578771 0.017816
C12   C     C_R   0.504913 0.799293 0.544880 0.570376
C13   C     C_R   0.090768 0.370977 0.415178 -0.014233
C14   C     C_R   0.949789 0.218539 0.347350 0.039670
C15   C     C_R   0.049315 0.785515 0.641225 0.023252
C16   C     C_2   0.752073 0.241980 0.254063 0.229930
C17   C     C_2   0.243613 0.767468 0.741498 0.296370
C18   C     C_2   0.906781 0.058813 0.317633 0.263726
C19   C     C_2   0.089686 0.946271 0.666712 0.196833
C20   C     C_2   0.403840 0.962834 0.303017 0.223382
C21   C     C_2   0.597533 0.036786 0.694003 0.204153
C22   C     C_3   0.368669 0.267709 0.955845 0.034532
C23   C     C_R   0.042645 0.229858 0.341086 -0.087813
C24   C     C_3   0.284273 0.217618 0.831164 -0.340205
C25   C     C_3   0.628425 0.736595 0.047130 0.050240
C26   C     C_3   0.704970 0.796061 0.190568 -0.363284
C27   C     C_R   0.956940 0.774084 0.650702 -0.104615
C28   C     C_2   0.479146 0.035819 0.438185 -0.029632
C29   C     C_2   0.521414 0.964060 0.561002 -0.026575
C30   C     C_R   0.329395 0.503905 0.503920 0.586699
C31   C     C_R   0.670584 0.497159 0.496157 0.516594
C32   C     C_R   0.816811 0.625827 0.584316 -0.131587
Cu1   Cu    Cu3+1 0.510010 0.517380 0.684380 1.114849
Cu2   Cu    Cu3+1 0.489990 0.482620 0.315620 1.087600
H1    H     H_    0.783062 0.727446 0.654683 0.110769
H2    H     H_    0.606552 0.003892 0.825705 0.114308
H3    H     H_    0.353766 0.256117 0.095741 0.148505
H4    H     H_    0.422296 0.187178 0.905264 0.134999
H5    H     H_    0.298882 0.208200 0.685193 0.181501
H6    H     H_    0.258733 0.102204 0.849522 0.149740
H7    H     H_    0.231964 0.303992 0.867439 0.156388
H8    H     H_    0.570891 0.812885 0.081585 0.116092
H9    H     H_    0.650820 0.746907 0.911344 0.150283
H10   H     H_    0.763087 0.720817 0.163481 0.194208
H11   H     H_    0.725267 0.917233 0.183962 0.128632
H12   H     H_    0.217065 0.274477 0.345936 0.112829
H13   H     H_    0.683572 0.796203 0.330368 0.143206
H14   H     H_    0.078544 0.125394 0.289245 0.187681
H15   H     H_    0.921323 0.879071 0.702304 0.126385
H16   H     H_    0.686829 0.203432 0.287378 0.128495
H17   H     H_    0.214305 0.822052 0.867744 0.092875
H18   H     H_    0.847237 0.040047 0.386800 0.103047
H19   H     H_    0.065125 0.041808 0.767378 0.104888
H20   H     H_    0.395772 0.995882 0.171256 0.093004
N1    N     N_2   0.474890 0.456420 0.038520 0.092978
N2    N     N_2   0.525110 0.543580 0.961480 0.096382
O1    O     O_R   0.506510 0.286130 0.619770 -0.465976
O2    O     O_2   0.318118 0.813458 0.713891 -0.471163
O3    O     O_2   0.938766 0.946021 0.220263 -0.506525
O4    O     O_2   0.146097 0.975314 0.566112 -0.495367
O5    O     O_2   0.347515 0.873346 0.341427 -0.428258
O6    O     O_2   0.653526 0.125759 0.653446 -0.498374
O7    O     O_3   0.392757 0.424019 0.953938 -0.447171
O8    O     O_3   0.606677 0.579106 0.047751 -0.434296
O9    O     O_R   0.493490 0.713870 0.380230 -0.472193
O10   O     O_R   0.489600 0.256770 0.308360 -0.578411
O11   O     O_R   0.510400 0.743230 0.691640 -0.540083
O12   O     O_R   0.378710 0.514640 0.655720 -0.445729
O13   O     O_R   0.621290 0.485360 0.344280 -0.474489
O14   O     O_R   0.361800 0.485290 0.344300 -0.489667
O15   O     O_R   0.638200 0.514710 0.655700 -0.485166
O16   O     O_2   0.776765 0.190787 0.100482 -0.487324

loop_
_geom_bond_atom_site_label_1
_geom_bond_atom_site_label_2
_ccdc_geom_bond_type
C25   H8    S    
C14   C23   A    
C1    C28   S    
C2    C4    A    
N1    N2    D    
N2    O8    S    
C1    O1    A    
C19   O4    D    
C9    C10   A    
Cu2   O14   S    
C15   C27   A    
C16   O16   D    
C11   C27   A    
C17   O2    D    
Cu2   O10   S    
Cu1   N2    S    
C31   O15   A    
C1    O10   A    
C22   O7    S    
C26   H10   S    
Cu2   N1    S    
C21   H2    S    
C30   O12   A    
C2    H12   S    
C3    C31   S    
C24   H7    S    
C9    C11   A    
Cu2   O13   S    
C19   H19   S    
C21   O6    D    
C26   H13   S    
Cu1   O1    S    
Cu2   O9    S    
C8    C10   A    
C25   H9    S    
C24   H6    S    
C16   H16   S    
C11   C32   A    
Cu1   Cu2   S    
C8    C15   A    
C5    C7    A    
C3    C32   A    
C12   C29   S    
C12   O11   A    
C22   C24   S    
C4    C6    A    
Cu1   O15   S    
C18   H18   S    
C22   H4    S    
C32   H1    S    
C18   O3    D    
C31   O13   A    
C24   H5    S    
C13   C23   A    
C17   H17   S    
C20   H20   S    
C12   O9    A    
C20   O5    D    
C7    C9    A    
C6    C17   S    
C14   C18   S    
C28   C29   D    
C5    C16   S    
C6    C8    A    
C23   H14   S    
C20   C28   S    
C26   H11   S    
C30   O14   A    
C25   C26   S    
C15   C19   S    
C22   H3    S    
C21   C29   S    
C10   C13   A    
C7    C14   A    
C4    C30   S    
Cu1   O11   S    
C27   H15   S    
Cu1   O12   S    
C2    C13   A    
C3    C5    A    
C25   O8    S    
N1    O7    S    
