data_mof_unit_4919.cif
_audit_creation_date              2013-03-05T16:03:17-0500
_audit_creation_method            fapswitch 2.2
_symmetry_space_group_name_H-M    P1
_symmetry_Int_Tables_number       1
_space_group_crystal_system       triclinic
_cell_length_a                    27.799473
_cell_length_b                    11.729345
_cell_length_c                    10.452291
_cell_angle_alpha                 89.99453
_cell_angle_beta                  90.008493
_cell_angle_gamma                 90.008342
_cell_volume                      3408.17435707

loop_
_atom_site_label
_atom_site_type_symbol
_atom_site_description
_atom_site_fract_x
_atom_site_fract_y
_atom_site_fract_z
_atom_type_partial_charge
O1    O     O_R   0.500000 0.337200 0.605810 -0.571116
O2    O     O_R   0.500000 0.662800 0.394190 -0.571287
O3    O     O_R   0.500000 0.662800 0.605810 -0.571107
O4    O     O_R   0.500000 0.337200 0.394190 -0.571314
C1    C     C_R   0.500002 0.283271 0.500005 0.808054
C2    C     C_R   0.499994 0.716729 0.499995 0.808438
O5    O     O_R   0.430260 0.500000 0.605800 -0.564945
O6    O     O_R   0.569740 0.500000 0.394200 -0.564918
O7    O     O_R   0.569740 0.500000 0.605800 -0.564974
O8    O     O_R   0.430260 0.500000 0.394200 -0.564937
C3    C     C_R   0.407331 0.500036 0.499997 0.950412
C4    C     C_R   0.592669 0.499995 0.500012 0.950492
Cu1   Cu    Cu3+1 0.500000 0.500000 0.625300 1.003930
Cu2   Cu    Cu3+1 0.500000 0.500000 0.374700 1.003846
C5    C     C_R   0.177487 0.402431 0.530338 0.612036
C6    C     C_R   0.822495 0.598557 0.530003 0.611987
C7    C     C_R   0.177420 0.599326 0.472989 0.612027
C8    C     C_R   0.822600 0.401804 0.472085 0.612092
O9    O     O_2   0.201947 0.308013 0.565252 -0.537559
O10   O     O_2   0.798018 0.692875 0.565131 -0.537398
O11   O     O_2   0.201801 0.693816 0.437897 -0.537254
O12   O     O_2   0.798235 0.307389 0.436657 -0.537311
N1    N     N_R   0.201828 0.500886 0.501466 -0.407353
N2    N     N_R   0.798172 0.500133 0.500887 -0.407400
C9    C     C_R   0.279180 0.576650 0.580870 0.324657
C10   C     C_R   0.720936 0.423929 0.580473 0.324751
C11   C     C_R   0.278861 0.424881 0.420349 0.325027
C12   C     C_R   0.721024 0.576058 0.420362 0.324818
C13   C     C_R   0.329723 0.584536 0.568633 0.235154
C14   C     C_R   0.670389 0.415849 0.568477 0.235322
C15   C     C_R   0.329424 0.416518 0.431770 0.234717
C16   C     C_R   0.670459 0.584066 0.431866 0.235242
C17   C     C_R   0.253754 0.500831 0.500877 0.095422
C18   C     C_R   0.746247 0.500033 0.500564 0.095132
C19   C     C_R   0.101567 0.500772 0.501945 -0.052872
C20   C     C_R   0.898433 0.500335 0.501492 -0.052894
C21   C     C_R   0.127083 0.399164 0.524180 -0.052201
C22   C     C_R   0.872901 0.601878 0.523931 -0.052332
C23   C     C_R   0.127020 0.602467 0.479609 -0.052409
C24   C     C_R   0.872997 0.398685 0.478774 -0.052359
C25   C     C_R   0.101796 0.297027 0.540624 -0.149114
C26   C     C_R   0.898176 0.703987 0.540729 -0.149216
C27   C     C_R   0.101672 0.704527 0.463350 -0.149155
C28   C     C_R   0.898357 0.296678 0.462283 -0.149207
C29   C     C_R   0.354635 0.500379 0.500067 -0.323365
C30   C     C_R   0.645364 0.499953 0.500077 -0.323453
H1    H     H_    0.120561 0.217759 0.559025 0.182694
H2    H     H_    0.879399 0.783205 0.559280 0.182636
H3    H     H_    0.120387 0.783869 0.444929 0.182633
H4    H     H_    0.879655 0.217377 0.443556 0.182624
C31   C     C_R   0.974672 0.395654 0.494834 0.039119
C32   C     C_R   0.025333 0.605487 0.495265 0.039102
C33   C     C_R   0.974596 0.605352 0.508851 0.039098
C34   C     C_R   0.025400 0.395755 0.508680 0.039104
C35   C     C_R   0.949393 0.500446 0.501740 0.077944
C36   C     C_R   0.050607 0.500674 0.501986 0.077931
C37   C     C_R   0.948269 0.294604 0.472784 -0.206983
C38   C     C_R   0.051753 0.706589 0.473655 -0.206938
C39   C     C_R   0.948101 0.706278 0.530713 -0.206990
C40   C     C_R   0.051877 0.294774 0.530400 -0.207030
H5    H     H_    0.965551 0.213256 0.458274 0.137914
H6    H     H_    0.034483 0.787980 0.459325 0.137889
H7    H     H_    0.965314 0.787698 0.545392 0.137906
H8    H     H_    0.034652 0.213326 0.544793 0.137912
C41   C     C_1   0.500000 0.161900 0.500013 -0.160348
C42   C     C_1   0.499994 0.838100 0.499989 -0.160365
C43   C     C_1   0.499997 0.059710 0.500009 -0.014366
C44   C     C_1   0.499995 0.940290 0.499996 -0.014485
N3    N     N_1   0.500000 0.500000 0.186410 -0.138098
N4    N     N_1   0.500000 0.500000 0.813590 -0.138077
C45   C     C_1   0.500000 0.500000 0.072017 0.092885
C46   C     C_1   0.500000 0.500000 0.927983 0.092850
O13   O     O_3   0.354916 0.327443 0.376944 -0.604507
C47   C     C_3   0.345781 0.224520 0.444128 0.058089
H9    H     H_    0.364190 0.155113 0.391074 0.168851
H10   H     H_    0.306831 0.202677 0.444581 0.190787
C48   C     C_3   0.365486 0.227030 0.581895 -0.360425
H11   H     H_    0.403088 0.258529 0.581448 0.224666
H12   H     H_    0.343453 0.285829 0.641197 0.212682
C49   C     C_3   0.364338 0.109264 0.643602 -0.903919
H13   H     H_    0.327691 0.071881 0.637368 0.260550
H14   H     H_    0.374593 0.116358 0.745963 0.261938
H15   H     H_    0.390489 0.052107 0.595681 0.252266
O14   O     O_3   0.644841 0.673042 0.377220 -0.604531
C50   C     C_3   0.653933 0.775993 0.444374 0.058478
H16   H     H_    0.635370 0.845287 0.391493 0.168816
H17   H     H_    0.692854 0.798117 0.444511 0.191108
C51   C     C_3   0.634405 0.773293 0.582299 -0.360857
H18   H     H_    0.596840 0.741541 0.582151 0.224827
H19   H     H_    0.656582 0.714617 0.641403 0.212776
C52   C     C_3   0.635493 0.891047 0.644024 -0.903930
H20   H     H_    0.672098 0.928630 0.637580 0.260460
H21   H     H_    0.625345 0.883859 0.746446 0.261945
H22   H     H_    0.609242 0.948087 0.596272 0.252352
O15   O     O_3   0.355504 0.673430 0.622919 -0.604601
C53   C     C_3   0.346350 0.776397 0.555850 0.058388
H23   H     H_    0.365072 0.845635 0.608432 0.168853
H24   H     H_    0.307443 0.798640 0.556277 0.191012
C54   C     C_3   0.365595 0.773612 0.417639 -0.360925
H25   H     H_    0.403140 0.741750 0.417250 0.224960
H26   H     H_    0.343260 0.714983 0.358889 0.212761
C55   C     C_3   0.364447 0.891349 0.355852 -0.904080
H27   H     H_    0.327884 0.929052 0.362867 0.260382
H28   H     H_    0.374352 0.884088 0.253269 0.261863
H29   H     H_    0.390850 0.948330 0.403122 0.252494
O16   O     O_3   0.644716 0.326841 0.622888 -0.604535
C56   C     C_3   0.653864 0.223934 0.555730 0.058426
H30   H     H_    0.635279 0.154590 0.608478 0.168859
H31   H     H_    0.692790 0.201870 0.555779 0.191046
C57   C     C_3   0.634418 0.226670 0.417709 -0.360903
H32   H     H_    0.596848 0.258360 0.417687 0.224932
H33   H     H_    0.656619 0.285414 0.358754 0.212745
C58   C     C_3   0.635565 0.108949 0.355914 -0.904019
H34   H     H_    0.672174 0.071430 0.362512 0.260434
H35   H     H_    0.625475 0.116172 0.253447 0.261929
H36   H     H_    0.609298 0.051836 0.403500 0.252384
O17   O     O_3   0.252491 0.354121 0.339972 -0.581881
C59   C     C_3   0.270080 0.357349 0.212949 0.108321
H37   H     H_    0.294959 0.284362 0.198189 0.185045
H38   H     H_    0.289369 0.438244 0.189671 0.125415
C60   C     C_3   0.227707 0.345340 0.120679 -0.360944
H39   H     H_    0.205738 0.269917 0.147848 0.240000
H40   H     H_    0.204629 0.422525 0.127553 0.225076
C61   C     C_3   0.244739 0.330891 0.982763 -0.899326
H41   H     H_    0.268472 0.402629 0.954564 0.249076
H42   H     H_    0.213195 0.329227 0.917582 0.271861
H43   H     H_    0.264832 0.249566 0.972127 0.260665
O18   O     O_3   0.747252 0.647194 0.340112 -0.581574
C62   C     C_3   0.729903 0.642926 0.212893 0.106559
H44   H     H_    0.704056 0.713949 0.197900 0.185802
H45   H     H_    0.711805 0.560572 0.189342 0.124687
C63   C     C_3   0.772227 0.658470 0.121169 -0.359032
H46   H     H_    0.792924 0.735857 0.148440 0.239507
H47   H     H_    0.796495 0.583414 0.128562 0.225263
C64   C     C_3   0.755239 0.671129 0.982967 -0.900191
H48   H     H_    0.733167 0.596661 0.954216 0.249599
H49   H     H_    0.786863 0.676752 0.918380 0.272210
H50   H     H_    0.733450 0.749914 0.972098 0.260285
O19   O     O_3   0.253161 0.647645 0.661735 -0.581451
C65   C     C_3   0.270856 0.643201 0.788612 0.106609
H51   H     H_    0.296913 0.713893 0.803082 0.186063
H52   H     H_    0.288808 0.560597 0.811812 0.124797
C66   C     C_3   0.228842 0.659331 0.881200 -0.358056
H53   H     H_    0.208284 0.737044 0.854383 0.239363
H54   H     H_    0.204343 0.584644 0.874286 0.225240
C67   C     C_3   0.246274 0.671667 0.019046 -0.901725
H55   H     H_    0.268232 0.596860 0.047303 0.249950
H56   H     H_    0.214859 0.677724 0.084303 0.272158
H57   H     H_    0.268310 0.750130 0.029492 0.260274
O20   O     O_3   0.747071 0.352803 0.660948 -0.581492
C68   C     C_3   0.729574 0.357049 0.788009 0.106449
H58   H     H_    0.703646 0.286131 0.802708 0.186010
H59   H     H_    0.711528 0.439477 0.811461 0.124615
C69   C     C_3   0.771774 0.341238 0.880105 -0.359019
H60   H     H_    0.792438 0.263792 0.852930 0.239567
H61   H     H_    0.796117 0.416198 0.873032 0.225256
C70   C     C_3   0.754607 0.328509 0.018129 -0.900551
H62   H     H_    0.732522 0.402983 0.046725 0.249427
H63   H     H_    0.786147 0.322801 0.083021 0.272339
H64   H     H_    0.732775 0.249744 0.028714 0.260259

loop_
_geom_bond_atom_site_label_1
_geom_bond_atom_site_label_2
_geom_bond_distance
_ccdc_geom_bond_type
C38   H6    1.079081 S    
C66   C67   1.526931 S    
C42   C44   1.198624 T    
C70   H62   1.108876 S    
C64   H50   1.110811 S    
O13   C47   1.419433 S    
C19   C23   1.406325 A    
O15   C53   1.419405 S    
C65   C66   1.528682 S    
O3    C2    1.274062 A    
O18   C62   1.415316 S    
C59   H38   1.116655 S    
C33   C39   1.412952 A    
C64   H48   1.108861 S    
C34   C40   1.412934 A    
C48   H11   1.108655 S    
C11   C17   1.410560 A    
C5    O9    1.349854 S    
C7    N1    1.371976 A    
C2    C42   1.423600 S    
C47   H10   1.112678 S    
O1    C1    1.274079 A    
C9    O19   1.389789 S    
C65   H52   1.116546 S    
C58   H34   1.110967 S    
C50   C51   1.540857 S    
O16   C56   1.419396 S    
C66   H53   1.111809 S    
C53   C54   1.540929 S    
C55   H29   1.108756 S    
C66   H54   1.111903 S    
C7    C23   1.403278 A    
C68   C69   1.528714 S    
N3    C45   1.195672 T    
O7    Cu1   1.949447 S    
C59   H37   1.111432 S    
C5    C21   1.403183 A    
C20   C24   1.406310 A    
C8    C24   1.403231 A    
C27   C38   1.392106 A    
C57   H32   1.108664 S    
C10   C18   1.410447 A    
C63   H46   1.111784 S    
C41   C43   1.198626 T    
C47   C48   1.540859 S    
C53   H24   1.112661 S    
C56   H30   1.110113 S    
C31   C37   1.412954 A    
C69   H61   1.111888 S    
O3    Cu1   1.920354 S    
C6    O10   1.349848 S    
C62   C63   1.528720 S    
C33   C35   1.417824 A    
C68   H58   1.111266 S    
C12   C18   1.410466 A    
C4    C30   1.464885 S    
C6    N2    1.371985 A    
Cu1   Cu2   2.619344 S    
C14   O16   1.386567 S    
O4    Cu2   1.920354 S    
C56   H31   1.112650 S    
O2    C2    1.274080 A    
C49   H15   1.108690 S    
C12   C16   1.413964 A    
C67   H56   1.110491 S    
C11   O17   1.389901 S    
C9    C13   1.413923 A    
C16   O14   1.386584 S    
C34   C36   1.417806 A    
C60   H39   1.111819 S    
C47   H9    1.110161 S    
C67   H55   1.108963 S    
C50   H17   1.112633 S    
C11   C15   1.414086 A    
C43   C44   1.400717 S    
C10   O20   1.389693 S    
O14   C50   1.419420 S    
C69   C70   1.526918 S    
C49   H14   1.110329 S    
O8    Cu2   1.949450 S    
C52   H20   1.110969 S    
C13   O15   1.386555 S    
C27   H3    1.083356 S    
C23   C27   1.399526 A    
N1    C17   1.443524 S    
C50   H16   1.110120 S    
N2    C18   1.443511 S    
C13   C29   1.402882 A    
C59   C60   1.528765 S    
O5    C3    1.276353 A    
C52   H21   1.110323 S    
C67   H57   1.110857 S    
C54   H25   1.108692 S    
C51   C52   1.524786 S    
O5    Cu1   1.949389 S    
C28   C37   1.392076 A    
O6    C4    1.276438 A    
C53   H23   1.110108 S    
C25   H1    1.083355 S    
C48   H12   1.111441 S    
C26   H2    1.083354 S    
C65   H51   1.111270 S    
C55   H28   1.110332 S    
C57   C58   1.524792 S    
C69   H60   1.111789 S    
C32   C38   1.412966 A    
C61   H43   1.111060 S    
C1    C41   1.423603 S    
C54   H26   1.111449 S    
C51   H19   1.111439 S    
C10   C14   1.413899 A    
C70   H64   1.110821 S    
C15   C29   1.402886 A    
C56   C57   1.540855 S    
C8    N2    1.371966 A    
C3    C29   1.464933 S    
O1    Cu1   1.920392 S    
C32   C33   1.417631 A    
C61   H42   1.110541 S    
C62   H44   1.111276 S    
C48   C49   1.524758 S    
C28   H4    1.083354 S    
C64   H49   1.110469 S    
O6    Cu2   1.949387 S    
C19   C21   1.406307 A    
C19   C36   1.416650 A    
C8    O12   1.349847 S    
C16   C30   1.402917 A    
C14   C30   1.402916 A    
C25   C40   1.392059 A    
C49   H13   1.110967 S    
C26   C39   1.392102 A    
O19   C65   1.415336 S    
C37   H5    1.079084 S    
C39   H7    1.079084 S    
C40   H8    1.079092 S    
C31   C34   1.417580 A    
C58   H36   1.108729 S    
C20   C22   1.406301 A    
C45   C46   1.505478 S    
C20   C35   1.416658 A    
O17   C59   1.415424 S    
C52   H22   1.108724 S    
C63   C64   1.526927 S    
C63   H47   1.111894 S    
O4    C1    1.274066 A    
C5    N1    1.371976 A    
Cu2   N3    1.968062 S    
C31   C35   1.417806 A    
C68   H59   1.116569 S    
C21   C25   1.399517 A    
C55   H27   1.110969 S    
O2    Cu2   1.920393 S    
O7    C4    1.276383 A    
C57   H33   1.111437 S    
C60   H40   1.112020 S    
C15   O13   1.386595 S    
O8    C3    1.276463 A    
C22   C26   1.399524 A    
C12   O18   1.389692 S    
C24   C28   1.399503 A    
C54   C55   1.524813 S    
C51   H18   1.108651 S    
C70   H63   1.110465 S    
Cu1   N4    1.968063 S    
C6    C22   1.403244 A    
C60   C61   1.526822 S    
O20   C68   1.415294 S    
N4    C46   1.195672 T    
C58   H35   1.110327 S    
C32   C36   1.417815 A    
C9    C17   1.410430 A    
C61   H41   1.109068 S    
C62   H45   1.116539 S    
C7    O11   1.349832 S    
