data_mof_unit_1739.cif
_audit_creation_date              2012-12-10T18:23:49-0500
_audit_creation_method            fapswitch 2.2
_symmetry_space_group_name_H-M    P1
_symmetry_Int_Tables_number       1
_space_group_crystal_system       triclinic
_cell_length_a                    22.467705
_cell_length_b                    22.427627
_cell_length_c                    14.650322
_cell_angle_alpha                 89.512073
_cell_angle_beta                  90.233321
_cell_angle_gamma                 90.013499
_cell_volume                      7381.92876692

loop_
_atom_site_label
_atom_site_type_symbol
_atom_type_description
_atom_site_fract_x
_atom_site_fract_y
_atom_site_fract_z
_atom_type_partial_charge
C1    C     C_R   0.419582 0.919999 0.500049 0.822986
C2    C     C_R   0.580300 0.080120 0.500015 0.813140
C3    C     C_R   0.580416 0.919990 0.500496 0.821418
C4    C     C_R   0.419875 0.080330 0.499472 0.814792
C5    C     C_R   0.919582 0.419999 0.500049 0.822973
C6    C     C_R   0.080299 0.580122 0.500015 0.813163
C7    C     C_R   0.080414 0.419988 0.500496 0.821439
C8    C     C_R   0.919873 0.580327 0.499472 0.814773
C9    C     C_1   0.338750 0.163980 0.495003 0.036783
C10   C     C_1   0.664947 0.839851 0.502247 0.042279
C11   C     C_1   0.662549 0.162553 0.502579 0.033645
C12   C     C_1   0.335725 0.839167 0.500522 0.037693
C13   C     C_1   0.838732 0.663963 0.495001 0.036875
C14   C     C_1   0.164940 0.339844 0.502251 0.042242
C15   C     C_1   0.162531 0.662571 0.502594 0.033477
C16   C     C_1   0.835729 0.339162 0.500518 0.037710
C17   C     C_1   0.501323 0.999993 0.194391 0.258476
C18   C     C_1   0.499490 0.001091 0.805579 0.191435
C19   C     C_1   0.001321 0.499991 0.194391 0.258450
C20   C     C_1   0.999488 0.501092 0.805579 0.191456
C21   C     C_3   0.516917 0.055999 0.970797 0.437458
C22   C     C_3   0.486054 0.947607 0.029658 0.434273
C23   C     C_3   0.463322 0.041014 0.032334 0.463238
C24   C     C_3   0.539328 0.962362 0.968100 0.429581
C25   C     C_3   0.016915 0.555998 0.970801 0.437431
C26   C     C_3   0.986049 0.447605 0.029653 0.434220
C27   C     C_3   0.963319 0.541014 0.032335 0.463238
C28   C     C_3   0.039324 0.462361 0.968097 0.429608
C29   C     C_3   0.708353 0.734296 0.548156 0.416693
C30   C     C_3   0.298299 0.271540 0.445123 0.394711
C31   C     C_3   0.287768 0.739707 0.439245 0.398527
C32   C     C_3   0.708575 0.262857 0.568392 0.387520
C33   C     C_3   0.208362 0.234290 0.548152 0.416697
C34   C     C_3   0.798291 0.771517 0.445111 0.394733
C35   C     C_3   0.787780 0.239707 0.439211 0.398568
C36   C     C_3   0.208551 0.762894 0.568400 0.387523
C37   C     C_3   0.228844 0.202672 0.460186 -0.385549
C38   C     C_3   0.777260 0.804202 0.532370 -0.501086
C39   C     C_3   0.774993 0.197823 0.521327 -0.376645
C40   C     C_3   0.221826 0.805748 0.487029 -0.479592
C41   C     C_3   0.728821 0.702666 0.460192 -0.385589
C42   C     C_3   0.277252 0.304213 0.532385 -0.501036
C43   C     C_3   0.274965 0.697840 0.521375 -0.376602
C44   C     C_3   0.721832 0.305728 0.487036 -0.479739
C45   C     C_1   0.375749 0.125636 0.497577 -0.173783
C46   C     C_1   0.626189 0.876404 0.501893 -0.179625
C47   C     C_1   0.625030 0.124763 0.500651 -0.185481
C48   C     C_1   0.374091 0.876129 0.500048 -0.181183
C49   C     C_1   0.875738 0.625625 0.497576 -0.173771
C50   C     C_1   0.126183 0.376399 0.501895 -0.179637
C51   C     C_1   0.125020 0.624772 0.500655 -0.185498
C52   C     C_1   0.874093 0.376127 0.500048 -0.181178
C53   C     C_3   0.272762 0.242284 0.580451 0.404409
C54   C     C_3   0.733470 0.764568 0.413090 0.465585
C55   C     C_3   0.721155 0.250723 0.423443 0.399561
C56   C     C_3   0.275506 0.753085 0.584044 0.463902
C57   C     C_3   0.772757 0.742277 0.580445 0.404395
C58   C     C_3   0.233480 0.264577 0.413094 0.465590
C59   C     C_3   0.221146 0.750732 0.423457 0.399592
C60   C     C_3   0.775531 0.253056 0.584019 0.463877
C61   C     C_3   0.293973 0.210610 0.493348 -0.066977
C62   C     C_3   0.711808 0.795381 0.500141 -0.071667
C63   C     C_3   0.707624 0.208801 0.504805 -0.063824
C64   C     C_3   0.289432 0.794102 0.502336 -0.071411
C65   C     C_3   0.793954 0.710592 0.493345 -0.066931
C66   C     C_3   0.211805 0.295379 0.500146 -0.071657
C67   C     C_3   0.207598 0.708825 0.504834 -0.063906
C68   C     C_3   0.789442 0.294091 0.502325 -0.071380
C69   C     C_3   0.557366 0.015317 0.030645 -0.433546
C70   C     C_3   0.444930 0.988120 0.970277 -0.492994
C71   C     C_3   0.057363 0.515314 0.030646 -0.433486
C72   C     C_3   0.944926 0.488121 0.970275 -0.492988
C73   C     C_3   0.502915 0.000349 0.092046 -0.126417
C74   C     C_3   0.499335 0.003276 0.907881 -0.186020
C75   C     C_3   0.002911 0.500345 0.092045 -0.126430
C76   C     C_3   0.999332 0.503279 0.907882 -0.186004
Cu1   Cu    Cu3+1 0.500000 1.000000 0.590220 0.973967
Cu2   Cu    Cu3+1 0.500000 0.000000 0.409780 0.995975
Cu3   Cu    Cu3+1 0.000000 0.500000 0.590220 0.973970
Cu4   Cu    Cu3+1 0.000000 0.500000 0.409780 0.995976
H1    H     H_    0.399108 0.978150 0.946364 0.161171
H2    H     H_    0.603042 0.026088 0.054445 0.165017
H3    H     H_    0.899104 0.478156 0.946357 0.161166
H4    H     H_    0.103036 0.526084 0.054452 0.164987
H5    H     H_    0.209797 0.161761 0.429602 0.170364
H6    H     H_    0.795550 0.846114 0.560755 0.165054
H7    H     H_    0.796062 0.154107 0.536603 0.167843
H8    H     H_    0.201105 0.849821 0.473244 0.164345
H9    H     H_    0.709764 0.661757 0.429617 0.170359
H10   H     H_    0.295523 0.346130 0.560785 0.165059
H11   H     H_    0.296026 0.654125 0.536678 0.167846
H12   H     H_    0.701102 0.349800 0.473282 0.164326
N1    N     N_1   0.499980 1.000000 0.274190 -0.158468
N2    N     N_1   0.500020 1.000000 0.725810 -0.159669
N3    N     N_1   0.999980 0.500000 0.274190 -0.158466
N4    N     N_1   0.000020 0.500000 0.725810 -0.159668
O1    O     O_R   0.439540 0.939530 0.576170 -0.573249
O2    O     O_R   0.560460 0.060470 0.423830 -0.563508
O3    O     O_R   0.560460 0.939530 0.423830 -0.576276
O4    O     O_R   0.439540 0.060470 0.576170 -0.574874
O5    O     O_R   0.939540 0.439530 0.576170 -0.573250
O6    O     O_R   0.060460 0.560470 0.423830 -0.563497
O7    O     O_R   0.060460 0.439530 0.423830 -0.576276
O8    O     O_R   0.939540 0.560470 0.576170 -0.574882
O9    O     O_R   0.439530 0.939530 0.423800 -0.562650
O10   O     O_R   0.560470 0.060470 0.576200 -0.585867
O11   O     O_R   0.560470 0.939530 0.576200 -0.557733
O12   O     O_R   0.439530 0.060470 0.423800 -0.561592
O13   O     O_R   0.939530 0.439530 0.423800 -0.562655
O14   O     O_R   0.060470 0.560470 0.576200 -0.585871
O15   O     O_R   0.060470 0.439530 0.576200 -0.557731
O16   O     O_R   0.939530 0.560470 0.423800 -0.561591
O17   O     O_3   0.660113 0.718335 0.604703 -0.601424
C77   C     C_3   0.665158 0.658271 0.634037 0.088033
H13   H     H_    0.657874 0.656958 0.708988 0.161301
H14   H     H_    0.709779 0.637881 0.622168 0.150417
C78   C     C_3   0.616983 0.620815 0.587774 -0.345679
H15   H     H_    0.572425 0.638954 0.605041 0.233948
H16   H     H_    0.622407 0.623323 0.512519 0.218694
C79   C     C_3   0.620296 0.555660 0.618284 -0.934816
H17   H     H_    0.664037 0.536222 0.599702 0.255658
H18   H     H_    0.584621 0.529822 0.583927 0.258149
H19   H     H_    0.614095 0.551921 0.693302 0.258135
O18   O     O_3   0.343122 0.289172 0.383388 -0.606322
C80   C     C_3   0.396105 0.301908 0.431251 0.061602
H20   H     H_    0.410557 0.263012 0.473528 0.150438
H21   H     H_    0.389839 0.341324 0.475875 0.139435
C81   C     C_3   0.444849 0.316242 0.361997 -0.304638
H22   H     H_    0.449978 0.278134 0.314623 0.234892
H23   H     H_    0.431744 0.356247 0.321342 0.217530
C82   C     C_3   0.504437 0.328095 0.408650 -0.948512
H24   H     H_    0.500438 0.365614 0.457209 0.253814
H25   H     H_    0.538125 0.340068 0.356470 0.257858
H26   H     H_    0.519769 0.287499 0.445631 0.259351
O19   O     O_3   0.330538 0.730994 0.370342 -0.607901
C83   C     C_3   0.320712 0.676235 0.325435 0.075045
H27   H     H_    0.321502 0.685146 0.250728 0.157054
H28   H     H_    0.276777 0.655073 0.340368 0.152988
C84   C     C_3   0.370855 0.632679 0.349479 -0.337788
H29   H     H_    0.414218 0.652278 0.328624 0.233116
H30   H     H_    0.371990 0.624932 0.424447 0.217457
C85   C     C_3   0.362343 0.573053 0.301709 -0.932297
H31   H     H_    0.319835 0.552007 0.323273 0.256470
H32   H     H_    0.399547 0.542621 0.320176 0.258915
H33   H     H_    0.361938 0.579554 0.226455 0.257881
O20   O     O_3   0.669905 0.271891 0.642619 -0.617704
C86   C     C_3   0.613333 0.289550 0.610463 0.063297
H34   H     H_    0.596068 0.258199 0.558161 0.152141
H35   H     H_    0.615656 0.335336 0.580756 0.147830
C87   C     C_3   0.570196 0.289653 0.690821 -0.316529
H36   H     H_    0.568245 0.244197 0.721484 0.214527
H37   H     H_    0.586644 0.320991 0.743638 0.222650
C88   C     C_3   0.507649 0.308270 0.661356 -0.955621
H38   H     H_    0.508384 0.353495 0.629915 0.257622
H39   H     H_    0.478271 0.309269 0.722024 0.259706
H40   H     H_    0.489108 0.275904 0.611817 0.256930
O21   O     O_3   0.160121 0.218313 0.604688 -0.601415
C89   C     C_3   0.165184 0.158250 0.634022 0.088047
H41   H     H_    0.157897 0.156935 0.708973 0.161303
H42   H     H_    0.209811 0.137873 0.622156 0.150425
C90   C     C_3   0.117021 0.120779 0.587755 -0.345713
H43   H     H_    0.072457 0.138906 0.605016 0.233954
H44   H     H_    0.122449 0.123289 0.512500 0.218694
C91   C     C_3   0.120352 0.055626 0.618267 -0.934771
H45   H     H_    0.164098 0.036201 0.599690 0.255662
H46   H     H_    0.084685 0.029778 0.583908 0.258155
H47   H     H_    0.114148 0.051887 0.693284 0.258133
O22   O     O_3   0.843124 0.789115 0.383373 -0.606310
C92   C     C_3   0.896094 0.801892 0.431243 0.061287
H48   H     H_    0.910450 0.763111 0.473819 0.150522
H49   H     H_    0.889853 0.841445 0.475563 0.139544
C93   C     C_3   0.944918 0.815930 0.362008 -0.304751
H50   H     H_    0.949982 0.777691 0.314885 0.235025
H51   H     H_    0.931936 0.855856 0.321102 0.217583
C94   C     C_3   0.004510 0.827754 0.408682 -0.948559
H52   H     H_    0.000580 0.865413 0.456976 0.253780
H53   H     H_    0.038269 0.839490 0.356508 0.257948
H54   H     H_    0.019706 0.787226 0.445939 0.259384
O23   O     O_3   0.830545 0.231014 0.370292 -0.607893
C95   C     C_3   0.820719 0.176265 0.325358 0.075054
H55   H     H_    0.821495 0.185193 0.250656 0.157059
H56   H     H_    0.776789 0.155092 0.340296 0.152993
C96   C     C_3   0.870870 0.132710 0.349361 -0.337803
H57   H     H_    0.914227 0.152319 0.328497 0.233115
H58   H     H_    0.872019 0.124948 0.424325 0.217462
C97   C     C_3   0.862356 0.073092 0.301567 -0.932285
H59   H     H_    0.819855 0.052034 0.323142 0.256463
H60   H     H_    0.899568 0.042662 0.320000 0.258919
H61   H     H_    0.861934 0.079608 0.226315 0.257884
O24   O     O_3   0.169895 0.771973 0.642632 -0.617706
C98   C     C_3   0.113291 0.789525 0.610478 0.063168
H62   H     H_    0.095982 0.757987 0.558500 0.152263
H63   H     H_    0.115570 0.835202 0.580387 0.147872
C99   C     C_3   0.070240 0.789919 0.690927 -0.316687
H64   H     H_    0.068372 0.744600 0.722029 0.214664
H65   H     H_    0.086708 0.821486 0.743378 0.222700
C100  C     C_3   0.007641 0.808346 0.661461 -0.956104
H66   H     H_    0.008289 0.853430 0.629600 0.257736
H67   H     H_    0.978324 0.809562 0.722175 0.259802
H68   H     H_    0.989089 0.775767 0.612296 0.257036
O25   O     O_3   0.712110 0.775618 0.323635 -0.594212
C101  C     C_3   0.721314 0.835948 0.297668 0.102905
H69   H     H_    0.754602 0.837289 0.241814 0.165605
H70   H     H_    0.739116 0.864724 0.353260 0.140725
C102  C     C_3   0.662642 0.862278 0.262173 -0.356192
H71   H     H_    0.652512 0.843589 0.193852 0.211251
H72   H     H_    0.625764 0.849487 0.308657 0.249523
C103  C     C_3   0.665202 0.930277 0.255745 -0.899362
H73   H     H_    0.670250 0.949627 0.324885 0.262502
H74   H     H_    0.623323 0.947442 0.224894 0.260776
H75   H     H_    0.703186 0.945049 0.213023 0.243193
O26   O     O_3   0.293964 0.224688 0.667413 -0.616843
C104  C     C_3   0.284395 0.269923 0.732172 0.088855
H76   H     H_    0.268770 0.248159 0.796073 0.165076
H77   H     H_    0.249072 0.302609 0.712320 0.150165
C105  C     C_3   0.343239 0.301877 0.751555 -0.363592
H78   H     H_    0.377226 0.268593 0.773237 0.227822
H79   H     H_    0.359369 0.324274 0.688460 0.215494
C106  C     C_3   0.336396 0.348118 0.826411 -0.933487
H80   H     H_    0.301995 0.381514 0.806984 0.262452
H81   H     H_    0.379406 0.371515 0.836908 0.260438
H82   H     H_    0.323605 0.325946 0.891449 0.264579
O27   O     O_3   0.305010 0.753430 0.669435 -0.597567
C107  C     C_3   0.298329 0.809242 0.712881 0.105203
H83   H     H_    0.270549 0.802725 0.774745 0.165005
H84   H     H_    0.275761 0.844009 0.670153 0.141034
C108  C     C_3   0.359648 0.832244 0.741934 -0.352409
H85   H     H_    0.377002 0.804329 0.799161 0.213693
H86   H     H_    0.391180 0.828561 0.684057 0.245253
C109  C     C_3   0.357073 0.897311 0.771520 -0.915810
H87   H     H_    0.342328 0.926157 0.713713 0.266345
H88   H     H_    0.402043 0.912038 0.793258 0.264777
H89   H     H_    0.325856 0.902729 0.829384 0.243172
O28   O     O_3   0.691035 0.245724 0.339131 -0.609515
C110  C     C_3   0.710399 0.290255 0.277019 0.089684
H90   H     H_    0.720911 0.268134 0.211454 0.156802
H91   H     H_    0.751638 0.314250 0.298455 0.156474
C111  C     C_3   0.660308 0.335258 0.260636 -0.353662
H92   H     H_    0.619939 0.311526 0.236077 0.235024
H93   H     H_    0.649321 0.357637 0.325759 0.211252
C112  C     C_3   0.678071 0.382396 0.190138 -0.922571
H94   H     H_    0.718358 0.406799 0.213287 0.259817
H95   H     H_    0.641162 0.414838 0.180982 0.259899
H96   H     H_    0.687192 0.361224 0.123390 0.254903
O29   O     O_3   0.212118 0.275619 0.323638 -0.594214
C113  C     C_3   0.221299 0.335951 0.297669 0.102901
H97   H     H_    0.254587 0.337303 0.241815 0.165599
H98   H     H_    0.239088 0.364736 0.353259 0.140728
C114  C     C_3   0.162616 0.362256 0.262174 -0.356216
H99   H     H_    0.152459 0.343513 0.193897 0.211292
H100  H     H_    0.125754 0.349502 0.308711 0.249493
C115  C     C_3   0.165178 0.430250 0.255618 -0.899431
H101  H     H_    0.170274 0.449654 0.324713 0.262496
H102  H     H_    0.123280 0.447394 0.224803 0.260776
H103  H     H_    0.203132 0.444982 0.212802 0.243289
O30   O     O_3   0.793963 0.724682 0.667405 -0.616855
C116  C     C_3   0.784394 0.769918 0.732164 0.088866
H104  H     H_    0.768767 0.748154 0.796064 0.165080
H105  H     H_    0.749073 0.802606 0.712310 0.150168
C117  C     C_3   0.843239 0.801870 0.751550 -0.363589
H106  H     H_    0.877226 0.768588 0.773239 0.227866
H107  H     H_    0.859373 0.824264 0.688455 0.215511
C118  C     C_3   0.836391 0.848116 0.826399 -0.933511
H108  H     H_    0.802006 0.881522 0.806947 0.262429
H109  H     H_    0.879406 0.871500 0.836921 0.260425
H110  H     H_    0.823574 0.825950 0.891431 0.264595
O31   O     O_3   0.805041 0.253396 0.669406 -0.597561
C119  C     C_3   0.798347 0.309198 0.712873 0.105165
H111  H     H_    0.770570 0.302665 0.774737 0.164987
H112  H     H_    0.775769 0.343967 0.670159 0.140999
C120  C     C_3   0.859661 0.332212 0.741931 -0.352363
H113  H     H_    0.877017 0.304304 0.799165 0.213675
H114  H     H_    0.891197 0.328531 0.684058 0.245258
C121  C     C_3   0.857075 0.397280 0.771509 -0.915814
H115  H     H_    0.842328 0.426121 0.713697 0.266343
H116  H     H_    0.902041 0.412016 0.793251 0.264774
H117  H     H_    0.825854 0.402696 0.829368 0.243168
O32   O     O_3   0.191036 0.745731 0.339139 -0.609489
C122  C     C_3   0.210436 0.790234 0.277007 0.089663
H118  H     H_    0.220966 0.768087 0.211469 0.156797
H119  H     H_    0.251673 0.814226 0.298461 0.156489
C123  C     C_3   0.160365 0.835247 0.260544 -0.353692
H120  H     H_    0.120002 0.811519 0.235951 0.234968
H121  H     H_    0.149355 0.857644 0.325644 0.211262
C124  C     C_3   0.178173 0.882364 0.190042 -0.922496
H122  H     H_    0.218459 0.906758 0.213218 0.259810
H123  H     H_    0.141278 0.914817 0.180835 0.259904
H124  H     H_    0.187313 0.861176 0.123313 0.254889
O33   O     O_3   0.425215 0.083711 0.071447 -0.591994
C125  C     C_3   0.387649 0.108345 0.003603 0.079434
H125  H     H_    0.354057 0.074753 0.982077 0.132805
H126  H     H_    0.413408 0.123581 0.942866 0.165640
C126  C     C_3   0.355174 0.162035 0.043201 -0.288658
H127  H     H_    0.327748 0.147364 0.102257 0.230116
H128  H     H_    0.388351 0.195093 0.067687 0.234947
C127  C     C_3   0.315030 0.191795 0.972025 -0.953170
H129  H     H_    0.341955 0.207654 0.913273 0.263187
H130  H     H_    0.292240 0.230668 0.002707 0.258907
H131  H     H_    0.280806 0.159913 0.947465 0.258429
O34   O     O_3   0.575987 0.919204 0.927046 -0.606766
C128  C     C_3   0.619340 0.897149 0.988636 0.094329
H132  H     H_    0.619045 0.847744 0.983653 0.172726
H133  H     H_    0.610660 0.907746 0.061614 0.139544
C129  C     C_3   0.680652 0.920426 0.960251 -0.354409
H134  H     H_    0.686231 0.915147 0.885365 0.238034
H135  H     H_    0.684001 0.968647 0.976242 0.204180
C130  C     C_3   0.730717 0.886741 0.008805 -0.942406
H136  H     H_    0.726026 0.890020 0.083741 0.261184
H137  H     H_    0.774230 0.906332 0.989107 0.264824
H138  H     H_    0.730102 0.838987 0.989313 0.256128
O35   O     O_3   0.530586 0.116694 0.953639 -0.601648
C131  C     C_3   0.558716 0.125788 0.868683 0.061370
H139  H     H_    0.562308 0.174787 0.858580 0.167917
H140  H     H_    0.530841 0.110012 0.811218 0.135534
C132  C     C_3   0.621916 0.099655 0.866205 -0.395215
H141  H     H_    0.647313 0.114749 0.927030 0.231268
H142  H     H_    0.619957 0.050194 0.867505 0.223357
C133  C     C_3   0.654695 0.119405 0.779991 -0.850985
H143  H     H_    0.630058 0.104711 0.718310 0.270169
H144  H     H_    0.699787 0.099177 0.779244 0.255041
H145  H     H_    0.659457 0.168707 0.778029 0.275821
O36   O     O_3   0.476711 0.890250 0.067622 -0.616088
C134  C     C_3   0.434127 0.857652 0.017566 0.090415
H146  H     H_    0.448613 0.810294 0.018327 0.167835
H147  H     H_    0.431108 0.870982 0.944283 0.142381
C135  C     C_3   0.373387 0.861761 0.064306 -0.343632
H148  H     H_    0.378595 0.851129 0.138176 0.242629
H149  H     H_    0.355823 0.907892 0.057840 0.212959
C136  C     C_3   0.328626 0.818362 0.023074 -0.939912
H150  H     H_    0.321717 0.828300 0.949535 0.260103
H151  H     H_    0.285334 0.822576 0.058668 0.254689
H152  H     H_    0.344619 0.771752 0.031202 0.258796
O37   O     O_3   0.925214 0.583711 0.071451 -0.591999
C137  C     C_3   0.887649 0.608348 0.003608 0.079431
H153  H     H_    0.854055 0.574757 0.982082 0.132805
H154  H     H_    0.913408 0.623583 0.942871 0.165640
C138  C     C_3   0.855177 0.662038 0.043207 -0.288669
H155  H     H_    0.827751 0.647369 0.102265 0.230116
H156  H     H_    0.888356 0.695096 0.067692 0.234944
C139  C     C_3   0.815032 0.691800 0.972033 -0.953144
H157  H     H_    0.841957 0.707658 0.913279 0.263189
H158  H     H_    0.792245 0.730675 0.002716 0.258885
H159  H     H_    0.780806 0.659920 0.947475 0.258426
O38   O     O_3   0.075985 0.419211 0.927029 -0.606786
C140  C     C_3   0.119304 0.397112 0.988636 0.094365
H160  H     H_    0.119018 0.347713 0.983549 0.172798
H161  H     H_    0.110574 0.407642 0.061623 0.139568
C141  C     C_3   0.180631 0.420424 0.960393 -0.354493
H162  H     H_    0.186220 0.415320 0.885480 0.238106
H163  H     H_    0.184003 0.468604 0.976649 0.204096
C142  C     C_3   0.230674 0.386603 0.008774 -0.942390
H164  H     H_    0.225954 0.389665 0.083727 0.261182
H165  H     H_    0.274197 0.406242 0.989245 0.264811
H166  H     H_    0.230061 0.338907 0.988962 0.256144
O39   O     O_3   0.030586 0.616694 0.953646 -0.601660
C143  C     C_3   0.058716 0.625788 0.868689 0.061437
H167  H     H_    0.062303 0.674786 0.858583 0.167897
H168  H     H_    0.030841 0.610009 0.811224 0.135551
C144  C     C_3   0.121917 0.599660 0.866213 -0.395197
H169  H     H_    0.147315 0.614763 0.927031 0.231259
H170  H     H_    0.119963 0.550198 0.867528 0.223378
C145  C     C_3   0.154691 0.619403 0.779990 -0.850961
H171  H     H_    0.130056 0.604693 0.718316 0.270176
H172  H     H_    0.199787 0.599182 0.779250 0.255030
H173  H     H_    0.159443 0.668705 0.778008 0.275788
O40   O     O_3   0.976706 0.390247 0.067613 -0.616118
C146  C     C_3   0.934097 0.357662 0.017585 0.090375
H174  H     H_    0.948561 0.310298 0.018353 0.167836
H175  H     H_    0.931073 0.370985 0.944299 0.142380
C147  C     C_3   0.873367 0.361804 0.064347 -0.343608
H176  H     H_    0.878583 0.351181 0.138219 0.242633
H177  H     H_    0.855821 0.407941 0.057872 0.212956
C148  C     C_3   0.828580 0.318418 0.023148 -0.939917
H178  H     H_    0.821674 0.328340 0.949601 0.260091
H179  H     H_    0.785292 0.322666 0.058742 0.254692
H180  H     H_    0.844550 0.271801 0.031304 0.258788

loop_
_geom_bond_atom_site_label_1
_geom_bond_atom_site_label_2
_ccdc_geom_bond_type
C99   H65   S    
O21   C89   S    
C125  C126  S    
C6    O14   A    
O27   C107  S    
C105  C106  S    
C39   H7    S    
C138  H155  S    
C94   H53   S    
O37   C137  S    
C123  H120  S    
C78   H16   S    
C24   O34   S    
C84   C85   S    
C99   C100  S    
C120  H113  S    
Cu1   O4    S    
Cu2   O12   S    
C121  H115  S    
C31   C59   S    
C100  H67   S    
C145  H172  S    
C129  C130  S    
C70   C74   S    
C135  H148  S    
C15   C51   T    
C44   H12   S    
C93   C94   S    
O29   C113  S    
C27   C75   S    
C90   H44   S    
C95   H56   S    
C77   H13   S    
C104  H77   S    
C111  H93   S    
C132  H142  S    
C101  H69   S    
Cu4   O7    S    
C134  H146  S    
O19   C83   S    
C86   C87   S    
C139  H157  S    
C148  H180  S    
C128  H132  S    
C143  C144  S    
C96   H57   S    
C38   C57   S    
C108  H85   S    
Cu1   O11   S    
Cu4   O16   S    
C135  C136  S    
C140  C141  S    
C109  H88   S    
C8    O8    A    
C117  H107  S    
O22   C92   S    
C119  H112  S    
C34   C54   S    
C89   H41   S    
C85   H32   S    
C28   C71   S    
C60   O31   S    
C138  C139  S    
O34   C128  S    
O20   C86   S    
C128  C129  S    
C118  H109  S    
C29   O17   S    
C133  H145  S    
C58   O29   S    
C28   O38   S    
C84   H29   S    
C1    C48   S    
C2    C47   S    
C26   O40   S    
C3    C46   S    
C25   C76   S    
C40   H8    S    
C57   O30   S    
C148  H179  S    
C98   C99   S    
Cu3   N4    S    
C124  H123  S    
C44   C55   S    
C14   C50   T    
C39   C60   S    
C141  H162  S    
C2    O10   A    
C146  C147  S    
C122  H119  S    
O26   C104  S    
C30   C61   S    
C21   C69   S    
C144  H169  S    
C80   H21   S    
C112  H95   S    
C97   H59   S    
C1    O9    A    
C115  H101  S    
C38   C62   S    
C41   H9    S    
O24   C98   S    
C86   H34   S    
C137  C138  S    
C139  H159  S    
C81   H22   S    
C147  H176  S    
C142  H166  S    
C114  H99   S    
C31   C43   S    
C38   H6    S    
C9    C61   S    
Cu1   O10   S    
C105  H79   S    
C11   C63   S    
C42   C53   S    
C12   C64   S    
C145  H171  S    
Cu1   N2    S    
C131  H139  S    
C112  H94   S    
C133  H144  S    
C69   H2    S    
C59   C67   S    
C53   C61   S    
C127  H131  S    
C7    O15   A    
C27   O37   S    
C55   C63   S    
C56   C64   S    
Cu1   O1    S    
C25   C71   S    
C6    O6    A    
C20   N4    T    
C7    O7    A    
C17   C73   S    
C136  H151  S    
C23   C70   S    
C93   H51   S    
C33   C66   S    
O33   C125  S    
C4    C45   S    
C102  H72   S    
C35   O23   S    
C72   H3    S    
C96   C97   S    
C137  H153  S    
C101  C102  S    
C141  C142  S    
Cu4   O6    S    
C42   H10   S    
C83   C84   S    
C126  H127  S    
C110  H90   S    
C15   C67   S    
C143  H168  S    
C26   C75   S    
Cu4   N3    S    
C115  H103  S    
C108  H86   S    
C110  C111  S    
C59   O32   S    
C17   N1    T    
C55   O28   S    
C81   C82   S    
Cu2   O3    S    
C19   N3    T    
C79   H17   S    
C92   H49   S    
O39   C143  S    
C113  H97   S    
C22   O36   S    
C132  C133  S    
C29   C41   S    
C7    C50   S    
C117  H106  S    
C23   O33   S    
C56   O27   S    
C77   H14   S    
O31   C119  S    
C54   O25   S    
C123  H121  S    
C131  C132  S    
C116  C117  S    
C78   H15   S    
C106  H82   S    
C84   H30   S    
C53   O26   S    
C88   H40   S    
C136  H152  S    
O36   C134  S    
C144  C145  S    
C121  H116  S    
C100  H66   S    
C77   C78   S    
C3    O3    A    
O38   C140  S    
C123  C124  S    
C43   C67   S    
O32   C122  S    
Cu3   O5    S    
C135  H149  S    
C22   C70   S    
C113  C114  S    
C120  C121  S    
C9    C45   T    
C121  H117  S    
C26   C72   S    
C11   C47   T    
C12   C48   T    
C82   H26   S    
C107  H83   S    
C90   H43   S    
C118  H108  S    
Cu1   Cu2   S    
C4    O12   A    
C111  C112  S    
C101  H70   S    
C91   H45   S    
C86   H35   S    
C139  H158  S    
C126  C127  S    
C8    O16   A    
C32   O20   S    
C125  H125  S    
C136  H150  S    
O40   C146  S    
C89   C90   S    
C142  H164  S    
C103  H73   S    
C114  C115  S    
C87   C88   S    
Cu4   O13   S    
C122  H118  S    
C69   C73   S    
C88   H39   S    
C79   H19   S    
C127  H130  S    
C99   H64   S    
C132  H141  S    
C34   C38   S    
C89   H42   S    
C85   H33   S    
C10   C62   S    
C117  C118  S    
C34   O22   S    
C138  H156  S    
C33   O21   S    
C94   H54   S    
C5    O5    A    
C128  H133  S    
C130  H136  S    
C92   H48   S    
C31   O19   S    
C78   C79   S    
C106  H80   S    
C83   H27   S    
C54   C62   S    
C33   C37   S    
C98   H62   S    
C100  H68   S    
C35   C39   S    
C98   H63   S    
C124  H122  S    
C36   C56   S    
C104  H76   S    
C141  H163  S    
C146  H175  S    
C29   C57   S    
C21   C23   S    
C80   H20   S    
C22   C24   S    
O28   C110  S    
C32   C60   S    
C97   H60   S    
C82   H24   S    
C28   C76   S    
C107  C108  S    
C90   C91   S    
C95   H55   S    
C115  H102  S    
O17   C77   S    
C104  C105  S    
C111  H92   S    
Cu3   O14   S    
C91   H47   S    
C16   C52   T    
C57   C65   S    
C81   H23   S    
C147  H177  S    
C142  H165  S    
C112  H96   S    
C97   H61   S    
C5    O13   A    
C103  H75   S    
C19   C75   S    
C131  H140  S    
C109  H87   S    
C147  C148  S    
O23   C95   S    
C119  H111  S    
C60   C68   S    
C21   O35   S    
C85   H31   S    
C30   C42   S    
C8    C49   S    
C27   C72   S    
C145  H173  S    
C118  H110  S    
O35   C131  S    
O25   C101  S    
C146  H174  S    
C72   C76   S    
C36   C67   S    
C13   C65   S    
C102  H71   S    
C130  H138  S    
Cu2   O9    S    
C37   H5    S    
C116  H104  S    
C124  H124  S    
C96   H58   S    
C137  H154  S    
Cu2   N1    S    
C20   C76   S    
C109  H89   S    
C122  C123  S    
C70   H1    S    
C58   C66   S    
C94   H52   S    
Cu2   O2    S    
C80   C81   S    
C5    C52   S    
C16   C68   S    
C6    C51   S    
C37   C58   S    
C95   C96   S    
C18   C74   S    
C40   C59   S    
C110  H91   S    
C23   C73   S    
C34   C65   S    
C79   H18   S    
C24   C69   S    
C33   C53   S    
C113  H98   S    
C114  H100  S    
C35   C55   S    
C36   C40   S    
C105  H78   S    
C83   H28   S    
C1    O1    A    
C41   C65   S    
C3    O11   A    
C21   C74   S    
C43   H11   S    
C130  H137  S    
C134  H147  S    
C10   C46   T    
C133  H143  S    
C106  H81   S    
C119  C120  S    
O30   C116  S    
C14   C66   S    
C144  H170  S    
C2    O2    A    
C13   C49   T    
C129  H134  S    
C30   O18   S    
C4    O4    A    
C18   N2    T    
C92   C93   S    
C87   H37   S    
Cu3   O8    S    
C44   C68   S    
C93   H50   S    
C71   H4    S    
C102  C103  S    
C120  H114  S    
C29   C62   S    
C127  H129  S    
C87   H36   S    
C31   C64   S    
C25   O39   S    
C32   C63   S    
C82   H25   S    
C107  H84   S    
C37   C61   S    
C36   O24   S    
C25   C27   S    
C39   C63   S    
C26   C28   S    
C40   C64   S    
Cu3   O15   S    
C134  C135  S    
C91   H46   S    
C140  H160  S    
C126  H128  S    
C148  H178  S    
C71   C75   S    
C24   C74   S    
C140  H161  S    
C35   C68   S    
C30   C58   S    
C129  H135  S    
C143  H167  S    
C125  H126  S    
C41   C54   S    
Cu3   Cu4   S    
C43   C56   S    
C108  C109  S    
C32   C44   S    
C103  H74   S    
C42   C66   S    
C22   C73   S    
C88   H38   S    
C116  H105  S    
O18   C80   S    
