data_mof_unit_3956.cif
_audit_creation_date              2012-12-11T15:41:24-0500
_audit_creation_method            fapswitch 2.2
_symmetry_space_group_name_H-M    P1
_symmetry_Int_Tables_number       1
_space_group_crystal_system       triclinic
_cell_length_a                    19.086906
_cell_length_b                    10.987143
_cell_length_c                    18.815353
_cell_angle_alpha                 90.202616
_cell_angle_beta                  90.228704
_cell_angle_gamma                 90.109223
_cell_volume                      3945.71493826

loop_
_atom_site_label
_atom_site_type_symbol
_atom_type_description
_atom_site_fract_x
_atom_site_fract_y
_atom_site_fract_z
_atom_type_partial_charge
C1    C     C_R   0.726028 0.958490 0.854869 0.563099
C2    C     C_R   0.309679 0.445464 0.036068 0.066348
C3    C     C_R   0.759182 0.865311 0.352620 0.552940
C4    C     C_2   0.496656 0.167354 0.920481 0.359800
C5    C     C_2   0.505722 0.169465 0.080870 0.370166
C6    C     C_2   0.996280 0.667106 0.920295 0.358656
C7    C     C_2   0.005338 0.669207 0.080671 0.368536
C8    C     C_2   0.496794 0.070733 0.039264 0.382511
C9    C     C_2   0.511301 0.071499 0.962792 0.384610
C10   C     C_2   0.996139 0.570471 0.039058 0.384049
C11   C     C_2   0.010865 0.571253 0.962630 0.385729
C12   C     C_R   0.759289 0.422581 0.071829 -0.003053
C13   C     C_R   0.188773 0.939441 0.964634 0.062215
C14   C     C_R   0.243143 0.419688 0.926635 0.003408
C15   C     C_R   0.258783 0.921910 0.072217 0.000558
C16   C     C_R   0.742737 0.921613 0.927454 0.002729
C17   C     C_3   0.572510 0.541407 0.932832 -0.251614
C18   C     C_3   0.565088 0.595757 0.858599 -0.407448
C19   C     C_3   0.421622 0.549798 0.073446 -0.283986
C20   C     C_3   0.456951 0.673302 0.083298 -0.433078
C21   C     C_3   0.069890 0.033483 0.934785 -0.239482
C22   C     C_3   0.060179 0.089375 0.861225 -0.407520
C23   C     C_3   0.916804 0.083718 0.069019 -0.274058
C24   C     C_R   0.808526 0.954544 0.037525 0.076171
C25   C     C_3   0.921284 0.120504 0.147187 -0.403328
C26   C     C_R   0.812779 0.392706 0.956424 -0.160606
C27   C     C_R   0.190219 0.374468 0.040120 -0.149378
C28   C     C_R   0.311957 0.892072 0.956710 -0.161916
C29   C     C_R   0.689795 0.877644 0.040989 -0.150094
C30   C     C_R   0.816747 0.389094 0.029718 -0.156083
C31   C     C_R   0.187854 0.372048 0.966885 -0.141109
C32   C     C_R   0.316229 0.889725 0.029869 -0.159365
C33   C     C_R   0.274073 0.958140 0.145212 0.551386
C34   C     C_R   0.687681 0.873909 0.967768 -0.142239
C35   C     C_3   0.650595 0.556470 0.043560 -0.245138
C36   C     C_3   0.344384 0.571242 0.961009 -0.234455
C37   C     C_3   0.149090 0.053781 0.044322 -0.240177
C38   C     C_3   0.836432 0.083434 0.960690 -0.243354
C39   C     C_3   0.647184 0.556905 0.962884 -0.139881
C40   C     C_3   0.347764 0.564073 0.041741 -0.146033
C41   C     C_3   0.144744 0.052678 0.963653 -0.141834
C42   C     C_3   0.840787 0.079532 0.041160 -0.144448
C43   C     C_R   0.748867 0.416784 0.922416 -0.006192
C44   C     C_R   0.226211 0.458056 0.854578 0.556546
C45   C     C_R   0.251577 0.409697 0.075934 -0.005978
C46   C     C_R   0.247935 0.915192 0.922947 -0.003510
C47   C     C_R   0.750875 0.914168 0.076995 -0.004796
C48   C     C_R   0.489566 0.172065 0.429194 -0.008152
C49   C     C_R   0.495417 0.164389 0.577350 0.010932
C50   C     C_R   0.990418 0.672218 0.428686 -0.006887
C51   C     C_R   0.997443 0.662532 0.576656 0.010579
C52   C     C_R   0.467434 0.269569 0.470811 0.031271
C53   C     C_R   0.467145 0.266112 0.543191 -0.030403
C54   C     C_R   0.965212 0.766205 0.471228 0.032155
C55   C     C_R   0.774223 0.458369 0.145049 0.551269
C56   C     C_R   0.965151 0.761244 0.543475 -0.032246
C57   C     C_R   0.508358 0.058333 0.536877 -0.170772
C58   C     C_R   0.506464 0.062671 0.462779 -0.176732
C59   C     C_R   0.015109 0.559211 0.535236 -0.167310
C60   C     C_R   0.011825 0.564376 0.461222 -0.180071
C61   C     C_R   0.529688 0.177458 0.850601 0.582701
C62   C     C_R   0.470961 0.177616 0.149884 0.586007
C63   C     C_R   0.029613 0.677423 0.850556 0.581387
C64   C     C_R   0.970850 0.677576 0.149809 0.586280
C65   C     C_3   0.484893 0.401249 0.467073 0.283268
C66   C     C_R   0.695469 0.446732 0.037769 0.047064
C67   C     C_3   0.477572 0.402559 0.546968 0.266077
C68   C     C_3   0.977001 0.899773 0.468537 0.282829
C69   C     C_3   0.969509 0.898554 0.548481 0.265039
C70   C     C_R   0.752933 0.409043 0.422105 0.014159
C71   C     C_R   0.234377 0.446694 0.568357 0.009282
C72   C     C_R   0.251064 0.902072 0.419937 0.014401
C73   C     C_R   0.718420 0.984420 0.563264 0.005773
C74   C     C_R   0.801535 0.339886 0.460530 0.015167
C75   C     C_R   0.180954 0.389189 0.530609 0.019203
C76   C     C_R   0.299091 0.830775 0.458041 0.017887
C77   C     C_R   0.305022 0.453647 0.962299 0.053085
C78   C     C_R   0.669132 0.916144 0.525396 0.011636
C79   C     C_R   0.798821 0.334932 0.533197 0.018582
C80   C     C_R   0.184201 0.376616 0.458259 0.011160
C81   C     C_R   0.295434 0.822939 0.530712 0.028888
C82   C     C_R   0.679079 0.889285 0.454575 0.012821
C83   C     C_R   0.693612 0.453239 0.533359 -0.139382
C84   C     C_R   0.286405 0.503931 0.454973 -0.113051
C85   C     C_R   0.188869 0.937967 0.530339 -0.151565
C86   C     C_R   0.779974 0.019287 0.451215 -0.109438
C87   C     C_R   0.695069 0.456548 0.458739 -0.171091
C88   C     C_R   0.194585 0.944598 0.038539 0.047765
C89   C     C_R   0.283981 0.514189 0.529475 -0.145991
C90   C     C_R   0.191473 0.944197 0.455845 -0.174603
C91   C     C_R   0.771711 0.042801 0.524483 -0.149604
C92   C     C_3   0.880103 0.341919 0.461943 -0.263973
C93   C     C_3   0.149540 0.266637 0.541566 -0.263090
C94   C     C_3   0.377632 0.832822 0.460522 -0.266369
C95   C     C_3   0.641069 0.791866 0.540962 -0.254327
C96   C     C_3   0.876326 0.337573 0.542175 -0.276632
C97   C     C_3   0.153818 0.251138 0.461890 -0.259528
C98   C     C_3   0.372898 0.825659 0.540553 -0.275947
C99   C     C_R   0.803365 0.961034 0.963385 0.051270
C100  C     C_3   0.652033 0.762788 0.463440 -0.261064
C101  C     C_R   0.747445 0.395388 0.571588 0.010049
C102  C     C_R   0.241511 0.421879 0.420172 0.010870
C103  C     C_R   0.243875 0.883758 0.568855 0.009928
C104  C     C_R   0.738552 0.929820 0.418022 0.015927
C105  C     C_R   0.738579 0.365869 0.851903 0.540532
C106  C     C_R   0.261596 0.364497 0.147604 0.542041
C107  C     C_R   0.238332 0.865386 0.852127 0.541968
C108  C     C_R   0.761501 0.865224 0.147847 0.541369
C109  C     C_R   0.709543 0.001100 0.640045 0.562597
C110  C     C_R   0.689884 0.442262 0.963861 0.064444
C111  C     C_R   0.271949 0.953711 0.351893 0.542695
C112  C     C_R   0.224739 0.463335 0.644328 0.544815
C113  C     C_R   0.772333 0.455028 0.352422 0.543652
C114  C     C_R   0.528976 0.175914 0.645518 0.556637
C115  C     C_R   0.469918 0.176762 0.355527 0.539711
C116  C     C_R   0.029364 0.675637 0.645336 0.562747
C117  C     C_R   0.970239 0.676795 0.355258 0.540859
C118  C     C_R   0.739068 0.360804 0.645668 0.537217
C119  C     C_R   0.259436 0.364527 0.352598 0.550518
C120  C     C_R   0.238034 0.857120 0.644335 0.542660
Cr1   Cr    Cr6+3 0.769260 0.163750 0.750730 1.018791
Cr2   Cr    Cr6+3 0.385810 0.322400 0.252290 1.061638
Cr3   Cr    Cr6+3 0.114190 0.822400 0.747710 1.054123
Cr4   Cr    Cr6+3 0.885810 0.822400 0.252290 1.055205
Cr5   Cr    Cr6+3 0.230740 0.163750 0.249270 1.014263
Cr6   Cr    Cr6+3 0.269260 0.663750 0.750730 1.018453
Cr7   Cr    Cr6+3 0.730740 0.663750 0.249270 1.016808
Cr8   Cr    Cr6+3 0.612640 0.009910 0.748780 1.039032
Cr9   Cr    Cr6+3 0.387360 0.009910 0.251220 1.043169
Cr10  Cr    Cr6+3 0.112640 0.509910 0.748780 1.046434
Cr11  Cr    Cr6+3 0.887360 0.509910 0.251220 1.039880
Cr12  Cr    Cr6+3 0.614190 0.322400 0.747710 1.049344
F1    F     F_    0.477831 0.962569 0.068053 -0.678531
F2    F     F_    0.459551 0.264179 0.945336 -0.664580
F3    F     F_    0.037422 0.770804 0.055140 -0.664802
F4    F     F_    0.958800 0.763593 0.945017 -0.660870
F5    F     F_    0.538183 0.967407 0.935150 -0.664212
F6    F     F_    0.976775 0.462313 0.067732 -0.665826
F7    F     F_    0.038093 0.467353 0.935107 -0.660987
F8    F     F_    0.923655 0.959663 0.434541 -0.677794
F9    F     F_    0.028388 0.945717 0.580872 -0.668391
F10   F     F_    0.434400 0.468060 0.432789 -0.679126
F11   F     F_    0.538434 0.442186 0.578726 -0.667756
F12   F     F_    0.537758 0.271185 0.055445 -0.665984
H1    H     H_    0.538777 0.418491 0.447384 0.139810
H2    H     H_    0.321442 0.571705 0.556539 0.139376
H3    H     H_    0.150622 0.992004 0.427437 0.125109
H4    H     H_    0.809169 0.100090 0.551555 0.146267
H5    H     H_    0.901595 0.428817 0.442073 0.176374
H6    H     H_    0.094847 0.271580 0.561400 0.156369
H7    H     H_    0.399347 0.920443 0.442129 0.173727
H8    H     H_    0.584952 0.792168 0.556227 0.145271
H9    H     H_    0.903202 0.258508 0.438082 0.162092
H10   H     H_    0.184769 0.204511 0.571494 0.141395
H11   H     H_    0.401124 0.750382 0.435934 0.168464
H12   H     H_    0.430376 0.451120 0.566446 0.135871
H13   H     H_    0.675817 0.738365 0.576672 0.157986
H14   H     H_    0.897508 0.251868 0.564797 0.155881
H15   H     H_    0.192967 0.182247 0.445940 0.167463
H16   H     H_    0.394279 0.739637 0.562431 0.151178
H17   H     H_    0.694336 0.695616 0.454873 0.159105
H18   H     H_    0.894788 0.422349 0.568684 0.144959
H19   H     H_    0.101740 0.244347 0.435475 0.143828
H20   H     H_    0.390950 0.909654 0.568198 0.142948
H21   H     H_    0.602473 0.746520 0.433615 0.148784
H22   H     H_    0.858949 0.367623 0.926411 0.170514
H23   H     H_    0.029997 0.924697 0.449103 0.138006
H24   H     H_    0.144498 0.342711 0.068608 0.174985
H25   H     H_    0.358332 0.868480 0.926598 0.166715
H26   H     H_    0.644342 0.844453 0.069373 0.172940
H27   H     H_    0.866512 0.365431 0.053115 0.223149
H28   H     H_    0.139891 0.340564 0.942303 0.213610
H29   H     H_    0.366527 0.870437 0.052874 0.215657
H30   H     H_    0.640124 0.840794 0.943108 0.211877
H31   H     H_    0.177731 0.133694 0.065513 0.155374
H32   H     H_    0.799252 0.153158 0.941424 0.161715
H33   H     H_    0.679182 0.635683 0.065699 0.156876
H34   H     H_    0.920078 0.940233 0.567933 0.146548
H35   H     H_    0.311367 0.647277 0.941971 0.158264
H36   H     H_    0.600667 0.534036 0.070613 0.166110
H37   H     H_    0.395753 0.562264 0.933844 0.156395
H38   H     H_    0.099298 0.032525 0.072222 0.169544
H39   H     H_    0.887595 0.081116 0.932617 0.153505
H40   H     H_    0.676895 0.633605 0.939181 0.141923
H41   H     H_    0.315620 0.634444 0.069062 0.145666
H42   H     H_    0.173112 0.130187 0.939148 0.140383
H43   H     H_    0.805510 0.146879 0.066956 0.146007
H44   H     H_    0.526153 0.975657 0.561914 0.140659
H45   H     H_    0.652421 0.499766 0.561202 0.213966
H46   H     H_    0.518993 0.982013 0.432115 0.131869
H47   H     H_    0.037218 0.478529 0.559256 0.148237
H48   H     H_    0.026776 0.485812 0.429835 0.130932
H49   H     H_    0.572937 0.695894 0.860867 0.168716
H50   H     H_    0.603725 0.556433 0.821406 0.184461
H51   H     H_    0.511608 0.577148 0.837742 0.147506
H52   H     H_    0.556723 0.444100 0.932120 0.253329
H53   H     H_    0.535307 0.591058 0.967179 0.148088
H54   H     H_    0.459898 0.722225 0.031864 0.204661
H55   H     H_    0.427233 0.728751 0.122277 0.192309
H56   H     H_    0.325053 0.554081 0.425338 0.202486
H57   H     H_    0.510667 0.661246 0.104621 0.147795
H58   H     H_    0.417810 0.507173 0.126594 0.205238
H59   H     H_    0.454394 0.489444 0.039778 0.227063
H60   H     H_    0.066836 0.189735 0.864193 0.166732
H61   H     H_    0.098531 0.052228 0.822932 0.183141
H62   H     H_    0.006522 0.069194 0.841357 0.152342
H63   H     H_    0.056202 0.935331 0.933280 0.259277
H64   H     H_    0.032137 0.079133 0.970376 0.147380
H65   H     H_    0.898096 0.211998 0.155154 0.177170
H66   H     H_    0.893748 0.054772 0.181449 0.186864
H67   H     H_    0.145979 0.980251 0.557825 0.216441
H68   H     H_    0.977117 0.124020 0.163918 0.142064
H69   H     H_    0.943461 0.994859 0.060746 0.226923
H70   H     H_    0.945701 0.154651 0.039063 0.164637
H71   H     H_    0.820829 0.064876 0.422075 0.200024
H72   H     H_    0.654600 0.505485 0.430445 0.128333
O1    O     O_R   0.784290 0.290360 0.830540 -0.531486
O2    O     O_R   0.456020 0.282110 0.333230 -0.467806
O3    O     O_R   0.043980 0.782110 0.666770 -0.429836
O4    O     O_R   0.956020 0.782110 0.333230 -0.471276
O5    O     O_R   0.679070 0.374030 0.674430 -0.477476
O6    O     O_R   0.320930 0.374030 0.325570 -0.459263
O7    O     O_R   0.179070 0.874030 0.674430 -0.483923
O8    O     O_R   0.820930 0.874030 0.325570 -0.455394
O9    O     O_3   0.665360 0.165350 0.749070 -0.283662
O10   O     O_3   0.334640 0.165350 0.250930 -0.262449
O11   O     O_3   0.165360 0.665350 0.749070 -0.266387
O12   O     O_R   0.215710 0.290360 0.169460 -0.531564
O13   O     O_3   0.834640 0.665350 0.250930 -0.261604
O14   O     O_R   0.762610 0.041070 0.825230 -0.498973
O15   O     O_R   0.237390 0.041070 0.174770 -0.503748
O16   O     O_R   0.262610 0.541070 0.825230 -0.502883
O17   O     O_R   0.737390 0.541070 0.174770 -0.502201
O18   O     O_R   0.667390 0.924160 0.829970 -0.495690
O19   O     O_R   0.332610 0.924160 0.170030 -0.509832
O20   O     O_R   0.167390 0.424160 0.829970 -0.497865
O21   O     O_R   0.832610 0.424160 0.170030 -0.513708
O22   O     O_R   0.553980 0.081420 0.821780 -0.468427
O23   O     O_R   0.284290 0.790360 0.830540 -0.530092
O24   O     O_R   0.446020 0.081420 0.178220 -0.470294
O25   O     O_R   0.053980 0.581420 0.821780 -0.468416
O26   O     O_R   0.946020 0.581420 0.178220 -0.470610
O27   O     O_R   0.543210 0.283170 0.826740 -0.508316
O28   O     O_R   0.456790 0.283170 0.173260 -0.505123
O29   O     O_R   0.043210 0.783170 0.826740 -0.510385
O30   O     O_R   0.956790 0.783170 0.173260 -0.496127
O31   O     O_R   0.678350 0.375000 0.822720 -0.508618
O32   O     O_R   0.321650 0.375000 0.177280 -0.512315
O33   O     O_R   0.178350 0.875000 0.822720 -0.510791
O34   O     O_R   0.715710 0.790360 0.169460 -0.533301
O35   O     O_R   0.821650 0.875000 0.177280 -0.511008
O36   O     O_R   0.785060 0.289300 0.670580 -0.526992
O37   O     O_R   0.214940 0.289300 0.329420 -0.527757
O38   O     O_R   0.285060 0.789300 0.670580 -0.520559
O39   O     O_R   0.714940 0.789300 0.329420 -0.526781
O40   O     O_R   0.763330 0.040090 0.676940 -0.502365
O41   O     O_R   0.236670 0.040090 0.323060 -0.508326
O42   O     O_R   0.263330 0.540090 0.676940 -0.508028
O43   O     O_R   0.736670 0.540090 0.323060 -0.505475
O44   O     O_R   0.668160 0.923110 0.670000 -0.519610
O45   O     O_R   0.554690 0.080440 0.673480 -0.540268
O46   O     O_R   0.331840 0.923110 0.330000 -0.521902
O47   O     O_R   0.168160 0.423110 0.670000 -0.518825
O48   O     O_R   0.831840 0.423110 0.330000 -0.524363
O49   O     O_R   0.445310 0.080440 0.326520 -0.516919
O50   O     O_R   0.054690 0.580440 0.673480 -0.528375
O51   O     O_R   0.945310 0.580440 0.326520 -0.517291
O52   O     O_R   0.543980 0.282110 0.666770 -0.430501

loop_
_geom_bond_atom_site_label_1
_geom_bond_atom_site_label_2
_ccdc_geom_bond_type
C3    C104  S    
C35   H33   S    
C7    C10   D    
C83   C87   A    
Cr4   O4    S    
C61   O27   A    
C3    O8    A    
C80   C97   S    
C18   H50   S    
C50   C117  S    
C84   C102  A    
C37   C88   S    
C96   H14   S    
Cr6   O11   S    
Cr7   O13   S    
C14   C31   A    
C72   C76   A    
C67   F11   S    
C13   C41   S    
Cr5   O15   S    
C62   O24   A    
C15   C32   A    
C20   H55   S    
C24   C42   S    
C84   H56   S    
C15   C33   S    
C56   C69   S    
C28   C46   A    
C50   C54   A    
C23   C42   S    
Cr9   O19   S    
Cr7   O39   S    
C61   O22   A    
C97   H15   S    
C21   H64   S    
C4    F2    S    
C93   H10   S    
C114  O45   A    
Cr11  O21   S    
C20   H57   S    
Cr3   O33   S    
Cr4   O35   S    
C116  O50   A    
C86   C91   A    
C44   O20   A    
C43   C105  S    
Cr6   O16   S    
Cr10  O25   S    
C64   O26   A    
C81   C98   S    
C94   C98   S    
Cr8   O22   S    
Cr2   O10   S    
Cr5   O41   S    
C92   C96   S    
Cr1   O9    S    
C22   H62   S    
C117  O4    A    
C51   C56   A    
C17   C39   S    
C14   C77   A    
C74   C92   S    
C11   F7    S    
C86   H71   S    
C105  O31   A    
C57   H44   S    
C6    F4    S    
Cr3   O7    S    
C16   C34   A    
C9    F5    S    
C1    O14   A    
C39   C110  S    
C103  C120  S    
C94   H11   S    
C97   H19   S    
Cr9   O10   S    
C58   H46   S    
C73   C78   A    
C115  O2    A    
C17   H53   S    
C100  H17   S    
C43   C110  A    
C29   H26   S    
Cr5   O12   S    
Cr2   O2    S    
C75   C80   A    
C78   C95   S    
Cr10  O47   S    
C85   C103  A    
C27   H24   S    
C112  O42   A    
Cr11  O13   S    
C49   C114  S    
C8    F1    S    
C72   C111  S    
C86   C104  A    
C59   C60   A    
C2    C45   A    
C21   C22   S    
C46   C107  S    
C118  O5    A    
C70   C87   A    
C30   H27   S    
C93   H6    S    
C36   H35   S    
Cr1   O1    S    
C55   O17   A    
Cr6   O23   S    
C85   H67   S    
C91   H4    S    
Cr2   O32   S    
C59   H47   S    
C70   C74   A    
C37   H38   S    
C70   C113  S    
Cr8   O18   S    
C89   H2    S    
C63   O29   A    
C54   C56   A    
Cr7   O17   S    
C107  O33   A    
C108  O35   A    
C27   C31   A    
Cr12  O5    S    
C119  O37   A    
Cr4   O8    S    
C28   C32   A    
C24   C99   A    
C73   C91   A    
C10   C11   S    
C6    C11   D    
Cr3   O29   S    
Cr6   O42   S    
C95   C100  S    
C68   C69   S    
C5    F12   S    
Cr2   O28   S    
C40   H41   S    
C35   C66   S    
C65   C67   S    
C94   H7    S    
C102  C119  S    
C12   C66   A    
C4    C61   S    
C19   H58   S    
C66   C110  A    
C38   H39   S    
C22   H61   S    
C80   C102  A    
C67   H12   S    
C113  O48   A    
C81   C103  A    
C6    C63   S    
C25   H68   S    
C25   H65   S    
Cr12  O52   S    
C68   H23   S    
C111  O46   A    
C7    F3    S    
C90   H3    S    
C34   H30   S    
Cr3   O11   S    
C114  O52   A    
C69   H34   S    
C37   H31   S    
C3    O39   A    
C72   C90   A    
C78   C82   A    
Cr12  O27   S    
C38   H32   S    
C71   C89   A    
C36   C40   S    
C1    O18   A    
C60   H48   S    
C54   C68   S    
C71   C112  S    
C19   H59   S    
C17   C18   S    
C8    C9    S    
C64   O30   A    
Cr6   O38   S    
C1    C16   S    
C117  O51   A    
Cr8   O45   S    
C55   O21   A    
C116  O3    A    
Cr5   O37   S    
C20   H54   S    
C92   H9    S    
C48   C115  S    
C21   C41   S    
C26   C43   A    
C29   C47   A    
Cr10  O11   S    
C26   C30   A    
C120  O7    A    
C105  O1    A    
C74   C79   A    
Cr9   O24   S    
Cr2   O6    S    
Cr7   O43   S    
C68   F8    S    
C51   C59   A    
C84   C89   A    
C101  C118  S    
C87   H72   S    
C65   H1    S    
Cr5   O10   S    
C23   H70   S    
C42   H43   S    
C93   C97   S    
C48   C58   A    
C92   H5    S    
Cr9   O49   S    
C45   C106  S    
C75   C93   S    
Cr1   O40   S    
C14   C44   S    
Cr11  O48   S    
C23   H69   S    
C35   H36   S    
Cr3   O3    S    
Cr4   O30   S    
C26   H22   S    
Cr1   O14   S    
C83   C101  A    
C12   C30   A    
C18   H51   S    
C95   H13   S    
C24   C47   A    
C82   C100  S    
C83   H45   S    
Cr4   O13   S    
C98   H16   S    
C38   C99   S    
Cr1   O36   S    
Cr11  O26   S    
C33   O19   A    
C76   C81   A    
Cr8   O9    S    
C5    C8    D    
C98   H20   S    
C85   C90   A    
C16   C99   A    
C62   O28   A    
C36   H37   S    
C76   C94   S    
C113  O43   A    
C32   H29   S    
C109  O40   A    
C51   C116  S    
C22   H60   S    
C36   C77   S    
Cr7   O34   S    
C50   C60   A    
C21   H63   S    
C19   C20   S    
C44   O16   A    
C79   C96   S    
C2    C77   A    
C118  O36   A    
Cr12  O9    S    
C71   C75   A    
C65   F10   S    
C27   C45   A    
C57   C58   A    
C49   C57   A    
C39   H40   S    
C107  O23   A    
C109  O44   A    
C49   C53   A    
C35   C39   S    
C29   C34   A    
C13   C88   A    
Cr10  O20   S    
Cr12  O31   S    
C96   H18   S    
C5    C62   S    
C106  O12   A    
C73   C109  S    
C23   C25   S    
C37   C41   S    
C25   H66   S    
C53   C67   S    
C120  O38   A    
C7    C64   S    
C12   C55   S    
C19   C40   S    
C119  O6    A    
C112  O47   A    
Cr10  O50   S    
C38   C42   S    
C2    C40   S    
C28   H25   S    
C48   C52   A    
C100  H21   S    
Cr11  O51   S    
C47   C108  S    
C31   H28   S    
C108  O34   A    
C41   H42   S    
C82   C104  A    
C13   C46   A    
C79   C101  A    
C17   H52   S    
C111  O41   A    
C95   H8    S    
C10   F6    S    
C106  O32   A    
C4    C9    D    
C33   O15   A    
C69   F9    S    
Cr8   O44   S    
C52   C65   S    
C115  O49   A    
C52   C53   A    
C15   C88   A    
C18   H49   S    
Cr9   O46   S    
C63   O25   A    
