data_mof_unit_1425.cif
_audit_creation_date              2013-03-05T16:30:42-0500
_audit_creation_method            fapswitch 2.2
_symmetry_space_group_name_H-M    P1
_symmetry_Int_Tables_number       1
_space_group_crystal_system       triclinic
_cell_length_a                    10.890711
_cell_length_b                    10.828298
_cell_length_c                    9.593119
_cell_angle_alpha                 89.595219
_cell_angle_beta                  89.086664
_cell_angle_gamma                 90.836242
_cell_volume                      1131.00169698

loop_
_atom_site_label
_atom_site_type_symbol
_atom_site_description
_atom_site_fract_x
_atom_site_fract_y
_atom_site_fract_z
_atom_type_partial_charge
O1    O     O_R   0.500000 0.319640 0.618810 -0.551855
O2    O     O_R   0.500010 0.319680 0.381230 -0.545636
C1    C     C_R   0.506249 0.262476 0.500047 0.846527
O3    O     O_R   0.321940 0.499980 0.618760 -0.526278
O4    O     O_R   0.321950 0.500020 0.381180 -0.561969
C2    C     C_R   0.265690 0.508002 0.500830 0.922648
Cu1   Cu    Cu3+1 0.499990 0.499980 0.640670 1.023705
Cu2   Cu    Cu3+1 0.500010 0.500020 0.359330 1.031726
O5    O     O_R   0.499990 0.680320 0.618770 -0.585614
O6    O     O_R   0.500000 0.680360 0.381190 -0.573285
O7    O     O_R   0.678050 0.499980 0.618820 -0.601288
O8    O     O_R   0.678060 0.500020 0.381240 -0.573245
C3    C     C_R   0.503600 0.737349 0.499537 0.865174
C4    C     C_R   0.734567 0.499566 0.499264 0.857357
C5    C     C_2   0.932222 0.561273 0.403112 -0.198930
C6    C     C_2   0.866892 0.496634 0.498567 -0.331950
H1    H     H_    0.884561 0.615495 0.325942 0.176806
H2    H     H_    0.908311 0.441906 0.579528 0.159913
C7    C     C_2   0.067487 0.563367 0.396160 0.362210
C8    C     C_2   0.133502 0.523307 0.505302 -0.388077
H3    H     H_    0.090293 0.501691 0.605036 0.171254
C9    C     C_R   0.501081 0.061753 0.622756 -0.006322
C10   C     C_R   0.524435 0.129308 0.500361 -0.189772
C11   C     C_R   0.566587 0.064674 0.380519 0.340042
C12   C     C_R   0.559971 0.934983 0.380548 -0.259618
H4    H     H_    0.586562 0.885248 0.287482 0.194300
C13   C     C_R   0.518281 0.870192 0.499796 -0.097489
C14   C     C_R   0.499540 0.934886 0.622765 0.091424
C15   C     C_3   0.397005 0.926132 0.727605 0.193741
C16   C     C_3   0.396933 0.066383 0.725905 -0.367981
H5    H     H_    0.424587 0.883343 0.828062 0.133064
H6    H     H_    0.312732 0.105419 0.679843 0.246197
H7    H     H_    0.425526 0.106711 0.826769 0.217017
C17   C     C_R   0.594334 0.554397 0.071120 0.209145
N1    N     N_R   0.500780 0.500930 0.147930 -0.210750
C18   C     C_R   0.401247 0.459131 0.077883 -0.036142
H8    H     H_    0.323003 0.421760 0.135672 0.186244
C19   C     C_R   0.400011 0.459267 0.930191 0.403596
N2    N     N_R   0.500780 0.500890 0.852020 -0.247640
C20   C     C_R   0.594606 0.553769 0.924126 0.166349
C21   C     C_3   0.726245 0.518175 0.916730 -0.420527
C22   C     C_3   0.726384 0.520150 0.074530 -0.409193
H9    H     H_    0.739416 0.424173 0.873488 0.227740
H10   H     H_    0.785351 0.591826 0.868365 0.212869
H11   H     H_    0.741175 0.427769 0.122024 0.262312
H12   H     H_    0.784600 0.596028 0.115771 0.202982
N3    N     N_R   0.291534 0.413171 0.866189 0.134825
O9    O     O_R   0.185641 0.459501 0.900070 -0.329217
O10   O     O_R   0.294308 0.309135 0.800022 -0.385181
N4    N     N_R   0.125445 0.615893 0.273000 0.137195
O11   O     O_R   0.076972 0.597135 0.151750 -0.330071
O12   O     O_R   0.209394 0.701869 0.284539 -0.326745
N5    N     N_R   0.616182 0.127824 0.259637 0.138094
O13   O     O_R   0.701814 0.211655 0.273800 -0.361284
O14   O     O_R   0.592664 0.086824 0.135549 -0.368167
O15   O     O_3   0.290146 0.874753 0.670859 -0.680746
H13   H     H_    0.228145 0.873142 0.747746 0.350513

loop_
_geom_bond_atom_site_label_1
_geom_bond_atom_site_label_2
_geom_bond_distance
_ccdc_geom_bond_type
O4    Cu2   1.947171 S    
N4    O12   1.301800 A    
C10   C11   1.423442 A    
O6    C3    1.296883 A    
C11   C12   1.405129 A    
C15   C16   1.518657 S    
C15   O15   1.402075 S    
N3    O10   1.297451 A    
C2    C8    1.451524 S    
C21   C22   1.514123 S    
C1    C10   1.458370 S    
C7    C8    1.352030 D    
C17   C22   1.491196 S    
Cu2   O8    1.953777 S    
C18   C19   1.417088 A    
N4    O11   1.301025 A    
C12   H4    1.083547 S    
Cu1   Cu2   2.698922 S    
C15   H5    1.113825 S    
C9    C14   1.373611 A    
N5    O13   1.301251 A    
C8    H3    1.082075 S    
C5    C7    1.473407 S    
C21   H9    1.112240 S    
C7    N4    1.440174 S    
C14   C15   1.492395 S    
C19   N3    1.425491 S    
O4    C2    1.296496 A    
O3    Cu1   1.953777 S    
C17   C20   1.410152 A    
O3    C2    1.298055 A    
C20   C21   1.490700 S    
C21   H10   1.111716 S    
O8    C4    1.297259 A    
O2    C1    1.296623 A    
N5    O14   1.301384 A    
C19   N2    1.387245 A    
O7    C4    1.293037 A    
C4    C6    1.441832 S    
C12   C13   1.403498 A    
C5    C6    1.338017 D    
C16   H6    1.111941 S    
N3    O9    1.301747 A    
Cu1   O5    1.962567 S    
N2    C20   1.364380 A    
O15   H13   0.991903 S    
C6    H2    1.081826 S    
C17   N1    1.367135 A    
C22   H12   1.109482 S    
O2    Cu2   1.962567 S    
C13   C14   1.390023 A    
C5    H1    1.084997 S    
Cu1   N2    2.027754 S    
C9    C10   1.396908 A    
C18   H8    1.081171 S    
Cu1   O7    1.947170 S    
O5    C3    1.295791 A    
C9    C16   1.494913 S    
C16   H7    1.111538 S    
C11   N5    1.436012 S    
O1    Cu1   1.965478 S    
Cu2   N1    2.027824 S    
Cu2   O6    1.965477 S    
C3    C13   1.445020 S    
N1    C18   1.358167 A    
O1    C1    1.301737 A    
C22   H11   1.111217 S    
