data_mof_unit_1468.cif
_audit_creation_date              2012-12-11T15:36:32-0500
_audit_creation_method            fapswitch 2.2
_symmetry_space_group_name_H-M    P1
_symmetry_Int_Tables_number       1
_space_group_crystal_system       triclinic
_cell_length_a                    15.05789
_cell_length_b                    15.086178
_cell_length_c                    34.865318
_cell_angle_alpha                 91.29465
_cell_angle_beta                  91.749539
_cell_angle_gamma                 60.08899
_cell_volume                      6861.80135841

loop_
_atom_site_label
_atom_site_type_symbol
_atom_type_description
_atom_site_fract_x
_atom_site_fract_y
_atom_site_fract_z
_atom_type_partial_charge
C1    C     C_R   0.610741 0.302646 0.444051 0.543445
C2    C     C_R   0.741912 0.687017 0.182748 0.031143
C3    C     C_R   0.623981 0.138682 0.828443 0.006862
C4    C     C_R   0.684074 0.167872 0.850785 -0.131454
C5    C     C_R   0.709184 0.136197 0.888712 -0.155035
C6    C     C_R   0.586237 0.251506 0.771939 -0.103633
C7    C     C_R   0.585622 0.265382 0.732282 0.030607
C8    C     C_R   0.616038 0.180009 0.707364 0.030561
C9    C     C_R   0.640580 0.084859 0.722191 -0.134410
C10   C     C_R   0.639221 0.072618 0.761583 -0.123912
C11   C     C_R   0.613972 0.155317 0.786726 0.010530
C12   C     C_R   0.547218 0.197794 0.640756 -0.131333
C13   C     C_R   0.826924 0.620507 0.160940 -0.123705
C14   C     C_R   0.545614 0.225780 0.602806 -0.128478
C15   C     C_R   0.704796 0.226748 0.614522 -0.130370
C16   C     C_R   0.706282 0.198612 0.652459 -0.119250
C17   C     C_R   0.625237 0.188440 0.666025 0.023060
C18   C     C_R   0.621972 0.245057 0.589826 0.020806
C19   C     C_R   0.045325 0.739182 0.048620 0.539748
C20   C     C_R   0.747390 0.746764 0.064099 0.542138
C21   C     C_R   0.751347 0.040167 0.050724 0.538577
C22   C     C_R   0.017375 0.722326 0.939885 0.546170
C23   C     C_R   0.717087 0.729979 0.955004 0.550129
C24   C     C_R   0.826549 0.635643 0.121553 -0.127577
C25   C     C_R   0.721490 0.023714 0.941828 0.560510
C26   C     C_R   0.775413 0.582025 0.241337 -0.117279
C27   C     C_R   0.766254 0.575231 0.280698 -0.114393
C28   C     C_R   0.726306 0.663442 0.304060 0.029655
C29   C     C_R   0.700829 0.757561 0.287659 -0.118190
C30   C     C_R   0.709366 0.764398 0.248297 -0.117500
C31   C     C_R   0.744030 0.677178 0.224733 0.027056
C32   C     C_R   0.605912 0.733591 0.358580 -0.119260
C33   C     C_R   0.593379 0.610106 0.449402 0.544643
C34   C     C_R   0.573404 0.720914 0.393998 -0.126508
C35   C     C_R   0.732783 0.561313 0.402537 -0.126666
C36   C     C_R   0.765414 0.574202 0.367158 -0.121663
C37   C     C_R   0.700803 0.658687 0.344275 0.032799
C38   C     C_R   0.635001 0.632835 0.415665 0.021600
C39   C     C_R   0.101508 0.728996 0.085166 0.021477
C40   C     C_R   0.147978 0.635006 0.104396 -0.126061
C41   C     C_R   0.170649 0.630934 0.143535 -0.122520
C42   C     C_R   0.148606 0.720380 0.163988 0.030147
C43   C     C_R   0.112898 0.812296 0.144163 -0.122123
C44   C     C_R   0.303920 0.591430 0.442385 0.542377
C45   C     C_R   0.089332 0.816674 0.104894 -0.128138
C46   C     C_R   0.207661 0.755946 0.227328 -0.118426
C47   C     C_R   0.215241 0.747767 0.267290 -0.114953
C48   C     C_R   0.166055 0.703860 0.286685 0.028978
C49   C     C_R   0.106123 0.671950 0.265420 -0.118912
C50   C     C_R   0.099789 0.678856 0.225567 -0.116364
C51   C     C_R   0.152130 0.718969 0.206215 0.026408
C52   C     C_R   0.200715 0.589851 0.342808 -0.120278
C53   C     C_R   0.232401 0.563176 0.380846 -0.126773
C54   C     C_R   0.227257 0.724857 0.391476 -0.127386
C55   C     C_R   0.605764 0.300042 0.553569 0.542661
C56   C     C_R   0.194879 0.751838 0.353435 -0.122044
C57   C     C_R   0.184608 0.683135 0.328365 0.033006
C58   C     C_R   0.249567 0.628809 0.405179 0.021442
C59   C     C_R   0.725105 0.096984 0.087319 0.024361
C60   C     C_R   0.800964 0.104952 0.109042 -0.126630
C61   C     C_R   0.785907 0.132405 0.147738 -0.123225
C62   C     C_R   0.694481 0.153305 0.165091 0.031622
C63   C     C_R   0.615143 0.154561 0.142523 -0.119998
C64   C     C_R   0.630403 0.126424 0.103926 -0.125779
C65   C     C_R   0.594637 0.239152 0.223666 -0.117786
C66   C     C_R   0.587644 0.606617 0.559007 0.541444
C67   C     C_R   0.585119 0.245602 0.263403 -0.114640
C68   C     C_R   0.666103 0.176331 0.287231 0.028272
C69   C     C_R   0.756612 0.100239 0.270610 -0.119627
C70   C     C_R   0.766231 0.094015 0.230879 -0.116152
C71   C     C_R   0.685478 0.163698 0.207113 0.028495
C72   C     C_R   0.740271 0.183631 0.351318 -0.119669
C73   C     C_R   0.727319 0.212984 0.389822 -0.125167
C74   C     C_R   0.552846 0.244831 0.385763 -0.129227
C75   C     C_R   0.565864 0.215465 0.347215 -0.124160
C76   C     C_R   0.658295 0.188686 0.329306 0.031792
C77   C     C_R   0.298378 0.588934 0.551809 0.543372
C78   C     C_R   0.632063 0.248141 0.406926 0.021563
C79   C     C_R   0.691508 0.690047 0.919898 0.024938
C80   C     C_R   0.766925 0.600023 0.902357 -0.129157
C81   C     C_R   0.754437 0.577946 0.864168 -0.123917
C82   C     C_R   0.666788 0.645921 0.842765 0.033167
C83   C     C_R   0.586917 0.730077 0.861591 -0.119417
C84   C     C_R   0.598774 0.751260 0.899924 -0.115880
C85   C     C_R   0.570194 0.665866 0.780634 -0.120804
C86   C     C_R   0.565523 0.667555 0.740646 -0.126465
C87   C     C_R   0.654260 0.637730 0.719579 0.021556
C88   C     C_R   0.740832 0.717190 0.103464 0.021823
C89   C     C_R   0.747955 0.605320 0.739131 -0.117290
C90   C     C_R   0.752378 0.605387 0.779157 -0.113962
C91   C     C_R   0.663399 0.636205 0.800396 0.029449
C92   C     C_R   0.718283 0.550309 0.656466 -0.127955
C93   C     C_R   0.703397 0.543467 0.617023 -0.128440
C94   C     C_R   0.554372 0.713415 0.618228 -0.126903
C95   C     C_R   0.568941 0.719874 0.657630 -0.122797
C96   C     C_R   0.648786 0.637009 0.677261 0.026594
C97   C     C_R   0.618900 0.623452 0.597797 0.021206
C98   C     C_R   0.069570 0.697504 0.903088 0.024175
C99   C     C_R   0.653679 0.779669 0.125083 -0.124438
C100  C     C_R   0.097033 0.765091 0.887355 -0.126114
C101  C     C_R   0.129328 0.752130 0.849679 -0.123282
C102  C     C_R   0.134301 0.671645 0.827179 0.031662
C103  C     C_R   0.113816 0.599923 0.843719 -0.121691
C104  C     C_R   0.081883 0.612614 0.881498 -0.126984
C105  C     C_R   0.213540 0.574512 0.767226 -0.122317
C106  C     C_R   0.222882 0.570818 0.727576 -0.121502
C107  C     C_R   0.169892 0.660584 0.705937 0.030034
C108  C     C_R   0.108802 0.754336 0.724438 -0.118501
C109  C     C_R   0.099106 0.758007 0.764083 -0.115742
C110  C     C_R   0.654420 0.764911 0.164363 -0.120468
C111  C     C_R   0.151027 0.668043 0.785734 0.030112
C112  C     C_R   0.207374 0.722559 0.646469 -0.123579
C113  C     C_R   0.237089 0.706249 0.608350 -0.129065
C114  C     C_R   0.207045 0.562496 0.604561 -0.127095
C115  C     C_R   0.177748 0.578649 0.642649 -0.124250
C116  C     C_R   0.182023 0.655933 0.664245 0.030524
C117  C     C_R   0.241772 0.623033 0.587689 0.021974
C118  C     C_R   0.673838 0.075623 0.905195 0.046906
C119  C     C_R   0.605390 0.053771 0.883734 0.095882
C120  C     C_R   0.582128 0.084804 0.845323 -0.102295
Cr1   Cr    Cr6+3 0.426010 0.422500 0.497000 1.007866
Cr2   Cr    Cr6+3 0.651300 0.426310 0.501970 1.008774
Cr3   Cr    Cr6+3 0.422670 0.651170 0.501050 1.008541
Cr4   Cr    Cr6+3 0.905130 0.911420 0.992650 1.009686
Cr5   Cr    Cr6+3 0.911860 0.682710 0.002320 1.009202
Cr6   Cr    Cr6+3 0.682710 0.906840 0.004710 1.018503
H1    H     H_    0.586342 0.842937 0.112016 0.128101
H2    H     H_    0.497721 0.777372 0.403365 0.126520
H3    H     H_    0.895074 0.559718 0.174629 0.099389
H4    H     H_    0.782435 0.493114 0.418815 0.123500
H5    H     H_    0.159231 0.565984 0.089916 0.123677
H6    H     H_    0.053415 0.890264 0.090890 0.122867
H7    H     H_    0.181027 0.825092 0.343319 0.098692
H8    H     H_    0.263063 0.771883 0.282800 0.102809
H9    H     H_    0.248128 0.787508 0.212812 0.104112
H10   H     H_    0.199999 0.558932 0.158331 0.103368
H11   H     H_    0.065523 0.639957 0.279545 0.105707
H12   H     H_    0.895053 0.586547 0.105689 0.126076
H13   H     H_    0.054499 0.652114 0.209721 0.110127
H14   H     H_    0.194687 0.534604 0.324181 0.099382
H15   H     H_    0.249320 0.488463 0.390455 0.124397
H16   H     H_    0.095814 0.882025 0.159545 0.100851
H17   H     H_    0.239168 0.777380 0.409634 0.121543
H18   H     H_    0.874761 0.082622 0.097009 0.121252
H19   H     H_    0.570507 0.121296 0.087767 0.118011
H20   H     H_    0.502219 0.217923 0.330968 0.099858
H21   H     H_    0.515327 0.306405 0.275532 0.106714
H22   H     H_    0.531565 0.293832 0.205872 0.103532
H23   H     H_    0.839631 0.516247 0.357063 0.100651
H24   H     H_    0.847448 0.132716 0.164550 0.101063
H25   H     H_    0.819749 0.045430 0.288343 0.105684
H26   H     H_    0.836173 0.033600 0.218673 0.109377
H27   H     H_    0.812263 0.163560 0.338197 0.101839
H28   H     H_    0.789984 0.214143 0.405473 0.126373
H29   H     H_    0.543987 0.170344 0.155299 0.101039
H30   H     H_    0.478728 0.270932 0.398226 0.124121
H31   H     H_    0.838678 0.550307 0.917203 0.121829
H32   H     H_    0.538512 0.820266 0.912858 0.134292
H33   H     H_    0.515475 0.788178 0.673062 0.103275
H34   H     H_    0.785199 0.501878 0.292453 0.104744
H35   H     H_    0.492776 0.690371 0.726100 0.106346
H36   H     H_    0.500684 0.688295 0.796053 0.101933
H37   H     H_    0.815872 0.510583 0.850823 0.097495
H38   H     H_    0.817240 0.582257 0.723435 0.104858
H39   H     H_    0.825017 0.584401 0.793400 0.103708
H40   H     H_    0.780269 0.485310 0.671083 0.100019
H41   H     H_    0.754289 0.473034 0.602138 0.123596
H42   H     H_    0.518275 0.784156 0.846073 0.096074
H43   H     H_    0.488835 0.776601 0.604269 0.125473
H44   H     H_    0.089476 0.830458 0.903607 0.121763
H45   H     H_    0.802109 0.513926 0.223620 0.104403
H46   H     H_    0.061093 0.559461 0.892960 0.124858
H47   H     H_    0.156301 0.527833 0.655791 0.103933
H48   H     H_    0.272373 0.498004 0.713813 0.101129
H49   H     H_    0.255076 0.504459 0.783424 0.101521
H50   H     H_    0.146811 0.807119 0.837661 0.100705
H51   H     H_    0.067321 0.824241 0.708147 0.103377
H52   H     H_    0.048903 0.830788 0.777700 0.106433
H53   H     H_    0.210977 0.782746 0.662746 0.101211
H54   H     H_    0.263175 0.754312 0.596026 0.125571
H55   H     H_    0.116550 0.537550 0.826798 0.101241
H56   H     H_    0.587155 0.815656 0.180578 0.104443
H57   H     H_    0.208720 0.498524 0.589172 0.127162
H58   H     H_    0.760769 0.154804 0.904613 0.126498
H59   H     H_    0.767624 0.190220 0.671793 0.106292
H60   H     H_    0.564963 0.315819 0.791344 0.106240
H61   H     H_    0.533941 0.064130 0.828111 0.099079
H62   H     H_    0.663210 0.019456 0.703266 0.115069
H63   H     H_    0.661708 0.997531 0.772567 0.117449
H64   H     H_    0.484480 0.189651 0.651006 0.106761
H65   H     H_    0.671561 0.826340 0.305111 0.105214
H66   H     H_    0.481101 0.238673 0.584389 0.124887
H67   H     H_    0.717047 0.209611 0.838182 0.112297
H68   H     H_    0.764776 0.240728 0.605364 0.124333
H69   H     H_    0.686806 0.838266 0.236081 0.110266
H70   H     H_    0.553959 0.799000 0.341405 0.101789
O1    O     O_R   0.324990 0.503440 0.453910 -0.521267
O2    O     O_R   0.639980 0.519500 0.542640 -0.502857
O3    O     O_R   0.500750 0.673190 0.545480 -0.520944
O4    O     O_R   0.336260 0.640450 0.538210 -0.503440
O5    O     O_3   0.499990 0.499990 0.500010 -0.234041
O6    O     O_R   0.834210 0.019400 0.034570 -0.523557
O7    O     O_R   0.002210 0.824620 0.031030 -0.503718
O8    O     O_R   0.024400 0.669340 0.039790 -0.520043
O9    O     O_R   0.830490 0.694950 0.045870 -0.503077
O10   O     O_R   0.675430 0.831160 0.051290 -0.521345
O11   O     O_R   0.698870 0.998880 0.039560 -0.504498
O12   O     O_R   0.522030 0.339050 0.458320 -0.503254
O13   O     O_R   0.811290 0.006780 0.950620 -0.523910
O14   O     O_R   0.980960 0.812920 0.953200 -0.500154
O15   O     O_R   0.001480 0.656720 0.955830 -0.521039
O16   O     O_R   0.809240 0.683250 0.968050 -0.504132
O17   O     O_R   0.652500 0.818540 0.967340 -0.503518
O18   O     O_R   0.677620 0.987170 0.961730 -0.474064
O19   O     O_3   0.833240 0.833660 0.999890 -0.235995
O20   O     O_R   0.676180 0.324490 0.458320 -0.519389
O21   O     O_R   0.643570 0.521510 0.464260 -0.501846
O22   O     O_R   0.504630 0.675350 0.460920 -0.519646
O23   O     O_R   0.339850 0.642450 0.459830 -0.501507
O24   O     O_R   0.321120 0.501280 0.538470 -0.520556
O25   O     O_R   0.518440 0.337050 0.536710 -0.502152
O26   O     O_R   0.672300 0.322330 0.542880 -0.520930
N1    N     N_3   0.565039 0.994796 0.899967 -0.595855
H71   H     H_    0.526520 0.975399 0.878933 0.205697
H72   H     H_    0.509975 0.041932 0.919732 0.226379
C121  C     C_3   0.550468 0.371809 0.717611 -0.281488
C122  C     C_3   0.632017 0.402294 0.725011 -0.432429
H73   H     H_    0.642891 0.410350 0.756287 0.152672
H74   H     H_    0.706129 0.344601 0.712681 0.147405
H75   H     H_    0.607063 0.476565 0.711069 0.158853
H76   H     H_    0.531481 0.378019 0.686424 0.162241
H77   H     H_    0.478804 0.427618 0.732094 0.136138

loop_
_geom_bond_atom_site_label_1
_geom_bond_atom_site_label_2
_ccdc_geom_bond_type
C8    C9    A    
C15   C18   A    
C59   C60   A    
Cr5   O8    S    
C101  C102  A    
C22   C98   S    
Cr2   O21   S    
C49   H11   S    
C64   H19   S    
C106  H48   S    
C41   C42   A    
C14   C18   A    
C105  C106  A    
C95   C96   A    
C20   O10   A    
C72   C76   A    
C9    H62   S    
C25   C118  S    
C49   C50   A    
C56   H7    S    
Cr5   O15   S    
C7    C8    A    
C33   O22   A    
C56   C57   A    
C59   C64   A    
C62   C63   A    
C95   H33   S    
C115  H47   S    
C66   C97   S    
Cr3   O3    S    
C36   C37   A    
C21   C59   S    
C77   C117  S    
C16   H59   S    
C109  C111  A    
C94   H43   S    
C54   C58   A    
C79   C84   A    
C80   C81   A    
C121  H77   S    
C36   H23   S    
C106  C107  A    
C15   C16   A    
C20   C88   S    
C92   C96   A    
C108  C109  A    
Cr2   O5    S    
C1    O12   A    
C2    C13   A    
C118  C119  A    
C92   C93   A    
Cr6   O18   S    
C46   H9    S    
C15   H68   S    
C109  H52   S    
C2    C110  A    
C83   C84   A    
C44   C58   S    
C16   C17   A    
C65   C67   A    
C12   C17   A    
C62   C71   S    
C48   C49   A    
C107  C108  A    
C29   H65   S    
C70   C71   A    
C61   H24   S    
C89   H38   S    
C66   O3    A    
C32   H70   S    
C42   C51   S    
C39   C45   A    
C14   H66   S    
C54   H17   S    
C105  C111  A    
C80   H31   S    
C44   O1    A    
C63   C64   A    
C34   C38   A    
C87   C96   S    
C114  H57   S    
C1    C78   S    
C81   H37   S    
C102  C111  S    
C94   C95   A    
C44   O23   A    
Cr2   O26   S    
C20   O9    A    
C9    C10   A    
C19   O7    A    
C112  C113  A    
Cr5   O16   S    
C25   O18   A    
C114  C115  A    
C75   H20   S    
C85   C91   A    
C4    H67   S    
C54   C56   A    
C10   H63   S    
C74   C75   A    
Cr3   O5    S    
Cr4   O7    S    
C100  H44   S    
C102  C103  A    
C69   H25   S    
C47   C48   A    
Cr3   O4    S    
C48   C57   S    
C35   C38   A    
C70   H26   S    
N1    H71   S    
C10   C11   A    
C6    C11   A    
C84   H32   S    
C86   C87   A    
C68   C69   A    
C99   H1    S    
C94   C97   A    
C24   H12   S    
C27   H34   S    
C85   C86   A    
C99   C110  A    
C85   H36   S    
C46   C51   A    
C81   C82   A    
C82   C91   S    
C67   C68   A    
C13   C24   A    
Cr4   O6    S    
C60   C61   A    
C35   C36   A    
C32   C34   A    
C73   H28   S    
C75   C76   A    
C29   C30   A    
Cr6   O17   S    
C24   C88   A    
C122  H73   S    
C115  C116  A    
Cr6   O11   S    
C73   C78   A    
C22   O15   A    
C122  H75   S    
C1    O20   A    
C119  N1    S    
C50   C51   A    
C26   C27   A    
C119  C120  A    
C74   H30   S    
C86   H35   S    
C32   C37   A    
Cr2   O2    S    
C65   H22   S    
C25   O13   A    
C43   C45   A    
C35   H4    S    
Cr1   O1    S    
C66   O2    A    
C19   C39   S    
C18   C55   S    
C55   O26   A    
C113  C117  A    
C40   C41   A    
C122  H74   S    
C40   H5    S    
C12   C14   A    
C26   H45   S    
C82   C83   A    
C98   C100  A    
C87   C89   A    
C47   H8    S    
C74   C78   A    
Cr1   O24   S    
C42   C43   A    
C3    C4    A    
C120  H61   S    
C93   C97   A    
C104  H46   S    
C112  C116  A    
C110  H56   S    
C52   C57   A    
C50   H13   S    
C23   O17   A    
Cr3   O23   S    
C46   C47   A    
C28   C29   A    
C13   H3    S    
C72   H27   S    
C5    H58   S    
C103  H55   S    
C21   O6    A    
Cr3   O22   S    
C23   O16   A    
C33   C38   S    
C72   C73   A    
C43   H16   S    
C105  H49   S    
C53   C58   A    
N1    H72   S    
C77   O24   A    
C6    C7    A    
C7    C121  S    
C33   O21   A    
C68   C76   S    
C12   H64   S    
C83   H42   S    
C6    H60   S    
C112  H53   S    
C8    C17   S    
C55   O25   A    
C5    C118  A    
C21   O11   A    
Cr1   O5    S    
C90   H39   S    
C30   H69   S    
C65   C71   A    
C60   H18   S    
C67   H21   S    
Cr5   O19   S    
C90   C91   A    
C30   C31   A    
Cr4   O14   S    
C28   C37   S    
Cr6   O10   S    
C98   C104  A    
C4    C5    A    
C22   O14   A    
Cr5   O9    S    
C19   O8    A    
C52   H14   S    
Cr2   O20   S    
C108  H51   S    
C53   H15   S    
C61   C62   A    
C77   O4    A    
C69   C70   A    
C107  C116  S    
C88   C99   A    
C3    C11   S    
C3    C120  A    
Cr6   O19   S    
C63   H29   S    
C79   C80   A    
C39   C40   A    
C92   H40   S    
C26   C31   A    
C113  H54   S    
C93   H41   S    
C45   H6    S    
C34   H2    S    
C121  C122  S    
Cr4   O13   S    
C103  C104  A    
Cr1   O25   S    
C2    C31   S    
C101  H50   S    
C100  C101  A    
C114  C117  A    
Cr1   O12   S    
C23   C79   S    
C89   C90   A    
C41   H10   S    
C121  H76   S    
C52   C53   A    
C27   C28   A    
Cr4   O19   S    
