data_mof_unit_413.cif
_audit_creation_date              2012-12-10T19:04:13-0500
_audit_creation_method            fapswitch 2.2
_symmetry_space_group_name_H-M    P1
_symmetry_Int_Tables_number       1
_space_group_crystal_system       triclinic
_cell_length_a                    10.62681
_cell_length_b                    10.830818
_cell_length_c                    9.555415
_cell_angle_alpha                 89.462773
_cell_angle_beta                  89.564295
_cell_angle_gamma                 90.618829
_cell_volume                      1099.65488603

loop_
_atom_site_label
_atom_site_type_symbol
_atom_type_description
_atom_site_fract_x
_atom_site_fract_y
_atom_site_fract_z
_atom_type_partial_charge
C1    C     C_R   0.501604 0.262399 0.500680 0.793920
C2    C     C_3   0.960884 0.487728 0.367812 -0.123015
C3    C     C_3   0.041901 0.392514 0.446624 -0.192727
C4    C     C_3   0.122466 0.499244 0.501893 -0.006373
C5    C     C_R   0.489967 0.061853 0.625737 0.089677
C6    C     C_R   0.511991 0.129364 0.502462 -0.116664
C7    C     C_R   0.548565 0.066338 0.381016 -0.158234
C8    C     C_R   0.547730 0.937572 0.380068 -0.161520
C9    C     C_R   0.508664 0.870905 0.499685 -0.062198
C10   C     C_R   0.484770 0.934872 0.622802 0.007335
C11   C     C_3   0.374941 0.928195 0.721747 0.044625
C12   C     C_R   0.259329 0.499754 0.500577 0.816890
C13   C     C_3   0.383785 0.068303 0.728958 0.044419
C14   C     C_R   0.595317 0.556967 0.072188 0.239366
C15   C     C_R   0.411063 0.436642 0.075775 -0.028177
C16   C     C_R   0.410488 0.437506 0.927060 0.000461
C17   C     C_R   0.595883 0.555659 0.924598 0.222224
C18   C     C_3   0.632519 0.688288 0.913991 -0.491273
C19   C     C_3   0.627448 0.691760 0.072351 -0.070409
C20   C     C_R   0.500892 0.737593 0.499478 0.851545
C21   C     C_R   0.740732 0.499236 0.499561 0.802224
C22   C     C_3   0.039472 0.509636 0.633181 -0.118854
C23   C     C_3   0.956484 0.402965 0.577655 -0.168845
C24   C     C_3   0.877732 0.498380 0.498905 -0.005893
C25   C     C_3   0.958421 0.604982 0.554410 -0.119172
C26   C     C_3   0.043692 0.594533 0.423301 -0.098411
Cu1   Cu    Cu3+1 0.499990 0.499980 0.640670 0.978685
Cu2   Cu    Cu3+1 0.500010 0.500020 0.359330 0.973751
H1    H     H_    0.917654 0.324559 0.640625 0.157661
H2    H     H_    0.396803 0.880256 0.821603 0.170170
H3    H     H_    0.300682 0.118227 0.688033 0.160043
H4    H     H_    0.338048 0.386512 0.132503 0.155174
H5    H     H_    0.336644 0.388668 0.872517 0.156575
H6    H     H_    0.728344 0.700766 0.868299 0.220729
H7    H     H_    0.559430 0.745964 0.864778 0.202583
H8    H     H_    0.548265 0.748130 0.111661 0.164249
H9    H     H_    0.074347 0.518684 0.741880 0.159121
H10   H     H_    0.921139 0.691921 0.598346 0.164643
H11   H     H_    0.082517 0.672983 0.360389 0.180320
H12   H     H_    0.926617 0.477336 0.259088 0.173175
H13   H     H_    0.079317 0.305631 0.402709 0.153908
H14   H     H_    0.573639 0.116030 0.285741 0.194260
H15   H     H_    0.573505 0.891080 0.284904 0.179446
N1    N     N_R   0.500800 0.500930 0.147930 -0.210818
N2    N     N_R   0.500800 0.500890 0.852020 -0.190066
O1    O     O_R   0.500000 0.319640 0.618810 -0.556302
O2    O     O_R   0.500010 0.319680 0.381230 -0.580663
O3    O     O_R   0.316850 0.499950 0.618770 -0.583668
O4    O     O_R   0.316860 0.499990 0.381190 -0.590675
O5    O     O_R   0.499990 0.680320 0.618770 -0.581561
O6    O     O_R   0.500000 0.680360 0.381190 -0.583518
O7    O     O_R   0.683140 0.500010 0.618810 -0.583449
O8    O     O_R   0.683150 0.500050 0.381230 -0.566303
Br1   Br    Br    0.442596 0.123227 0.910150 -0.555587
I1    I     I_    0.806404 0.732869 0.162743 -0.403636
Br2   Br    Br    0.220178 0.870605 0.634706 -0.549166

loop_
_geom_bond_atom_site_label_1
_geom_bond_atom_site_label_2
_ccdc_geom_bond_type
Cu1   O3    S    
C16   N2    A    
C4    C26   S    
C23   C24   S    
C8    H15   S    
Cu2   O2    S    
C6    C7    A    
C16   H5    S    
C4    C12   S    
C4    C22   S    
Cu2   O4    S    
C9    C20   S    
C5    C13   S    
Cu1   O5    S    
C12   O3    A    
Cu1   N2    S    
C12   O4    A    
C15   H4    S    
C2    C26   S    
C24   C25   S    
Cu2   O8    S    
C21   O8    A    
C11   C13   S    
C14   C17   A    
C26   H11   S    
C15   C16   A    
C23   H1    S    
Cu1   O1    S    
C5    C10   A    
Cu2   N1    S    
C15   N1    A    
C17   C18   S    
C20   O6    A    
C2    C3    S    
C19   H8    S    
C18   H6    S    
C2    C24   S    
C5    C6    A    
C25   H10   S    
Cu2   O6    S    
C1    O1    A    
C21   C24   S    
C10   C11   S    
C17   N2    A    
C3    C4    S    
C9    C10   A    
C2    H12   S    
C7    C8    A    
Cu1   O7    S    
C14   N1    A    
C13   Br1   S    
C18   H7    S    
C7    H14   S    
C19   I1    S    
Cu1   Cu2   S    
C22   C23   S    
C18   C19   S    
C20   O5    A    
C25   C26   S    
C22   H9    S    
C3    C23   S    
C14   C19   S    
C13   H3    S    
C21   O7    A    
C3    H13   S    
C11   Br2   S    
C1    C6    S    
C11   H2    S    
C1    O2    A    
C8    C9    A    
C22   C25   S    
