data_mof_unit_4137.cif
_audit_creation_date              2012-12-11T16:19:02-0500
_audit_creation_method            fapswitch 2.2
_symmetry_space_group_name_H-M    P1
_symmetry_Int_Tables_number       1
_space_group_crystal_system       triclinic
_cell_length_a                    6.909813
_cell_length_b                    31.437627
_cell_length_c                    34.994198
_cell_angle_alpha                 89.99998
_cell_angle_beta                  89.999729
_cell_angle_gamma                 90.0
_cell_volume                      7601.72397302

loop_
_atom_site_label
_atom_site_type_symbol
_atom_type_description
_atom_site_fract_x
_atom_site_fract_y
_atom_site_fract_z
_atom_type_partial_charge
O1    O     O_R   0.417270 0.211480 0.210950 -0.532664
O2    O     O_R   0.582730 0.788520 0.789050 -0.537690
O3    O     O_R   0.582730 0.788520 0.710950 -0.532664
O4    O     O_R   0.417270 0.211480 0.289050 -0.537690
O5    O     O_R   0.917270 0.288520 0.289050 -0.532664
O6    O     O_R   0.082730 0.711480 0.710950 -0.537690
O7    O     O_R   0.082730 0.711480 0.789050 -0.532664
O8    O     O_R   0.917270 0.288520 0.210950 -0.537690
O9    O     O_R   0.746940 0.206370 0.288750 -0.532171
O10   O     O_R   0.253060 0.793630 0.711250 -0.540797
O11   O     O_R   0.253060 0.793630 0.788750 -0.532171
O12   O     O_R   0.746940 0.206370 0.211250 -0.540798
O13   O     O_R   0.246940 0.293630 0.211250 -0.532171
O14   O     O_R   0.753060 0.706370 0.788750 -0.540797
O15   O     O_R   0.753060 0.706370 0.711250 -0.532171
O16   O     O_R   0.246940 0.293630 0.288750 -0.540797
C1    C     C_R   0.578039 0.196761 0.302778 0.734070
C2    C     C_R   0.421549 0.803299 0.697286 0.733159
C3    C     C_R   0.421960 0.803239 0.802778 0.734069
C4    C     C_R   0.578451 0.196701 0.197286 0.733157
C5    C     C_R   0.078040 0.303239 0.197222 0.734070
C6    C     C_R   0.921549 0.696701 0.802714 0.733157
C7    C     C_R   0.921960 0.696761 0.697222 0.734069
C8    C     C_R   0.078451 0.303299 0.302714 0.733158
O17   O     O_3   0.583760 0.276950 0.250000 -0.364454
O18   O     O_3   0.416240 0.723050 0.750000 -0.364455
O19   O     O_3   0.083760 0.223050 0.250000 -0.364455
O20   O     O_3   0.916240 0.776950 0.750000 -0.364454
V1    V     V_3+5 0.858600 0.245000 0.250000 1.481337
V2    V     V_3+5 0.141400 0.755000 0.750000 1.481338
V3    V     V_3+5 0.358600 0.255000 0.250000 1.481338
V4    V     V_3+5 0.641400 0.745000 0.750000 1.481338
C9    C     C_R   0.935852 0.587028 0.538119 0.609925
C10   C     C_R   0.003400 0.412127 0.461582 0.615381
C11   C     C_R   0.064128 0.412972 0.038118 0.609927
C12   C     C_R   0.996622 0.587873 0.961581 0.615383
C13   C     C_R   0.435854 0.912972 0.961882 0.609925
C14   C     C_R   0.503395 0.087873 0.038418 0.615381
C15   C     C_R   0.564137 0.087028 0.461882 0.609925
C16   C     C_R   0.496614 0.912127 0.538419 0.615382
N1    N     N_R   0.941544 0.572699 0.575160 -0.560764
N2    N     N_R   0.009458 0.426646 0.424598 -0.559925
N3    N     N_R   0.058458 0.427301 0.075160 -0.560762
N4    N     N_R   0.990542 0.573354 0.924597 -0.559926
N5    N     N_R   0.441541 0.927301 0.924840 -0.560763
N6    N     N_R   0.509459 0.073354 0.075402 -0.559925
N7    N     N_R   0.558456 0.072699 0.424840 -0.560763
N8    N     N_R   0.490544 0.926646 0.575403 -0.559925
C17   C     C_R   0.950932 0.530014 0.583095 0.576597
C18   C     C_R   0.993685 0.469242 0.416651 0.579520
C19   C     C_R   0.049094 0.469986 0.083095 0.576599
C20   C     C_R   0.006291 0.530758 0.916651 0.579520
C21   C     C_R   0.450923 0.969986 0.916905 0.576599
C22   C     C_R   0.493692 0.030758 0.083349 0.579521
C23   C     C_R   0.549081 0.030014 0.416905 0.576600
C24   C     C_R   0.506303 0.969242 0.583349 0.579520
C25   C     C_R   0.959424 0.499953 0.553227 -0.035123
C26   C     C_R   0.974663 0.499125 0.446467 -0.035013
C27   C     C_R   0.040601 0.500046 0.053226 -0.035124
C28   C     C_R   0.025313 0.500874 0.946466 -0.035014
C29   C     C_R   0.459416 0.000046 0.946774 -0.035124
C30   C     C_R   0.474670 0.000875 0.053533 -0.035013
C31   C     C_R   0.540589 0.999954 0.446774 -0.035125
C32   C     C_R   0.525325 0.999125 0.553534 -0.035014
C33   C     C_R   0.958737 0.514297 0.515082 -0.015981
C34   C     C_R   0.972773 0.484735 0.484593 -0.016314
C35   C     C_R   0.041264 0.485702 0.015081 -0.015979
C36   C     C_R   0.027228 0.515264 0.984592 -0.016313
C37   C     C_R   0.458735 0.985702 0.984918 -0.015980
C38   C     C_R   0.472772 0.015265 0.015407 -0.016314
C39   C     C_R   0.541264 0.014298 0.484918 -0.015979
C40   C     C_R   0.527228 0.984736 0.515407 -0.016313
C41   C     C_R   0.945628 0.558165 0.507362 -0.048088
C42   C     C_R   0.986332 0.440875 0.492309 -0.048232
C43   C     C_R   0.054350 0.441835 0.007362 -0.048090
C44   C     C_R   0.013691 0.559125 0.992308 -0.048233
C45   C     C_R   0.445632 0.941835 0.992638 -0.048089
C46   C     C_R   0.486326 0.059125 0.007691 -0.048232
C47   C     C_R   0.554359 0.058165 0.492638 -0.048089
C48   C     C_R   0.513682 0.940875 0.507691 -0.048233
C49   C     C_R   0.971222 0.456051 0.560555 -0.131127
C50   C     C_R   0.959608 0.542974 0.439117 -0.130910
C51   C     C_R   0.028827 0.543949 0.060554 -0.131129
C52   C     C_R   0.040345 0.457025 0.939117 -0.130910
C53   C     C_R   0.471209 0.043949 0.939445 -0.131128
C54   C     C_R   0.459619 0.957026 0.060883 -0.130909
C55   C     C_R   0.528805 0.956051 0.439445 -0.131128
C56   C     C_R   0.540367 0.042975 0.560882 -0.130910
C57   C     C_R   0.984176 0.426880 0.530479 -0.124433
C58   C     C_R   0.944943 0.572116 0.469180 -0.125107
C59   C     C_R   0.015872 0.573120 0.030478 -0.124434
C60   C     C_R   0.055010 0.427883 0.969179 -0.125107
C61   C     C_R   0.484164 0.073120 0.969521 -0.124433
C62   C     C_R   0.444953 0.927883 0.030821 -0.125108
C63   C     C_R   0.515851 0.926880 0.469521 -0.124434
C64   C     C_R   0.555032 0.072117 0.530820 -0.125108
O21   O     O_2   0.922268 0.629110 0.531065 -0.489376
O22   O     O_2   0.014713 0.370010 0.468622 -0.488737
O23   O     O_2   0.077691 0.370889 0.031064 -0.489377
O24   O     O_2   0.985329 0.629990 0.968620 -0.488739
O25   O     O_2   0.422274 0.870889 0.968936 -0.489377
O26   O     O_2   0.514704 0.129990 0.031379 -0.488738
O27   O     O_2   0.577709 0.129111 0.468936 -0.489378
O28   O     O_2   0.485312 0.870010 0.531379 -0.488738
O29   O     O_2   0.954656 0.516706 0.619734 -0.512360
O30   O     O_2   0.998506 0.482710 0.380064 -0.512264
O31   O     O_2   0.045393 0.483294 0.119732 -0.512361
O32   O     O_2   0.001449 0.517289 0.880064 -0.512263
O33   O     O_2   0.454641 0.983294 0.880267 -0.512361
O34   O     O_2   0.498519 0.017290 0.119936 -0.512264
O35   O     O_2   0.545370 0.016706 0.380267 -0.512361
O36   O     O_2   0.501471 0.982710 0.619936 -0.512263
H1    H     H_    0.971598 0.444076 0.589573 0.177189
H2    H     H_    0.960130 0.554965 0.410105 0.177334
H3    H     H_    0.028471 0.555924 0.089572 0.177190
H4    H     H_    0.039804 0.445034 0.910105 0.177334
H5    H     H_    0.471579 0.055924 0.910427 0.177190
H6    H     H_    0.460146 0.945034 0.089895 0.177334
H7    H     H_    0.528439 0.944076 0.410428 0.177190
H8    H     H_    0.539835 0.054966 0.589895 0.177334
H9    H     H_    0.994058 0.393341 0.537273 0.180383
H10   H     H_    0.934716 0.605649 0.462383 0.180387
H11   H     H_    0.006009 0.606659 0.037271 0.180383
H12   H     H_    0.065219 0.394350 0.962383 0.180388
H13   H     H_    0.494041 0.106659 0.962727 0.180383
H14   H     H_    0.434731 0.894350 0.037617 0.180387
H15   H     H_    0.505979 0.893341 0.462728 0.180383
H16   H     H_    0.565248 0.105650 0.537617 0.180387
C65   C     C_R   0.876683 0.387040 0.370024 -0.073820
C66   C     C_R   0.776019 0.609023 0.628167 -0.081846
C67   C     C_R   0.123316 0.612960 0.870023 -0.073822
C68   C     C_R   0.223984 0.390976 0.128165 -0.081844
C69   C     C_R   0.376684 0.112960 0.129977 -0.073820
C70   C     C_R   0.276016 0.890977 0.871834 -0.081845
C71   C     C_R   0.623318 0.887040 0.629977 -0.073821
C72   C     C_R   0.723983 0.109024 0.371834 -0.081845
H17   H     H_    0.739775 0.403101 0.374315 0.187464
H18   H     H_    0.648874 0.589857 0.622615 0.173836
H19   H     H_    0.260223 0.596899 0.874314 0.187460
H20   H     H_    0.351131 0.410142 0.122613 0.173840
H21   H     H_    0.239777 0.096899 0.125685 0.187462
H22   H     H_    0.148870 0.910143 0.877386 0.173838
H23   H     H_    0.760225 0.903101 0.625685 0.187462
H24   H     H_    0.851129 0.089858 0.377386 0.173840
C73   C     C_R   0.893295 0.356857 0.340931 -0.203260
C74   C     C_R   0.770753 0.639456 0.657274 -0.194021
C75   C     C_R   0.106703 0.643143 0.840931 -0.203260
C76   C     C_R   0.229250 0.360543 0.157273 -0.194022
C77   C     C_R   0.393297 0.143143 0.159069 -0.203260
C78   C     C_R   0.270751 0.860544 0.842726 -0.194020
C79   C     C_R   0.606705 0.856857 0.659069 -0.203261
C80   C     C_R   0.729248 0.139457 0.342726 -0.194022
H25   H     H_    0.768413 0.350988 0.322987 0.189490
H26   H     H_    0.639490 0.642422 0.673976 0.189349
H27   H     H_    0.231585 0.649012 0.822986 0.189489
H28   H     H_    0.360514 0.357576 0.173974 0.189353
H29   H     H_    0.268415 0.149012 0.177014 0.189489
H30   H     H_    0.139487 0.857577 0.826025 0.189351
H31   H     H_    0.731587 0.850988 0.677013 0.189490
H32   H     H_    0.860513 0.142424 0.326026 0.189353
C81   C     C_R   0.067577 0.334682 0.334835 -0.240587
C82   C     C_R   0.931820 0.665535 0.664921 -0.240234
C83   C     C_R   0.932422 0.665318 0.834835 -0.240585
C84   C     C_R   0.068181 0.334465 0.164921 -0.240235
C85   C     C_R   0.567578 0.165318 0.165165 -0.240586
C86   C     C_R   0.431818 0.834465 0.835079 -0.240235
C87   C     C_R   0.432423 0.834682 0.665165 -0.240585
C88   C     C_R   0.568180 0.165535 0.335079 -0.240235
C89   C     C_R   0.227290 0.343531 0.359394 0.331212
C90   C     C_R   0.100352 0.660515 0.641817 0.330932
C91   C     C_R   0.772710 0.656469 0.859394 0.331213
C92   C     C_R   0.899648 0.339486 0.141817 0.330930
C93   C     C_R   0.727291 0.156469 0.140606 0.331213
C94   C     C_R   0.600351 0.839486 0.858183 0.330931
C95   C     C_R   0.272711 0.843531 0.640606 0.331213
C96   C     C_R   0.399646 0.160514 0.358183 0.330930
C97   C     C_R   0.212826 0.375351 0.387603 0.409898
C98   C     C_R   0.108536 0.628496 0.613749 0.406927
C99   C     C_R   0.787174 0.624649 0.887604 0.409896
C100  C     C_R   0.891464 0.371505 0.113750 0.406927
C101  C     C_R   0.712827 0.124649 0.112396 0.409897
C102  C     C_R   0.608534 0.871504 0.886251 0.406926
C103  C     C_R   0.287176 0.875351 0.612397 0.409897
C104  C     C_R   0.391462 0.128495 0.386250 0.406927
C105  C     C_R   0.034268 0.396599 0.393642 0.190520
C106  C     C_R   0.943176 0.603158 0.606163 0.193432
C107  C     C_R   0.965731 0.603401 0.893642 0.190527
C108  C     C_R   0.056826 0.396842 0.106162 0.193428
C109  C     C_R   0.534270 0.103401 0.106358 0.190523
C110  C     C_R   0.443173 0.896842 0.893838 0.193431
C111  C     C_R   0.465733 0.896599 0.606358 0.190525
C112  C     C_R   0.556825 0.103158 0.393838 0.193431
O37   O     O_3   0.399610 0.321551 0.357224 -0.612236
H33   H     H_    0.369543 0.291413 0.351691 0.284161
O38   O     O_3   0.259999 0.686492 0.645400 -0.607834
H34   H     H_    0.212955 0.715980 0.648804 0.283501
O39   O     O_3   0.600389 0.678449 0.857224 -0.612235
H35   H     H_    0.630456 0.708587 0.851691 0.284162
O40   O     O_3   0.739999 0.313509 0.145402 -0.607836
H36   H     H_    0.787040 0.284020 0.148805 0.283502
O41   O     O_3   0.899611 0.178449 0.142775 -0.612235
H37   H     H_    0.869545 0.208587 0.148309 0.284162
O42   O     O_3   0.759999 0.813508 0.854599 -0.607835
H38   H     H_    0.712957 0.784020 0.851196 0.283501
O43   O     O_3   0.100391 0.821551 0.642776 -0.612236
H39   H     H_    0.130457 0.791413 0.648309 0.284162
O44   O     O_3   0.239997 0.186491 0.354598 -0.607836
H40   H     H_    0.287038 0.215979 0.351195 0.283502
O45   O     O_3   0.375542 0.383838 0.409284 -0.607273
H41   H     H_    0.354288 0.409811 0.424687 0.296126
O46   O     O_3   0.279659 0.623884 0.593700 -0.604803
H42   H     H_    0.275150 0.597552 0.578246 0.295314
O47   O     O_3   0.624460 0.616163 0.909285 -0.607273
H43   H     H_    0.645717 0.590191 0.924690 0.296128
O48   O     O_3   0.720339 0.376117 0.093702 -0.604805
H44   H     H_    0.724846 0.402451 0.078249 0.295311
O49   O     O_3   0.875543 0.116163 0.090715 -0.607273
H45   H     H_    0.854288 0.090190 0.075311 0.296127
O50   O     O_3   0.779657 0.876116 0.906299 -0.604804
H46   H     H_    0.775148 0.902449 0.921753 0.295313
O51   O     O_3   0.124461 0.883837 0.590715 -0.607273
H47   H     H_    0.145716 0.909810 0.575311 0.296126
O52   O     O_3   0.220338 0.123883 0.406299 -0.604806
H48   H     H_    0.224847 0.097550 0.421752 0.295313

loop_
_geom_bond_atom_site_label_1
_geom_bond_atom_site_label_2
_ccdc_geom_bond_type
O17   V3    S    
C104  O52   S    
O42   H38   S    
C56   C64   A    
O18   V4    S    
C65   C105  A    
O12   V1    S    
O19   V1    S    
O41   H37   S    
C37   C45   A    
C8    C81   S    
C10   N2    A    
C91   C99   A    
C68   C108  A    
C80   H32   S    
C69   C109  A    
O15   V4    S    
O47   H43   S    
O16   V3    S    
C4    C85   S    
C74   C82   A    
C22   O34   S    
C52   H4    S    
C57   H9    S    
C20   C28   A    
C90   C98   A    
O8    V1    S    
C96   O44   S    
C93   O41   S    
C38   C46   A    
C27   C51   A    
C41   C58   A    
C26   C50   A    
C90   O38   S    
C72   H24   S    
C79   C87   A    
C66   C74   A    
C99   C107  A    
C92   C100  A    
O39   H35   S    
C46   C61   A    
C21   O33   S    
C34   C42   A    
C45   C62   A    
O1    V3    S    
C40   C48   A    
C97   C105  A    
C64   H16   S    
C92   O40   S    
C16   N8    A    
C97   O45   S    
N7    C112  S    
C10   C42   A    
C94   O42   S    
N8    C111  S    
C54   C62   A    
C27   C35   A    
C101  C109  A    
C26   C34   A    
C68   H20   S    
O52   H48   S    
O11   V2    S    
C76   H28   S    
C94   C102  A    
C23   C31   A    
N1    C106  S    
C16   C48   A    
C67   C75   A    
C3    C86   S    
C56   H8    S    
C75   H27   S    
C65   C73   A    
O37   H33   S    
O9    V1    S    
C7    C82   S    
C81   C89   A    
N4    C20   A    
O15   C7    A    
N7    C23   A    
C93   C101  A    
O40   H36   S    
O16   C8    A    
O7    V2    S    
C59   H11   S    
C12   C44   A    
O12   C4    A    
C58   H10   S    
C30   C38   A    
C99   O47   S    
O3    V4    S    
C21   C29   A    
C19   O31   S    
C11   O23   S    
N1    C17   A    
O3    C2    A    
C80   C88   A    
O8    C5    A    
C19   C27   A    
O5    V1    S    
C62   H14   S    
O17   V1    S    
C16   O28   S    
C86   C94   A    
C78   C86   A    
O19   V3    S    
C35   C36   A    
C76   C84   A    
C51   H3    S    
O20   V4    S    
C77   C85   A    
C50   H2    S    
C54   H6    S    
C33   C41   A    
C25   C33   A    
O50   H46   S    
C96   C104  A    
C17   O29   S    
C83   C91   A    
C14   C46   A    
O49   H45   S    
O43   H39   S    
C15   N7    A    
C13   C45   A    
C39   C47   A    
O44   H40   S    
C55   C63   A    
C68   C76   A    
C44   C59   A    
O48   H44   S    
C55   H7    S    
O51   H47   S    
C70   H22   S    
C30   C54   A    
O10   V2    S    
C52   C60   A    
O46   H42   S    
C82   C90   A    
C103  O51   S    
O11   C3    A    
N6    C22   A    
C104  C112  A    
O45   H41   S    
C18   C26   A    
C69   C77   A    
C12   O24   S    
O9    C1    A    
C48   C63   A    
C53   H5    S    
C71   C111  A    
C31   C39   A    
C100  C108  A    
C29   C53   A    
C43   C60   A    
N2    C18   A    
C88   C96   A    
O4    C1    A    
N2    C105  S    
C9    C41   A    
O6    V2    S    
C72   C112  A    
O18   V2    S    
C89   C97   A    
C101  O49   S    
O14   C6    A    
C74   H26   S    
C25   C49   A    
C12   N4    A    
C23   O35   S    
C35   C43   A    
C95   O43   S    
N6    C109  S    
C13   N5    A    
C66   H18   S    
C11   N3    A    
C42   C57   A    
C95   C103  A    
C29   C37   A    
N8    C24   A    
C84   C92   A    
O1    C4    A    
C78   H30   S    
C70   C78   A    
C31   C55   A    
O2    C3    A    
O13   V3    S    
C100  O48   S    
C11   C43   A    
O14   V4    S    
C1    C88   S    
C103  C111  A    
C17   C25   A    
C89   O37   S    
C2    C87   S    
C66   C106  A    
C15   O27   S    
C36   C44   A    
O7    C6    A    
C51   C59   A    
C69   H21   S    
C50   C58   A    
C79   H31   S    
C9    N1    A    
C39   C40   A    
C70   C110  A    
C60   H12   S    
C73   H25   S    
C47   C64   A    
C14   O26   S    
C75   C83   A    
O13   C5    A    
C13   O25   S    
C6    C83   S    
C28   C52   A    
N3    C19   A    
C24   C32   A    
O5    C8    A    
C73   C81   A    
N3    C108  S    
O10   C2    A    
C71   C79   A    
O6    C7    A    
O20   V2    S    
C71   H23   S    
C10   O22   S    
C24   O36   S    
C98   O46   S    
C87   C95   A    
C9    O21   S    
C32   C40   A    
C49   C57   A    
C37   C38   A    
C61   H13   S    
C14   N6    A    
O4    V3    S    
C67   H19   S    
N4    C107  S    
N5    C21   A    
O38   H34   S    
C98   C106  A    
C63   H15   S    
N5    C110  S    
C102  O50   S    
C53   C61   A    
C65   H17   S    
C28   C36   A    
C91   O39   S    
C33   C34   A    
C49   H1    S    
C18   O30   S    
C22   C30   A    
C20   O32   S    
C102  C110  A    
C77   H29   S    
C72   C80   A    
C85   C93   A    
C32   C56   A    
C15   C47   A    
O2    V4    S    
C5    C84   S    
C67   C107  A    
