data_mof_unit_3886.cif
_audit_creation_date              2012-12-11T16:43:17-0500
_audit_creation_method            fapswitch 2.2
_symmetry_space_group_name_H-M    P1
_symmetry_Int_Tables_number       1
_space_group_crystal_system       triclinic
_cell_length_a                    6.929093
_cell_length_b                    23.264813
_cell_length_c                    25.829272
_cell_angle_alpha                 104.776
_cell_angle_beta                  90.191073
_cell_angle_gamma                 90.456377
_cell_volume                      4025.89856003

loop_
_atom_site_label
_atom_site_type_symbol
_atom_type_description
_atom_site_fract_x
_atom_site_fract_y
_atom_site_fract_z
_atom_type_partial_charge
O1    O     O_R   0.505750 0.453350 0.547660 -0.540191
O2    O     O_R   0.170990 0.432220 0.437590 -0.542449
O3    O     O_R   0.005600 0.546650 0.452340 -0.538181
C1    C     C_R   0.339836 0.415888 0.417072 0.709854
O4    O     O_R   0.175720 0.446240 0.546340 -0.542783
O5    O     O_R   0.010370 0.560770 0.561860 -0.539050
C2    C     C_R   0.344687 0.434091 0.562765 0.690849
O6    O     O_R   0.500990 0.439230 0.438140 -0.539571
O7    O     O_3   0.340820 0.537560 0.504970 -0.366594
V1    V     V_3+5 0.064050 0.493030 0.499080 1.402234
O8    O     O_R   0.680940 0.567780 0.562410 -0.541526
C3    C     C_R   0.850695 0.584562 0.582475 0.714721
O9    O     O_R   0.676210 0.553760 0.453660 -0.543122
C4    C     C_R   0.845155 0.565922 0.437243 0.713439
V2    V     V_3+5 0.564640 0.506970 0.500920 1.405497
O10   O     O_3   0.837740 0.462440 0.495030 -0.370092
C5    C     C_R   0.772259 0.881258 0.119822 -0.161798
H1    H     H_    0.639855 0.898092 0.107097 0.120784
C6    C     C_R   0.760459 0.845602 0.155958 -0.136737
H2    H     H_    0.619757 0.836578 0.170370 0.104850
C7    C     C_R   0.928087 0.822998 0.174161 0.099095
C8    C     C_R   0.108011 0.836940 0.155056 -0.141796
H3    H     H_    0.239889 0.819686 0.167641 0.102115
C9    C     C_R   0.119902 0.872612 0.118840 -0.160580
H4    H     H_    0.260859 0.882350 0.105040 0.118436
C10   C     C_R   0.952118 0.895359 0.100769 -0.055348
C11   C     C_R   0.051136 0.791737 0.254837 -0.148650
H5    H     H_    0.166822 0.824245 0.259511 0.128590
C12   C     C_R   0.036973 0.757128 0.291833 -0.108837
H6    H     H_    0.141704 0.763616 0.323992 0.189956
C13   C     C_R   0.886749 0.715381 0.288091 0.110833
C14   C     C_R   0.751704 0.708528 0.246218 -0.082430
H7    H     H_    0.636491 0.675873 0.241838 0.132842
C15   C     C_R   0.765084 0.743292 0.209325 -0.158370
H8    H     H_    0.659495 0.736518 0.177293 0.109040
C16   C     C_R   0.914953 0.785449 0.213146 0.070585
C17   C     C_R   0.705546 0.676329 0.357418 0.409581
C18   C     C_R   0.696613 0.639486 0.392731 -0.199338
H9    H     H_    0.565968 0.638823 0.415504 0.160025
C19   C     C_R   0.855513 0.604895 0.399670 -0.121905
C20   C     C_R   0.024357 0.607964 0.370375 -0.143679
H10   H     H_    0.149468 0.581901 0.374639 0.134192
C21   C     C_R   0.032782 0.643885 0.334399 -0.165459
H11   H     H_    0.163315 0.644336 0.311564 0.168187
C22   C     C_R   0.873799 0.678197 0.327163 0.001385
C23   C     C_R   0.712840 0.645123 0.668904 -0.221074
C24   C     C_R   0.864177 0.634313 0.631538 -0.083198
C25   C     C_R   0.031208 0.670419 0.641832 -0.210742
C26   C     C_R   0.047269 0.716999 0.688542 0.087015
C27   C     C_R   0.896342 0.726893 0.726231 0.053617
C28   C     C_R   0.729000 0.690617 0.716487 0.092347
C29   C     C_R   0.211797 0.753853 0.698296 -0.184286
C30   C     C_R   0.227966 0.799675 0.745303 -0.178568
C31   C     C_R   0.080303 0.809347 0.783536 0.090337
C32   C     C_R   0.912957 0.773073 0.773791 0.053938
C33   C     C_R   0.762028 0.782967 0.811479 0.089663
C34   C     C_R   0.597497 0.746114 0.801724 -0.191495
C35   C     C_R   0.581332 0.700291 0.754718 -0.182686
C36   C     C_R   0.096472 0.854836 0.831122 -0.220531
C37   C     C_R   0.945138 0.865645 0.868489 -0.084288
C38   C     C_R   0.778095 0.829545 0.858191 -0.217299
H12   H     H_    0.584316 0.617279 0.661505 0.123390
H13   H     H_    0.148191 0.662616 0.613171 0.131560
H14   H     H_    0.328825 0.746998 0.669704 0.138491
H15   H     H_    0.356880 0.827310 0.751923 0.137962
H16   H     H_    0.225001 0.882679 0.838524 0.124569
H17   H     H_    0.661112 0.837349 0.886852 0.128078
H18   H     H_    0.480468 0.752970 0.830316 0.134034
H19   H     H_    0.452419 0.672655 0.748099 0.135457
C39   C     C_R   0.603858 0.175432 0.148971 -0.225489
C40   C     C_R   0.455331 0.132904 0.132919 -0.086684
C41   C     C_R   0.287664 0.137482 0.164569 -0.208763
C42   C     C_R   0.267255 0.183567 0.211309 0.086585
C43   C     C_R   0.415130 0.226534 0.226609 0.053112
C44   C     C_R   0.583743 0.222579 0.195255 0.093974
C45   C     C_R   0.101088 0.187509 0.242983 -0.191301
C46   C     C_R   0.080686 0.233955 0.289272 -0.176980
C47   C     C_R   0.225546 0.277542 0.304660 0.092788
C48   C     C_R   0.394152 0.273591 0.273304 0.053077
C49   C     C_R   0.542035 0.316555 0.288608 0.087887
C50   C     C_R   0.708208 0.312611 0.256936 -0.194867
C51   C     C_R   0.728609 0.266163 0.210646 -0.180334
C52   C     C_R   0.205444 0.324679 0.350950 -0.224526
C53   C     C_R   0.353980 0.367202 0.367010 -0.086870
C54   C     C_R   0.521640 0.362633 0.335357 -0.210885
H20   H     H_    0.733108 0.172544 0.124940 0.128019
H21   H     H_    0.172634 0.104792 0.152999 0.126323
H22   H     H_    0.986082 0.154801 0.231787 0.134227
H23   H     H_    0.950726 0.235981 0.312860 0.138361
H24   H     H_    0.076203 0.327557 0.374985 0.128759
H25   H     H_    0.636685 0.395317 0.346934 0.124974
H26   H     H_    0.823229 0.345313 0.268136 0.132056
H27   H     H_    0.858581 0.264133 0.187062 0.136625
C55   C     C_R   0.274820 0.124016 0.884980 -0.159101
H28   H     H_    0.142258 0.111815 0.901725 0.121790
C56   C     C_R   0.263427 0.159618 0.848858 -0.143008
H29   H     H_    0.122834 0.174310 0.839392 0.099944
C57   C     C_R   0.431164 0.176742 0.825906 0.094902
C58   C     C_R   0.610968 0.157609 0.840475 -0.139041
H30   H     H_    0.742967 0.169198 0.823070 0.099623
C59   C     C_R   0.622487 0.122133 0.876818 -0.160336
H31   H     H_    0.763140 0.107857 0.886719 0.117765
C60   C     C_R   0.454414 0.104682 0.899424 -0.055496
C61   C     C_R   0.556940 0.258709 0.786972 -0.150503
H32   H     H_    0.674099 0.267028 0.815836 0.110469
C62   C     C_R   0.544031 0.293996 0.750560 -0.151467
H33   H     H_    0.651746 0.328449 0.752451 0.109045
C63   C     C_R   0.392016 0.285791 0.713018 0.080636
C64   C     C_R   0.253218 0.241311 0.712958 -0.148272
H34   H     H_    0.136052 0.232995 0.684096 0.113072
C65   C     C_R   0.266134 0.206020 0.749366 -0.149243
H35   H     H_    0.158419 0.171566 0.747470 0.111576
C66   C     C_R   0.418124 0.214233 0.786917 0.080700
C67   C     C_R   0.199060 0.342471 0.659547 -0.140240
H36   H     H_    0.067137 0.330902 0.676996 0.099014
C68   C     C_R   0.187422 0.377954 0.623213 -0.159930
H37   H     H_    0.046756 0.392258 0.613365 0.117365
C69   C     C_R   0.355393 0.395373 0.600549 -0.055198
C70   C     C_R   0.535014 0.376010 0.614932 -0.159636
H38   H     H_    0.667494 0.388188 0.598138 0.121734
C71   C     C_R   0.546528 0.340403 0.651048 -0.141789
H39   H     H_    0.687128 0.325685 0.660469 0.100760
C72   C     C_R   0.378884 0.323301 0.674049 0.094859
O11   O     O_R   0.308350 0.060850 0.061810 -0.539263
O12   O     O_R   0.633860 0.053770 0.953650 -0.542283
O13   O     O_R   0.798960 0.939210 0.938150 -0.538509
C73   C     C_R   0.464959 0.065959 0.937206 0.692741
O14   O     O_R   0.638360 0.067800 0.062400 -0.541204
O15   O     O_R   0.803500 0.953330 0.047670 -0.539980
C74   C     C_R   0.469503 0.084184 0.082882 0.712076
O16   O     O_R   0.303810 0.046730 0.952290 -0.539718
O17   O     O_3   0.468430 0.962490 0.995010 -0.369251
V3    V     V_3+5 0.745300 0.006960 0.000930 1.398224
O18   O     O_R   0.132880 0.946160 0.046390 -0.543346
C75   C     C_R   0.963771 0.934047 0.062861 0.688194
O19   O     O_R   0.128380 0.932130 0.937650 -0.541959
C76   C     C_R   0.958629 0.915390 0.917555 0.713214
V4    V     V_3+5 0.244670 0.992930 0.999140 1.397506
O20   O     O_3   0.971670 0.037510 0.005000 -0.368017
Cl1   Cl    Cl    0.507280 0.722255 0.354790 -0.723383

loop_
_geom_bond_atom_site_label_1
_geom_bond_atom_site_label_2
_ccdc_geom_bond_type
C32   C33   A    
O13   C76   A    
C59   H31   S    
C11   C12   A    
C42   C43   A    
C6    H2    S    
C44   C51   A    
C1    O6    A    
C61   C62   A    
C67   H36   S    
C54   H25   S    
C7    C16   S    
C46   C47   A    
C63   C64   A    
C46   H23   S    
C49   C54   A    
C23   H12   S    
C52   C53   A    
C5    C10   A    
O11   V4    S    
C6    C7    A    
C17   C18   A    
C9    C10   A    
C64   C65   A    
C36   H16   S    
O5    C3    A    
C18   H9    S    
C62   H33   S    
O17   V4    S    
V2    O10   S    
C68   H37   S    
C5    H1    S    
C15   H8    S    
C20   H10   S    
C26   C27   A    
C69   C70   A    
C10   C75   S    
O15   C75   A    
C50   H26   S    
O8    V2    S    
C47   C52   A    
C24   C25   A    
O13   V3    S    
O17   V3    S    
C17   Cl1   S    
C56   C57   A    
O16   V4    S    
C39   C40   A    
O1    V2    S    
O9    C4    A    
C30   H15   S    
O7    V1    S    
C45   H22   S    
C37   C76   S    
C36   C37   A    
C59   C60   A    
C51   H27   S    
C7    C8    A    
C20   C21   A    
C2    C69   S    
C3    C24   S    
C8    H3    S    
C61   H32   S    
C50   C51   A    
C31   C36   A    
C70   C71   A    
C43   C44   A    
C9    H4    S    
O19   V4    S    
C29   H14   S    
O4    C2    A    
C47   C48   A    
C41   C42   A    
C57   C66   S    
C30   C31   A    
C23   C28   A    
C61   C66   A    
C37   C38   A    
C14   C15   A    
O2    C1    A    
C21   H11   S    
O5    V1    S    
C12   H6    S    
C38   H17   S    
C58   H30   S    
C1    C53   S    
C70   H38   S    
C26   C29   A    
C56   H29   S    
C27   C28   A    
O11   C74   A    
C65   C66   A    
C28   C35   A    
C23   C24   A    
C53   C54   A    
C55   C56   A    
C21   C22   A    
C71   H39   S    
O3    C4    A    
O15   V3    S    
C67   C72   A    
C19   C20   A    
C58   C59   A    
C55   C60   A    
V3    O20   S    
O6    V2    S    
C43   C48   A    
O9    V2    S    
C42   C45   A    
C8    C9    A    
C33   C34   A    
C34   H18   S    
C17   C22   A    
C39   H20   S    
C11   H5    S    
C41   H21   S    
C60   C73   S    
C29   C30   A    
O12   V3    S    
C52   H24   S    
C31   C32   A    
C25   C26   A    
C65   H35   S    
O1    C2    A    
C13   C14   A    
C49   C50   A    
C25   H13   S    
O14   C74   A    
O18   V4    S    
C67   C68   A    
O8    C3    A    
C35   H19   S    
O18   C75   A    
C11   C16   A    
C27   C32   A    
C14   H7    S    
O7    V2    S    
O4    V1    S    
C12   C13   A    
O3    V1    S    
V1    O10   S    
O14   V3    S    
C40   C74   S    
C18   C19   A    
C45   C46   A    
C34   C35   A    
C62   C63   A    
C5    C6    A    
C68   C69   A    
C15   C16   A    
C55   H28   S    
C73   O16   A    
C71   C72   A    
V4    O20   S    
C4    C19   S    
C48   C49   A    
C40   C41   A    
C57   C58   A    
C13   C22   S    
C39   C44   A    
O12   C73   A    
C33   C38   A    
O19   C76   A    
C63   C72   S    
C64   H34   S    
O2    V1    S    
