data_mof_unit_2537.cif
_audit_creation_date              2012-12-10T20:13:25-0500
_audit_creation_method            fapswitch 2.2
_symmetry_space_group_name_H-M    P1
_symmetry_Int_Tables_number       1
_space_group_crystal_system       triclinic
_cell_length_a                    19.212461
_cell_length_b                    18.496443
_cell_length_c                    15.76038
_cell_angle_alpha                 89.542759
_cell_angle_beta                  90.977414
_cell_angle_gamma                 90.028796
_cell_volume                      5599.64954835

loop_
_atom_site_label
_atom_site_type_symbol
_atom_type_description
_atom_site_fract_x
_atom_site_fract_y
_atom_site_fract_z
_atom_type_partial_charge
C1    C     C_R   0.365499 0.500074 0.503223 0.859494
C2    C     C_R   0.813837 0.564900 0.557780 0.008208
C3    C     C_R   0.852958 0.501509 0.544079 -0.005019
C4    C     C_R   0.709683 0.500575 0.513819 -0.065711
C5    C     C_R   0.963899 0.549161 0.492985 -0.171656
C6    C     C_R   0.965180 0.462097 0.609419 -0.171584
C7    C     C_R   0.499916 0.500245 0.338005 0.926686
C8    C     C_R   0.035805 0.550220 0.494144 -0.190916
C9    C     C_R   0.037485 0.462784 0.610275 -0.188769
C10   C     C_R   0.072857 0.506565 0.552170 0.105548
C11   C     C_R   0.928602 0.504744 0.550045 0.109129
C12   C     C_3   0.579270 0.512449 0.952578 -0.395990
C13   C     C_R   0.182788 0.437923 0.543465 -0.180647
C14   C     C_R   0.185572 0.569075 0.540919 -0.186802
C15   C     C_R   0.253838 0.436248 0.529039 -0.206872
C16   C     C_R   0.256338 0.567396 0.526283 -0.204356
C17   C     C_R   0.290707 0.500991 0.517725 -0.031583
C18   C     C_R   0.148344 0.504405 0.547815 0.118527
C19   C     C_R   0.529789 0.720553 0.570278 0.003487
C20   C     C_R   0.532523 0.278725 0.568535 0.000383
C21   C     C_R   0.535332 0.796195 0.577943 -0.290828
C22   C     C_R   0.538384 0.203023 0.575947 -0.296707
C23   C     C_3   0.578194 0.513155 0.050584 -0.420741
C24   C     C_R   0.510923 0.841695 0.512215 0.105946
C25   C     C_R   0.511695 0.158377 0.511533 0.110223
C26   C     C_R   0.634513 0.500060 0.501919 0.873175
C27   C     C_R   0.480140 0.808800 0.441119 -0.307209
C28   C     C_R   0.478595 0.192046 0.441810 -0.307820
C29   C     C_R   0.475033 0.733040 0.435412 0.128432
C30   C     C_R   0.472752 0.267842 0.436742 0.130725
C31   C     C_R   0.531542 0.962581 0.441320 -0.188513
C32   C     C_R   0.531612 0.038321 0.441110 -0.187952
C33   C     C_R   0.517783 0.077331 0.515240 0.129801
C34   C     C_1   0.505114 0.498605 0.825196 -0.105289
C35   C     C_R   0.517355 0.922770 0.515605 0.131021
C36   C     C_R   0.506792 0.037857 0.590750 -0.187538
C37   C     C_R   0.506508 0.961555 0.590921 -0.185976
C38   C     C_R   0.500865 0.499713 0.661703 0.913031
C39   C     C_3   0.454831 0.560086 0.046043 -0.435066
C40   C     C_3   0.477702 0.425531 0.049302 -0.438135
C41   C     C_3   0.476448 0.424922 0.950781 -0.147735
C42   C     C_3   0.454512 0.559593 0.947571 -0.149435
C43   C     C_1   0.503477 0.498983 0.750152 -0.182740
C44   C     C_3   0.503242 0.499858 0.081898 0.326242
C45   C     C_1   0.502285 0.500501 0.173547 -0.087951
C46   C     C_3   0.504803 0.498916 0.916543 0.274556
C47   C     C_R   0.442956 0.703715 0.357624 0.153248
C48   C     C_R   0.376691 0.672162 0.359479 -0.099811
C49   C     C_R   0.342621 0.652561 0.284020 -0.165718
C50   C     C_R   0.373228 0.667581 0.206042 -0.116384
C51   C     C_R   0.438211 0.701480 0.203659 -0.144288
C52   C     C_R   0.473463 0.718464 0.279031 -0.171318
C53   C     C_R   0.435637 0.298459 0.362475 0.151679
C54   C     C_R   0.368701 0.327073 0.371049 -0.099986
C55   C     C_R   0.330327 0.349796 0.299588 -0.163216
C56   C     C_1   0.501088 0.500671 0.248919 -0.162009
C57   C     C_R   0.357355 0.340609 0.218664 -0.120489
C58   C     C_R   0.422762 0.308860 0.209415 -0.145598
C59   C     C_R   0.462276 0.288750 0.280971 -0.164854
C60   C     C_R   0.510710 0.358106 0.912736 0.157263
C61   C     C_R   0.476273 0.321542 0.846021 -0.152334
C62   C     C_R   0.506692 0.261538 0.808146 -0.141121
C63   C     C_R   0.571796 0.236967 0.836305 -0.123958
C64   C     C_R   0.606492 0.272242 0.902610 -0.145981
C65   C     C_R   0.576341 0.332347 0.940722 -0.158319
C66   C     C_R   0.466907 0.634002 0.906927 0.158247
C67   C     C_R   0.748045 0.437236 0.503174 -0.246572
C68   C     C_R   0.425363 0.655484 0.836547 -0.157086
C69   C     C_R   0.437156 0.721407 0.795246 -0.124026
C70   C     C_R   0.490130 0.767193 0.823889 -0.121867
C71   C     C_R   0.531384 0.747140 0.893931 -0.150621
C72   C     C_R   0.520093 0.681080 0.935223 -0.162839
C73   C     C_R   0.858905 0.369911 0.499883 0.116146
C74   C     C_R   0.844831 0.306672 0.546449 -0.174252
C75   C     C_R   0.881818 0.243173 0.530998 -0.136706
C76   C     C_R   0.932759 0.242272 0.468754 -0.115012
C77   C     C_R   0.946562 0.304778 0.421554 -0.142194
C78   C     C_R   0.742576 0.563910 0.541188 -0.243422
C79   C     C_R   0.909602 0.368339 0.436674 -0.126284
C80   C     C_R   0.845993 0.632638 0.589911 0.118303
C81   C     C_R   0.836696 0.697977 0.544995 -0.175005
C82   C     C_R   0.867139 0.761708 0.575052 -0.134916
C83   C     C_R   0.906787 0.760804 0.650213 -0.114666
C84   C     C_R   0.915873 0.696205 0.695615 -0.140359
C85   C     C_R   0.885462 0.632369 0.665860 -0.126904
C86   C     C_R   0.819831 0.437198 0.516872 0.012608
H1    H     H_    0.400762 0.543257 0.927938 0.109931
H2    H     H_    0.554899 0.312156 0.617897 0.148324
H3    H     H_    0.560042 0.818665 0.634064 0.135564
H4    H     H_    0.564935 0.179792 0.630821 0.132799
H5    H     H_    0.459000 0.842025 0.389919 0.140948
H6    H     H_    0.455787 0.159374 0.391751 0.140805
H7    H     H_    0.542247 0.935073 0.382585 0.128343
H8    H     H_    0.542163 0.066525 0.382244 0.129687
H9    H     H_    0.495816 0.065923 0.649041 0.126243
H10   H     H_    0.495264 0.933016 0.649346 0.123606
H11   H     H_    0.400913 0.551377 0.068865 0.154788
H12   H     H_    0.420348 0.422283 0.931681 0.109350
H13   H     H_    0.424173 0.415178 0.072348 0.157035
H14   H     H_    0.511551 0.382263 0.076433 0.167988
H15   H     H_    0.472182 0.612778 0.071035 0.170820
H16   H     H_    0.597912 0.566036 0.074072 0.165257
H17   H     H_    0.613870 0.470687 0.076392 0.165192
H18   H     H_    0.600522 0.564198 0.928170 0.173648
H19   H     H_    0.615909 0.470610 0.930437 0.171463
H20   H     H_    0.722385 0.388111 0.482275 0.163556
H21   H     H_    0.712461 0.612420 0.552105 0.162864
H22   H     H_    0.935616 0.581651 0.446435 0.133874
H23   H     H_    0.062532 0.583329 0.447963 0.130788
H24   H     H_    0.937726 0.427792 0.653714 0.132783
H25   H     H_    0.350227 0.665910 0.418774 0.124544
H26   H     H_    0.291506 0.628033 0.285923 0.127576
H27   H     H_    0.345896 0.654522 0.147555 0.120218
H28   H     H_    0.460800 0.716212 0.143580 0.122936
H29   H     H_    0.523364 0.745601 0.276195 0.119815
H30   H     H_    0.345387 0.328923 0.432659 0.122091
H31   H     H_    0.278833 0.372397 0.306823 0.129312
H32   H     H_    0.326956 0.356451 0.163147 0.116714
H33   H     H_    0.442300 0.298352 0.146845 0.125903
H34   H     H_    0.065771 0.429035 0.655503 0.129028
H35   H     H_    0.512627 0.263635 0.272887 0.120485
H36   H     H_    0.426040 0.340011 0.822392 0.115226
H37   H     H_    0.479780 0.234198 0.756737 0.129074
H38   H     H_    0.595325 0.190554 0.806796 0.116084
H39   H     H_    0.656916 0.253012 0.924545 0.124126
H40   H     H_    0.604532 0.358166 0.992069 0.119161
H41   H     H_    0.384466 0.620520 0.812462 0.115125
H42   H     H_    0.405361 0.736839 0.740707 0.130708
H43   H     H_    0.499243 0.818184 0.791766 0.115530
H44   H     H_    0.572445 0.782724 0.916114 0.125291
H45   H     H_    0.154455 0.387483 0.548833 0.130873
H46   H     H_    0.553279 0.667188 0.988914 0.118190
H47   H     H_    0.805705 0.306787 0.595127 0.127349
H48   H     H_    0.871049 0.194679 0.567359 0.125095
H49   H     H_    0.961392 0.193095 0.456940 0.119589
H50   H     H_    0.985799 0.303939 0.373105 0.124193
H51   H     H_    0.920380 0.416192 0.399108 0.126128
H52   H     H_    0.806482 0.699392 0.486354 0.126698
H53   H     H_    0.860070 0.811794 0.539993 0.125703
H54   H     H_    0.930347 0.810182 0.673359 0.119118
H55   H     H_    0.946356 0.695620 0.754003 0.123848
H56   H     H_    0.159633 0.620840 0.545886 0.131620
H57   H     H_    0.892403 0.582864 0.702158 0.122471
H58   H     H_    0.279557 0.384443 0.527337 0.141514
H59   H     H_    0.283871 0.618214 0.522432 0.144447
H60   H     H_    0.550547 0.686689 0.620822 0.148564
N1    N     N_R   0.499980 0.689440 0.500010 -0.111786
N2    N     N_R   0.499980 0.310560 0.500010 -0.110477
O1    O     O_R   0.398180 0.560840 0.500000 -0.631393
O2    O     O_R   0.398180 0.439160 0.500000 -0.627660
O3    O     O_R   0.500010 0.560840 0.377160 -0.606135
O4    O     O_R   0.500010 0.439160 0.377160 -0.606779
O5    O     O_R   0.601820 0.560790 0.500040 -0.626085
O6    O     O_R   0.601820 0.439210 0.500040 -0.624730
O7    O     O_R   0.500000 0.560790 0.622880 -0.627492
O8    O     O_R   0.500000 0.439210 0.622880 -0.627008
Zn1   Zn    Zn3+2 0.500000 0.581210 0.500030 0.941515
Zn2   Zn    Zn3+2 0.500000 0.418790 0.500030 0.943575

loop_
_geom_bond_atom_site_label_1
_geom_bond_atom_site_label_2
_ccdc_geom_bond_type
C59   H35   S    
C66   C68   A    
C14   H56   S    
O7    Zn1   S    
C73   C74   A    
C14   C18   A    
C32   H8    S    
C24   C27   A    
C38   O8    A    
C85   H57   S    
C40   H13   S    
C81   C82   A    
C53   C59   A    
C75   H48   S    
C21   H3    S    
C53   C54   A    
C25   C28   A    
C12   C23   S    
C40   H14   S    
C80   C85   A    
C13   C18   A    
C29   C47   S    
C7    C56   S    
C36   C37   A    
C35   C37   A    
C12   H18   S    
C12   H19   S    
C39   H11   S    
C23   H16   S    
C27   C29   A    
C74   H47   S    
C33   C36   A    
C32   C33   A    
C42   C46   S    
C49   C50   A    
C62   H37   S    
C24   C35   S    
O8    Zn2   S    
C66   C72   A    
C83   C84   A    
C45   C56   T    
C16   C17   A    
C22   C25   A    
C54   H30   S    
C41   C46   S    
C20   N2    A    
C27   H5    S    
C70   C71   A    
C34   C46   S    
C77   H50   S    
C9    C10   A    
C3    C86   A    
C6    H24   S    
C61   C62   A    
C38   O7    A    
C6    C9    A    
C83   H54   S    
C76   H49   S    
C63   H38   S    
C39   C42   S    
C77   C79   A    
C13   H45   S    
C81   H52   S    
C30   C53   S    
O4    Zn2   S    
C51   H28   S    
C74   C75   A    
C63   C64   A    
C51   C52   A    
C19   H60   S    
C2    C80   S    
C76   C77   A    
C69   H42   S    
C12   C46   S    
C30   N2    A    
C6    C11   A    
C68   C69   A    
C58   C59   A    
C31   H7    S    
C70   H43   S    
C19   N1    A    
C23   C44   S    
C15   H58   S    
C37   H10   S    
C16   H59   S    
C75   C76   A    
C4    C78   A    
C82   H53   S    
C2    C78   A    
C5    C8    A    
C61   H36   S    
C47   C48   A    
C39   H15   S    
C62   C63   A    
C50   C51   A    
C22   H4    S    
C1    O2    A    
C28   H6    S    
N2    Zn2   S    
C84   C85   A    
C1    O1    A    
C68   H41   S    
C47   C52   A    
C78   H21   S    
C49   H26   S    
C7    O3    A    
C23   H17   S    
C48   C49   A    
C79   H51   S    
C20   C22   A    
C60   C65   A    
C64   H39   S    
C13   C15   A    
C5    C11   A    
C31   C35   A    
C26   O6    A    
N1    Zn1   S    
O3    Zn1   S    
C44   C45   S    
C55   H31   S    
C52   H29   S    
C15   C17   A    
C54   C55   A    
C40   C41   S    
C67   C86   A    
O2    Zn2   S    
C19   C21   A    
C31   C32   A    
C34   C43   T    
C41   C60   S    
C80   C81   A    
C73   C79   A    
C29   N1    A    
C4    C67   A    
C4    C26   S    
C67   H20   S    
O6    Zn2   S    
C39   C44   S    
C1    C17   S    
C50   H27   S    
C65   H40   S    
C55   C57   A    
C2    C3    A    
C38   C43   S    
C8    H23   S    
C64   C65   A    
C72   H46   S    
C36   H9    S    
C57   C58   A    
C84   H55   S    
C10   C18   S    
C20   H2    S    
C28   C30   A    
C58   H33   S    
C14   C16   A    
O5    Zn1   S    
C69   C70   A    
C73   C86   S    
C3    C11   S    
C7    O4    A    
C40   C44   S    
C48   H25   S    
C71   C72   A    
C8    C10   A    
C82   C83   A    
C21   C24   A    
C42   C66   S    
C9    H34   S    
C41   H12   S    
C60   C61   A    
C26   O5    A    
C42   H1    S    
O1    Zn1   S    
C25   C33   S    
C57   H32   S    
C71   H44   S    
C5    H22   S    
