data_mof_unit_421.cif
_audit_creation_date              2013-03-05T15:39:55-0500
_audit_creation_method            fapswitch 2.2
_symmetry_space_group_name_H-M    P1
_symmetry_Int_Tables_number       1
_space_group_crystal_system       triclinic
_cell_length_a                    28.014461
_cell_length_b                    18.876703
_cell_length_c                    16.835715
_cell_angle_alpha                 90.018587
_cell_angle_beta                  62.480009
_cell_angle_gamma                 90.011089
_cell_volume                      7895.6877504

loop_
_atom_site_label
_atom_site_type_symbol
_atom_site_description
_atom_site_fract_x
_atom_site_fract_y
_atom_site_fract_z
_atom_type_partial_charge
O1    O     O_R   0.255040 0.869590 0.478480 -0.508488
O2    O     O_R   0.744960 0.130410 0.521520 -0.504519
O3    O     O_R   0.744960 0.869590 0.521520 -0.508638
O4    O     O_R   0.255040 0.130410 0.478480 -0.508163
O5    O     O_R   0.755040 0.369590 0.478480 -0.504520
O6    O     O_R   0.244960 0.630410 0.521520 -0.508493
O7    O     O_R   0.244960 0.369590 0.521520 -0.508162
O8    O     O_R   0.755040 0.630410 0.478480 -0.508640
O9    O     O_R   0.182050 0.796550 0.624440 -0.583930
O10   O     O_R   0.817950 0.203450 0.375560 -0.592031
O11   O     O_R   0.817950 0.796550 0.375560 -0.584177
O12   O     O_R   0.182050 0.203450 0.624440 -0.594503
O13   O     O_R   0.682050 0.296550 0.624440 -0.592031
O14   O     O_R   0.317950 0.703450 0.375560 -0.583931
O15   O     O_R   0.317950 0.296550 0.375560 -0.594505
O16   O     O_R   0.682050 0.703450 0.624440 -0.584178
Cu1   Cu    Cu3+1 0.209920 0.785290 0.495070 1.032428
Cu2   Cu    Cu3+1 0.790080 0.214710 0.504930 1.037733
Cu3   Cu    Cu3+1 0.790080 0.785290 0.504930 1.034651
Cu4   Cu    Cu3+1 0.209920 0.214710 0.495070 1.046949
Cu5   Cu    Cu3+1 0.709920 0.285290 0.495070 1.037731
Cu6   Cu    Cu3+1 0.290080 0.714710 0.504930 1.032397
Cu7   Cu    Cu3+1 0.290080 0.285290 0.504930 1.046941
Cu8   Cu    Cu3+1 0.709920 0.714710 0.495070 1.034648
C1    C     C_R   0.294948 0.728159 0.329622 0.800352
C2    C     C_R   0.705075 0.271902 0.670358 0.799481
C3    C     C_R   0.705079 0.728093 0.670360 0.799493
C4    C     C_R   0.294942 0.271854 0.329671 0.802437
C5    C     C_R   0.794925 0.228097 0.329642 0.799481
C6    C     C_R   0.205051 0.771840 0.670378 0.800348
C7    C     C_R   0.205057 0.228146 0.670329 0.802438
C8    C     C_R   0.794921 0.771906 0.329640 0.799493
O17   O     O_R   0.250530 0.763330 0.367210 -0.588075
O18   O     O_R   0.749470 0.236670 0.632790 -0.576251
O19   O     O_R   0.749470 0.763330 0.632790 -0.586897
O20   O     O_R   0.250530 0.236670 0.367210 -0.572889
O21   O     O_R   0.750530 0.263330 0.367210 -0.576252
O22   O     O_R   0.249470 0.736670 0.632790 -0.588089
O23   O     O_R   0.249470 0.263330 0.632790 -0.572890
O24   O     O_R   0.750530 0.736670 0.367210 -0.586898
O25   O     O_R   0.177260 0.690030 0.513710 -0.613704
O26   O     O_R   0.822740 0.309970 0.486290 -0.615965
O27   O     O_R   0.822740 0.690030 0.486290 -0.612715
O28   O     O_R   0.177260 0.309970 0.513710 -0.607851
O29   O     O_R   0.677260 0.190030 0.513710 -0.615965
O30   O     O_R   0.322740 0.809970 0.486290 -0.613706
O31   O     O_R   0.322740 0.190030 0.486290 -0.607851
O32   O     O_R   0.677260 0.809970 0.513710 -0.612715
C9    C     C_R   0.199269 0.630957 0.518080 0.830323
C10   C     C_R   0.803503 0.367941 0.471915 0.825895
C11   C     C_R   0.800841 0.630966 0.481591 0.829789
C12   C     C_R   0.196546 0.367966 0.527849 0.830221
C13   C     C_R   0.696497 0.132059 0.528085 0.825895
C14   C     C_R   0.300731 0.869043 0.481920 0.830323
C15   C     C_R   0.303454 0.132034 0.472151 0.830221
C16   C     C_R   0.699159 0.869034 0.518409 0.829787
C17   C     C_R   0.048745 0.496855 0.505480 0.049967
C18   C     C_R   0.952779 0.496970 0.489729 0.045172
C19   C     C_R   0.547222 0.003030 0.510270 0.045171
C20   C     C_R   0.451255 0.003145 0.494519 0.049965
C21   C     C_R   0.026880 0.560808 0.494116 0.044592
C22   C     C_R   0.978917 0.432519 0.487200 0.041043
C23   C     C_R   0.974979 0.560904 0.500426 0.045538
C24   C     C_R   0.022527 0.432467 0.507916 0.050618
C25   C     C_R   0.521083 0.067481 0.512799 0.041043
C26   C     C_R   0.473120 0.939192 0.505882 0.044593
C27   C     C_R   0.477473 0.067533 0.492083 0.050617
C28   C     C_R   0.525021 0.939095 0.499573 0.045537
C29   C     C_R   0.115237 0.434345 0.535832 0.023383
C30   C     C_R   0.874733 0.561369 0.496601 0.018025
C31   C     C_R   0.885392 0.434388 0.461659 0.014197
C32   C     C_R   0.126332 0.561211 0.500510 0.020358
C33   C     C_R   0.625267 0.938631 0.503398 0.018025
C34   C     C_R   0.384763 0.065655 0.464168 0.023384
C35   C     C_R   0.373668 0.938789 0.499489 0.020360
C36   C     C_R   0.614608 0.065612 0.538340 0.014198
C37   C     C_R   0.165300 0.434432 0.538882 -0.213326
C38   C     C_R   0.829085 0.563389 0.479624 -0.231027
C39   C     C_R   0.834889 0.434430 0.460148 -0.214450
C40   C     C_R   0.171313 0.563331 0.519205 -0.229141
C41   C     C_R   0.670915 0.936611 0.520375 -0.231027
C42   C     C_R   0.334700 0.065568 0.461118 -0.213328
C43   C     C_R   0.328687 0.936669 0.480795 -0.229142
C44   C     C_R   0.665111 0.065570 0.539852 -0.214450
C45   C     C_R   0.189322 0.499554 0.540587 0.260350
C46   C     C_R   0.810688 0.499553 0.459052 0.257111
C47   C     C_R   0.689312 0.000447 0.540948 0.257109
C48   C     C_R   0.310678 0.000446 0.459413 0.260339
C49   C     C_R   0.096765 0.497548 0.514574 0.082858
C50   C     C_R   0.904338 0.497676 0.481910 0.077035
C51   C     C_R   0.595662 0.002324 0.518089 0.077034
C52   C     C_R   0.403235 0.002452 0.485425 0.082857
C53   C     C_R   0.607469 0.879582 0.472147 -0.147407
C54   C     C_R   0.417606 0.126637 0.445923 -0.123313
C55   C     C_R   0.390853 0.879826 0.531786 -0.139113
C56   C     C_R   0.581797 0.126654 0.557118 -0.130866
C57   C     C_R   0.082394 0.373363 0.554077 -0.123311
C58   C     C_R   0.892531 0.620418 0.527851 -0.147405
C59   C     C_R   0.918203 0.373346 0.442881 -0.130863
C60   C     C_R   0.109147 0.620174 0.468212 -0.139108
C61   C     C_R   0.556690 0.878065 0.477026 -0.206045
C62   C     C_R   0.460946 0.128791 0.464869 -0.183727
C63   C     C_R   0.441303 0.878272 0.528248 -0.201868
C64   C     C_R   0.537983 0.128776 0.539386 -0.188741
C65   C     C_R   0.039054 0.371208 0.535130 -0.183725
C66   C     C_R   0.943310 0.621935 0.522973 -0.206042
C67   C     C_R   0.962017 0.371224 0.460613 -0.188738
C68   C     C_R   0.058698 0.621728 0.471750 -0.201861
H1    H     H_    0.632027 0.834165 0.440454 0.177624
H2    H     H_    0.411890 0.173059 0.414004 0.169351
H3    H     H_    0.366058 0.834463 0.562974 0.177327
H4    H     H_    0.588029 0.173200 0.588295 0.176749
H5    H     H_    0.088110 0.326941 0.585995 0.169351
H6    H     H_    0.867974 0.665835 0.559545 0.177624
H7    H     H_    0.911971 0.326800 0.411704 0.176749
H8    H     H_    0.133943 0.665536 0.437025 0.177329
H9    H     H_    0.544068 0.830150 0.456633 0.148765
H10   H     H_    0.483447 0.177696 0.452297 0.142808
H11   H     H_    0.453622 0.830372 0.549137 0.149377
H12   H     H_    0.515555 0.177748 0.552092 0.156787
H13   H     H_    0.016553 0.322304 0.547702 0.142808
H14   H     H_    0.955933 0.669850 0.543365 0.148766
H15   H     H_    0.984445 0.322252 0.447907 0.156789
H16   H     H_    0.046379 0.669628 0.450861 0.149381
H17   H     H_    0.227529 0.874463 0.984735 0.199163
H18   H     H_    0.774368 0.125718 0.011764 0.192332
H19   H     H_    0.774242 0.874318 0.012005 0.192256
H20   H     H_    0.153176 0.278547 0.059064 0.197056
H21   H     H_    0.725631 0.374281 0.988236 0.192332
H22   H     H_    0.272439 0.625501 0.015311 0.199220
H23   H     H_    0.346823 0.221454 0.940936 0.197054
H24   H     H_    0.725758 0.625682 0.987995 0.192256
C69   C     C_R   0.218699 0.765463 0.956147 -0.086820
C70   C     C_R   0.781292 0.234467 0.043859 -0.080582
C71   C     C_R   0.781255 0.765568 0.043905 -0.080897
C72   C     C_R   0.222061 0.228669 0.952541 -0.084486
C73   C     C_R   0.718708 0.265533 0.956141 -0.080583
C74   C     C_R   0.281273 0.734499 0.043884 -0.086834
C75   C     C_R   0.277938 0.271332 0.047460 -0.084483
C76   C     C_R   0.718745 0.734432 0.956095 -0.080898
C77   C     C_R   0.231858 0.694384 0.964204 0.352525
C78   C     C_R   0.766982 0.305353 0.037785 0.343115
C79   C     C_R   0.767024 0.694661 0.037698 0.343778
C80   C     C_R   0.277404 0.212464 0.918459 0.365512
C81   C     C_R   0.733018 0.194647 0.962215 0.343116
C82   C     C_R   0.268102 0.805572 0.035843 0.352601
C83   C     C_R   0.222596 0.287536 0.081542 0.365520
C84   C     C_R   0.732976 0.805339 0.962302 0.343779
C85   C     C_R   0.263379 0.680034 0.007263 -0.279412
C86   C     C_R   0.735491 0.319784 0.994725 -0.282701
C87   C     C_R   0.735566 0.680192 0.994588 -0.284520
C88   C     C_R   0.304691 0.234817 0.965997 -0.263274
C89   C     C_R   0.764509 0.180216 0.005275 -0.282701
C90   C     C_R   0.236588 0.819927 0.992777 -0.279394
C91   C     C_R   0.195309 0.265184 0.034003 -0.263253
C92   C     C_R   0.764434 0.819808 0.005412 -0.284521
C93   C     C_R   0.143704 0.828919 0.944953 -0.166038
C94   C     C_R   0.856381 0.171159 0.055004 -0.175004
C95   C     C_R   0.856337 0.828878 0.055046 -0.172589
C96   C     C_R   0.145362 0.168426 0.943520 -0.164630
C97   C     C_R   0.643619 0.328841 0.944996 -0.175005
C98   C     C_R   0.356280 0.671059 0.055058 -0.166036
C99   C     C_R   0.354637 0.331574 0.056480 -0.164626
C100  C     C_R   0.643663 0.671122 0.944954 -0.172591
H25   H     H_    0.129484 0.846031 0.013635 0.161617
H26   H     H_    0.870700 0.154174 0.986252 0.162246
H27   H     H_    0.870656 0.845834 0.986295 0.162585
H28   H     H_    0.132012 0.150016 0.011474 0.163554
H29   H     H_    0.629300 0.345826 0.013748 0.162245
H30   H     H_    0.370493 0.653939 0.986380 0.161608
H31   H     H_    0.367988 0.349984 0.988526 0.163553
H32   H     H_    0.629344 0.654166 0.013705 0.162585
C101  C     C_R   0.117649 0.851878 0.895438 -0.067794
C102  C     C_R   0.882413 0.148182 0.104536 -0.068969
C103  C     C_R   0.882379 0.851863 0.104563 -0.069472
C104  C     C_R   0.118129 0.147401 0.895086 -0.067106
C105  C     C_R   0.617587 0.351818 0.895464 -0.068969
C106  C     C_R   0.382344 0.648115 0.104565 -0.067787
C107  C     C_R   0.381871 0.352599 0.104914 -0.067108
C108  C     C_R   0.617621 0.648137 0.895437 -0.069473
C109  C     C_R   0.136605 0.829849 0.806991 -0.206098
C110  C     C_R   0.863440 0.170179 0.193001 -0.213811
C111  C     C_R   0.863403 0.829895 0.193033 -0.208762
C112  C     C_R   0.136552 0.170267 0.807057 -0.213761
C113  C     C_R   0.636559 0.329821 0.806999 -0.213812
C114  C     C_R   0.363394 0.670153 0.193007 -0.206102
C115  C     C_R   0.363448 0.329733 0.192943 -0.213762
C116  C     C_R   0.636597 0.670105 0.806967 -0.208763
H33   H     H_    0.116927 0.848192 0.768513 0.183687
H34   H     H_    0.883147 0.151892 0.231459 0.183195
H35   H     H_    0.883119 0.848187 0.231487 0.184119
H36   H     H_    0.116120 0.153197 0.769228 0.181903
H37   H     H_    0.616853 0.348108 0.768541 0.183195
H38   H     H_    0.383079 0.651821 0.231479 0.183684
H39   H     H_    0.383880 0.346803 0.230772 0.181902
H40   H     H_    0.616881 0.651813 0.768513 0.184118
C117  C     C_R   0.182369 0.787440 0.766289 -0.070141
C118  C     C_R   0.817613 0.212462 0.233747 -0.070620
C119  C     C_R   0.817573 0.787603 0.233776 -0.070314
C120  C     C_R   0.182684 0.211988 0.765945 -0.068901
C121  C     C_R   0.682387 0.287538 0.766253 -0.070621
C122  C     C_R   0.317628 0.712556 0.233713 -0.070150
C123  C     C_R   0.317316 0.288012 0.234056 -0.068899
C124  C     C_R   0.682427 0.712396 0.766224 -0.070315
C125  C     C_R   0.208493 0.764794 0.815911 -0.107126
C126  C     C_R   0.791419 0.234945 0.184190 -0.103811
C127  C     C_R   0.791357 0.765139 0.184235 -0.110542
C128  C     C_R   0.209751 0.233006 0.814615 -0.092553
C129  C     C_R   0.708581 0.265054 0.815810 -0.103811
C130  C     C_R   0.291497 0.735192 0.184098 -0.107125
C131  C     C_R   0.290249 0.266994 0.185386 -0.092564
C132  C     C_R   0.708642 0.734861 0.815765 -0.110541
H41   H     H_    0.244758 0.733069 0.784459 0.160699
H42   H     H_    0.755052 0.266459 0.215762 0.164519
H43   H     H_    0.754982 0.733636 0.215801 0.162182
H44   H     H_    0.245820 0.265121 0.783269 0.166402
H45   H     H_    0.744948 0.233541 0.784238 0.164519
H46   H     H_    0.255228 0.766911 0.215555 0.160741
H47   H     H_    0.254179 0.234880 0.216731 0.166404
H48   H     H_    0.745018 0.766363 0.784199 0.162183
C133  C     C_R   0.189129 0.785176 0.905598 0.142867
C134  C     C_R   0.810854 0.214719 0.094428 0.136580
C135  C     C_R   0.810799 0.785344 0.094483 0.138095
C136  C     C_R   0.191641 0.210471 0.903113 0.134716
C137  C     C_R   0.689146 0.285281 0.905572 0.136580
C138  C     C_R   0.310853 0.714799 0.094417 0.142799
C139  C     C_R   0.308358 0.289530 0.096887 0.134711
C140  C     C_R   0.689201 0.714656 0.905517 0.138096
O33   O     O_R   0.051640 0.926880 0.885090 -0.584346
O34   O     O_R   0.948360 0.073120 0.114910 -0.585585
O35   O     O_R   0.948360 0.926880 0.114910 -0.584853
O36   O     O_R   0.051640 0.073120 0.885090 -0.585505
O37   O     O_R   0.551640 0.426880 0.885090 -0.585586
O38   O     O_R   0.448360 0.573120 0.114910 -0.584342
O39   O     O_R   0.448360 0.426880 0.114910 -0.585504
O40   O     O_R   0.551640 0.573120 0.885090 -0.584853
Cu9   Cu    Cu3+1 0.495240 0.500000 0.924150 0.987592
Cu10  Cu    Cu3+1 0.504760 0.500000 0.075850 0.985506
Cu11  Cu    Cu3+1 0.995240 0.000000 0.924150 0.985509
Cu12  Cu    Cu3+1 0.004760 0.000000 0.075850 0.987607
C141  C     C_R   0.926541 0.903174 0.066588 0.807214
C142  C     C_R   0.073580 0.096667 0.933322 0.809753
C143  C     C_R   0.073482 0.903199 0.933390 0.812082
C144  C     C_R   0.926553 0.096840 0.066585 0.804009
C145  C     C_R   0.426420 0.403333 0.066678 0.809752
C146  C     C_R   0.573458 0.596826 0.933412 0.807220
C147  C     C_R   0.573447 0.403160 0.933415 0.804011
C148  C     C_R   0.426516 0.596800 0.066611 0.812076
O41   O     O_R   0.940620 0.926560 0.986760 -0.588543
O42   O     O_R   0.059380 0.073440 0.013240 -0.587600
O43   O     O_R   0.059380 0.926560 0.013240 -0.587423
O44   O     O_R   0.940620 0.073440 0.986760 -0.589506
O45   O     O_R   0.440620 0.426560 0.986760 -0.587603
O46   O     O_R   0.559380 0.573440 0.013240 -0.588542
O47   O     O_R   0.559380 0.426560 0.013240 -0.589506
O48   O     O_R   0.440620 0.573440 0.986760 -0.587424
N1    N     N_R   0.231096 0.500681 0.567468 0.152428
O49   O     O_R   0.281481 0.501574 0.507312 -0.327095
O50   O     O_R   0.218886 0.490730 0.651153 -0.319863
N2    N     N_R   0.768242 0.500619 0.433745 0.154036
O51   O     O_R   0.779602 0.490821 0.350384 -0.290850
O52   O     O_R   0.718110 0.501530 0.494966 -0.331770
N3    N     N_R   0.731757 0.999381 0.566256 0.154036
O53   O     O_R   0.781889 0.998470 0.505034 -0.331768
O54   O     O_R   0.720397 0.009179 0.649616 -0.290851
N4    N     N_R   0.268904 0.999319 0.432533 0.152432
O55   O     O_R   0.281113 0.009270 0.348847 -0.319840
O56   O     O_R   0.218519 0.998426 0.492689 -0.327086
N5    N     N_R   0.212113 0.636226 0.932331 0.127870
O57   O     O_R   0.164107 0.638337 0.938408 -0.320003
O58   O     O_R   0.239369 0.577467 0.907191 -0.326491
N6    N     N_R   0.785474 0.363331 0.071876 0.128520
O59   O     O_R   0.756328 0.420254 0.101271 -0.283304
O60   O     O_R   0.833855 0.363036 0.064302 -0.311624
N7    N     N_R   0.785563 0.636705 0.071704 0.128312
O61   O     O_R   0.833932 0.637091 0.064179 -0.308711
O62   O     O_R   0.756482 0.579716 0.100951 -0.284322
N8    N     N_R   0.305934 0.171312 0.838097 0.123195
O63   O     O_R   0.282511 0.118401 0.820570 -0.343899
O64   O     O_R   0.357326 0.180804 0.788035 -0.354196
N9    N     N_R   0.714526 0.136669 0.928124 0.128519
O65   O     O_R   0.666145 0.136964 0.935697 -0.311626
O66   O     O_R   0.743671 0.079746 0.898729 -0.283304
N10   N     N_R   0.287824 0.863722 0.067759 0.127806
O67   O     O_R   0.260488 0.922409 0.093124 -0.326508
O68   O     O_R   0.335866 0.861682 0.061535 -0.319976
N11   N     N_R   0.194065 0.328688 0.161905 0.123203
O69   O     O_R   0.142674 0.319194 0.211967 -0.354190
O70   O     O_R   0.217488 0.381600 0.179429 -0.343884
N12   N     N_R   0.714437 0.863294 0.928296 0.128311
O71   O     O_R   0.743518 0.920284 0.899049 -0.284322
O72   O     O_R   0.666068 0.862909 0.935821 -0.308715

loop_
_geom_bond_atom_site_label_1
_geom_bond_atom_site_label_2
_geom_bond_distance
_ccdc_geom_bond_type
C118  C126  1.407421 A    
Cu2   Cu5   2.681664 S    
C33   C53   1.417633 A    
C10   C39   1.492094 S    
C35   C55   1.417308 A    
C16   C41   1.493498 S    
Cu10  O46   1.970762 S    
N10   O67   1.301486 A    
O35   C141  1.301881 A    
C58   H6    1.074117 S    
Cu11  O41   1.970762 S    
Cu6   O22   1.958663 S    
C75   C88   1.402662 A    
C114  C122  1.393627 A    
C104  C112  1.393771 A    
C34   C52   1.411010 A    
C21   C23   1.408047 A    
O37   Cu9   1.968275 S    
C22   C24   1.417048 A    
Cu4   O28   1.975865 S    
C94   C102  1.406309 A    
Cu11  Cu12  2.687637 S    
N6    O59   1.301064 A    
N11   O70   1.301410 A    
O3    Cu3   1.970337 S    
C83   C91   1.402840 A    
C57   C65   1.391199 A    
C126  H42   1.083505 S    
C79   C87   1.403178 A    
C43   C48   1.414857 A    
C120  C128  1.406273 A    
C68   H16   1.082966 S    
C99   C139  1.399452 A    
C33   C41   1.433966 A    
C14   C43   1.493068 S    
C107  C145  1.465150 S    
C60   C68   1.387108 A    
O40   C146  1.301879 A    
C141  O41   1.291176 A    
C28   C61   1.395460 A    
C53   C61   1.386809 A    
C132  H48   1.083519 S    
C3    O19   1.289211 A    
C145  O45   1.290924 A    
C101  C143  1.465335 S    
C82   C90   1.403683 A    
O12   Cu4   1.956364 S    
O13   Cu5   1.956244 S    
C19   C51   1.422707 A    
C96   C136  1.399451 A    
N5    O58   1.301467 A    
C97   C105  1.406309 A    
C12   C37   1.491614 S    
C8    O24   1.289211 A    
C103  C111  1.393420 A    
C73   C81   1.414158 A    
N3    O54   1.300853 A    
C26   C63   1.395872 A    
O2    C13   1.310648 A    
H19   C92   1.083786 S    
C17   C21   1.406385 A    
C71   C135  1.483379 S    
C58   C66   1.386809 A    
C9    C40   1.493067 S    
C129  H45   1.083504 S    
C11   C38   1.493500 S    
Cu3   O19   1.958865 S    
C36   C56   1.415695 A    
O10   Cu2   1.956244 S    
C95   H27   1.083613 S    
C96   H28   1.083656 S    
O34   C144  1.302030 A    
O4    Cu4   1.970339 S    
O5    Cu5   1.970091 S    
C54   C62   1.391200 A    
Cu12  O43   1.970699 S    
C110  H34   1.083372 S    
C45   N1    1.436729 S    
C127  C135  1.401822 A    
Cu9   O48   1.970696 S    
C29   C37   1.426937 A    
O32   C16   1.292378 A    
C81   N9    1.438656 S    
C102  C110  1.393294 A    
C31   C39   1.426764 A    
C6    O22   1.289188 A    
C13   C44   1.492096 S    
O7    C12   1.310838 A    
C8    C119  1.465972 S    
Cu2   O26   1.975728 S    
C70   C89   1.404767 A    
O40   Cu9   1.968144 S    
C74   C138  1.483447 S    
N1    O49   1.302799 A    
C73   C137  1.483755 S    
C20   C27   1.410767 A    
C112  C120  1.393870 A    
O33   Cu11  1.968275 S    
C102  C144  1.465115 S    
C97   H29   1.083605 S    
O28   C12   1.290551 A    
O16   C3    1.300330 A    
C71   C79   1.414089 A    
C37   C45   1.407963 A    
Cu9   Cu10  2.687637 S    
C93   C133  1.400394 A    
C130  C138  1.401773 A    
C123  C131  1.406275 A    
C29   C49   1.411010 A    
C121  C129  1.407421 A    
C98   C138  1.400393 A    
C55   C63   1.387112 A    
Cu5   O29   1.975728 S    
C20   C52   1.422538 A    
C74   C85   1.404788 A    
C76   C140  1.483379 S    
C78   N6    1.438657 S    
C143  O43   1.290987 A    
C94   C134  1.400398 A    
C69   C90   1.404799 A    
Cu8   O32   1.975865 S    
C2    C121  1.465966 S    
C93   H25   1.083618 S    
C72   C91   1.402660 A    
O37   C147  1.302029 A    
C116  C124  1.393680 A    
C71   C92   1.404702 A    
O35   Cu12  1.968143 S    
C132  C140  1.401822 A    
C106  C114  1.393254 A    
C72   C136  1.480455 S    
Cu4   Cu7   2.681178 S    
C84   N12   1.438663 S    
C66   H14   1.082983 S    
Cu1   O17   1.958661 S    
C46   N2    1.436704 S    
N4    O56   1.302800 A    
O9    C6    1.300706 A    
O26   C10   1.291289 A    
O11   C8    1.300329 A    
O12   C7    1.299794 A    
C99   C107  1.406780 A    
O39   Cu10  1.968143 S    
O13   C2    1.300501 A    
C100  H32   1.083613 S    
C47   N3    1.436704 S    
C82   N10   1.439642 S    
H17   C90   1.083740 S    
C104  C142  1.465150 S    
Cu11  O44   1.970696 S    
C4    C123  1.464595 S    
C114  H38   1.083372 S    
N2    O51   1.300852 A    
N9    O66   1.301063 A    
C131  H47   1.083623 S    
O1    Cu1   1.970091 S    
Cu10  O47   1.970699 S    
O14   Cu6   1.956244 S    
Cu7   O31   1.975865 S    
N10   O68   1.301368 A    
C32   C40   1.433565 A    
C19   C25   1.410561 A    
C31   C50   1.411350 A    
C126  C134  1.401891 A    
C42   C48   1.407964 A    
O8    Cu8   1.970339 S    
C73   C86   1.404767 A    
C98   C106  1.406477 A    
C36   C51   1.411351 A    
C125  H41   1.083540 S    
N6    O60   1.301371 A    
C5    C118  1.465966 S    
N8    O63   1.301432 A    
C53   H1    1.074116 S    
C29   C57   1.415847 A    
C18   C22   1.410560 A    
Cu12  O42   1.970762 S    
C34   C54   1.415848 A    
C117  C125  1.407721 A    
N7    O61   1.301367 A    
C60   H8    1.074452 S    
C67   H15   1.082133 S    
C36   C44   1.426760 A    
N3    O53   1.302823 A    
O11   Cu3   1.956364 S    
C17   C49   1.422538 A    
Cu7   O23   1.958865 S    
O36   C142  1.302147 A    
Cu9   O45   1.970762 S    
C30   C38   1.433966 A    
C59   H7    1.078111 S    
C107  C115  1.393772 A    
O6    Cu6   1.970088 S    
C115  C123  1.393870 A    
C105  C113  1.393294 A    
C75   C139  1.480451 S    
N12   O71   1.301065 A    
O38   Cu10  1.968272 S    
C113  C121  1.393580 A    
C7    C120  1.464595 S    
C108  C116  1.393420 A    
O38   C148  1.302193 A    
C109  H33   1.083370 S    
C35   C43   1.433564 A    
C25   C27   1.417048 A    
O36   Cu11  1.968144 S    
C69   C133  1.483478 S    
C112  H36   1.083390 S    
C77   N5    1.439732 S    
C99   H31   1.083658 S    
C100  C108  1.406123 A    
C20   C26   1.406387 A    
N5    O57   1.301374 A    
C79   N7    1.438665 S    
H23   C88   1.083814 S    
C129  C137  1.401891 A    
C34   C42   1.426934 A    
Cu3   O27   1.975865 S    
C142  O42   1.290923 A    
C22   C67   1.399471 A    
C146  O46   1.291175 A    
C54   H2    1.078045 S    
C40   C45   1.414857 A    
C70   C78   1.414159 A    
N11   O69   1.301496 A    
C98   H30   1.083628 S    
O30   C14   1.292779 A    
C127  H43   1.083519 S    
C23   C66   1.395460 A    
C18   C50   1.422708 A    
C76   C87   1.404700 A    
C41   C47   1.414948 A    
Cu6   O30   1.975728 S    
O4    C15   1.310834 A    
O5    C10   1.310647 A    
C128  C136  1.400020 A    
C94   H26   1.083605 S    
O25   C9    1.292778 A    
C59   C67   1.391380 A    
C69   C77   1.414594 A    
Cu1   Cu6   2.681664 S    
C61   H9    1.082984 S    
C78   C86   1.403317 A    
Cu3   Cu8   2.681178 S    
C72   C80   1.415822 A    
O10   C5    1.300500 A    
O27   C11   1.292377 A    
O15   C4    1.299794 A    
C105  C147  1.465115 S    
C31   C59   1.415693 A    
C109  C117  1.393637 A    
O14   C1    1.300711 A    
Cu4   O20   1.958864 S    
H18   C89   1.083781 S    
Cu5   O21   1.958661 S    
C4    O20   1.289120 A    
C80   C88   1.402832 A    
C5    O21   1.289299 A    
H24   C87   1.083788 S    
C80   N8    1.439792 S    
C84   C92   1.403178 A    
C39   C46   1.408206 A    
C93   C101  1.406469 A    
C64   H12   1.082133 S    
C147  O47   1.291034 A    
C26   C28   1.408047 A    
O2    Cu2   1.970088 S    
O34   Cu12  1.968272 S    
C110  C118  1.393580 A    
C44   C47   1.408207 A    
C76   C84   1.414091 A    
C77   C85   1.403738 A    
C24   C65   1.399291 A    
C56   H4    1.078109 S    
C75   C83   1.415810 A    
N7    O62   1.301063 A    
C74   C82   1.414534 A    
O33   C143  1.302174 A    
O7    Cu7   1.970337 S    
C21   C68   1.395874 A    
H20   C91   1.083806 S    
C2    O18   1.289299 A    
C62   H10   1.082106 S    
C81   C89   1.403319 A    
C38   C46   1.414948 A    
O15   Cu7   1.956364 S    
C128  H44   1.083621 S    
C95   C103  1.406126 A    
C96   C104  1.406784 A    
C124  C132  1.407312 A    
C30   C50   1.416068 A    
C122  C130  1.407715 A    
C97   C137  1.400396 A    
C3    C124  1.465973 S    
C33   C51   1.416068 A    
N2    O52   1.302823 A    
C1    C122  1.466070 S    
C70   C134  1.483752 S    
N9    O65   1.301371 A    
C111  C119  1.393681 A    
N1    O50   1.300811 A    
O1    C14   1.307806 A    
C19   C28   1.406723 A    
O3    C16   1.308153 A    
H22   C85   1.083711 S    
C119  C127  1.407311 A    
C65   H13   1.082106 S    
C100  C140  1.400291 A    
C15   C42   1.491616 S    
Cu2   O18   1.958663 S    
O8    C11   1.308149 A    
C35   C52   1.415960 A    
C106  C148  1.465346 S    
O9    Cu1   1.956244 S    
N8    O64   1.301484 A    
C57   H5    1.078046 S    
C17   C24   1.410768 A    
O31   C15   1.290552 A    
C32   C60   1.417309 A    
C18   C23   1.406723 A    
C103  C141  1.465096 S    
C144  O44   1.291035 A    
C115  H39   1.083390 S    
C63   H11   1.082965 S    
C113  H37   1.083373 S    
C111  H35   1.083363 S    
C148  O48   1.290983 A    
C130  H46   1.083567 S    
C56   C64   1.391379 A    
C83   N11   1.439798 S    
H21   C86   1.083780 S    
C55   H3    1.074452 S    
C32   C49   1.415958 A    
C48   N4    1.436727 S    
C95   C135  1.400290 A    
C125  C133  1.401789 A    
Cu8   O24   1.958864 S    
C7    O23   1.289122 A    
N12   O72   1.301367 A    
C101  C109  1.393259 A    
O6    C9    1.307811 A    
Cu1   O25   1.975728 S    
N4    O55   1.300811 A    
O29   C13   1.291290 A    
C6    C117  1.466075 S    
C116  H40   1.083363 S    
O16   Cu8   1.956364 S    
C1    O17   1.289180 A    
C131  C139  1.400020 A    
C25   C64   1.399472 A    
O39   C145  1.302147 A    
C30   C58   1.417636 A    
C27   C62   1.399290 A    
C108  C146  1.465099 S    
