data_mof_unit_1267.cif
_audit_creation_date              2012-10-26T17:11:08-0400
_audit_creation_method            fapswitch 2.2
_symmetry_space_group_name_H-M    P1
_symmetry_Int_Tables_number       1
_space_group_crystal_system       triclinic
_cell_length_a                    27.982189
_cell_length_b                    18.701226
_cell_length_c                    16.779874
_cell_angle_alpha                 90.077632
_cell_angle_beta                  63.02595
_cell_angle_gamma                 90.134926
_cell_volume                      7825.64753163

loop_
_atom_site_label
_atom_site_type_symbol
_atom_type_description
_atom_site_fract_x
_atom_site_fract_y
_atom_site_fract_z
_atom_type_partial_charge
C1    C     C_R   0.295421 0.729294 0.329115 0.553307
C2    C     C_R   0.464695 0.129448 0.450102 -0.151852
C3    C     C_R   0.927371 0.098494 0.065744 0.536861
C4    C     C_R   0.424550 0.406024 0.067989 0.553701
C5    C     C_R   0.572585 0.598586 0.934343 0.537094
C6    C     C_R   0.575395 0.405962 0.932030 0.553526
C7    C     C_R   0.427340 0.598443 0.065766 0.536740
C8    C     C_R   0.044275 0.502365 0.519071 0.033167
C9    C     C_R   0.948806 0.503007 0.502369 0.033025
C10   C     C_R   0.557785 0.000863 0.475833 0.031760
C11   C     C_R   0.465026 0.000533 0.448876 0.032778
C12   C     C_R   0.018800 0.567670 0.520646 0.008349
C13   C     C_R   0.472749 0.873337 0.420782 -0.147018
C14   C     C_R   0.969518 0.438491 0.516424 0.009992
C15   C     C_R   0.975457 0.567855 0.499076 0.008047
C16   C     C_R   0.021165 0.437853 0.510336 0.009867
C17   C     C_R   0.528311 0.064374 0.486960 0.008554
C18   C     C_R   0.493947 0.936417 0.438219 0.010998
C19   C     C_R   0.485704 0.065382 0.463642 0.009081
C20   C     C_R   0.542947 0.937969 0.445025 0.010926
C21   C     C_R   0.122573 0.437007 0.509265 0.005789
C22   C     C_R   0.883935 0.565701 0.467566 0.008032
C23   C     C_R   0.872017 0.438176 0.504978 0.004273
C24   C     C_R   0.540448 0.124048 0.525577 -0.148055
C25   C     C_R   0.113492 0.565473 0.542660 0.007336
C26   C     C_R   0.633359 0.937856 0.480775 0.003500
C27   C     C_R   0.389600 0.065911 0.446058 0.006851
C28   C     C_R   0.391052 0.934985 0.440082 0.007539
C29   C     C_R   0.617813 0.063521 0.524466 0.008903
C30   C     C_R   0.170269 0.435908 0.520406 -0.035934
C31   C     C_R   0.833688 0.565438 0.464875 -0.030629
C32   C     C_R   0.827645 0.436341 0.485066 -0.035731
C33   C     C_R   0.165485 0.565385 0.538711 -0.029995
C34   C     C_R   0.674218 0.936030 0.509436 -0.035076
C35   C     C_R   0.051878 0.375698 0.488542 -0.154355
C36   C     C_R   0.336071 0.065536 0.455802 -0.029590
C37   C     C_R   0.336685 0.934627 0.453477 -0.035166
C38   C     C_R   0.666813 0.064547 0.531662 -0.032652
C39   C     C_R   0.191247 0.500315 0.533074 -0.180358
C40   C     C_R   0.808459 0.500321 0.467771 -0.180163
C41   C     C_R   0.691615 0.999873 0.530807 -0.179378
C42   C     C_R   0.310894 0.999966 0.459692 -0.178915
C43   C     C_R   0.093329 0.501485 0.524649 0.032136
C44   C     C_R   0.901613 0.502267 0.491113 0.032208
C45   C     C_R   0.602804 0.000620 0.494256 0.033938
C46   C     C_R   0.959945 0.629360 0.469412 -0.149996
C47   C     C_R   0.415049 0.000381 0.445115 0.033871
C48   C     C_R   0.623062 0.880300 0.436263 -0.125385
C49   C     C_R   0.419688 0.129123 0.435664 -0.121304
C50   C     C_R   0.422986 0.872893 0.420648 -0.127380
C51   C     C_R   0.583306 0.122885 0.546084 -0.118721
C52   C     C_R   0.103114 0.376916 0.481219 -0.124385
C53   C     C_R   0.917082 0.627006 0.448784 -0.117445
C54   C     C_R   0.887710 0.378989 0.540022 -0.124178
C55   C     C_R   0.080927 0.627259 0.562614 -0.118384
C56   C     C_3   0.132233 0.674030 0.074321 -0.279410
C57   C     C_R   0.937288 0.377392 0.539494 -0.152625
C58   C     C_3   0.094043 0.706552 0.164464 -0.440383
C59   C     C_3   0.848734 0.293472 0.938946 -0.271139
C60   C     C_3   0.849101 0.355463 0.998006 -0.429379
C61   C     C_3   0.867919 0.673322 0.924219 -0.279352
C62   C     C_3   0.906031 0.706102 0.834150 -0.440588
C63   C     C_3   0.151672 0.294566 0.060384 -0.271182
C64   C     C_3   0.151940 0.356553 0.001027 -0.429535
C65   C     C_3   0.632012 0.173692 0.075361 -0.279547
C66   C     C_3   0.593993 0.206206 0.165628 -0.439814
C67   C     C_3   0.348816 0.793838 0.939886 -0.270769
C68   C     C_R   0.036456 0.629588 0.546247 -0.150166
C69   C     C_3   0.349008 0.855514 0.999490 -0.430099
C70   C     C_3   0.367437 0.173097 0.925377 -0.279229
C71   C     C_3   0.405819 0.205647 0.835339 -0.440742
C72   C     C_3   0.651545 0.793294 0.061528 -0.271341
C73   C     C_3   0.651312 0.855497 0.002839 -0.428854
C74   C     C_3   0.158781 0.919671 0.739804 -0.254481
C75   C     C_3   0.216363 0.948128 0.695240 -0.430760
C76   C     C_3   0.915207 0.206723 0.209612 -0.253487
C77   C     C_3   0.919657 0.287341 0.221150 -0.439622
C78   C     C_3   0.839982 0.920079 0.258847 -0.257481
C79   C     C_R   0.210562 0.748500 0.960626 0.021444
C80   C     C_3   0.782798 0.948886 0.296139 -0.433351
C81   C     C_3   0.084723 0.206598 0.790417 -0.253721
C82   C     C_3   0.080386 0.287153 0.778673 -0.439555
C83   C     C_3   0.659837 0.420001 0.740838 -0.256513
C84   C     C_3   0.717163 0.448922 0.701881 -0.433036
C85   C     C_3   0.415290 0.707685 0.208718 -0.255329
C86   C     C_3   0.419852 0.788607 0.217607 -0.448849
C87   C     C_3   0.340499 0.419965 0.259441 -0.256091
C88   C     C_3   0.283143 0.448640 0.299611 -0.433039
C89   C     C_3   0.584747 0.706713 0.790612 -0.253358
C90   C     C_R   0.771535 0.216189 0.052142 0.024906
C91   C     C_3   0.580427 0.787316 0.779221 -0.439521
C92   C     C_R   0.789874 0.747183 0.039218 0.021799
C93   C     C_R   0.706469 0.274529 0.669534 0.550293
C94   C     C_R   0.228439 0.216681 0.947726 0.025020
C95   C     C_R   0.710232 0.247899 0.960891 0.021682
C96   C     C_R   0.271541 0.716173 0.052190 0.025026
C97   C     C_R   0.289573 0.247723 0.039425 0.021681
C98   C     C_R   0.728579 0.716354 0.947694 0.025004
C99   C     C_R   0.263087 0.774351 0.929770 -0.115215
C100  C     C_R   0.718928 0.190014 0.083652 -0.115517
C101  C     C_R   0.737391 0.773079 0.070737 -0.116296
C102  C     C_R   0.280806 0.190036 0.916517 -0.115432
C103  C     C_R   0.762807 0.273710 0.929582 -0.116098
C104  C     C_R   0.704557 0.729348 0.670928 0.557964
C105  C     C_R   0.218973 0.689991 0.083269 -0.115513
C106  C     C_R   0.237237 0.274014 0.070435 -0.115919
C107  C     C_R   0.781079 0.690068 0.916005 -0.115508
C108  C     C_R   0.293720 0.759725 0.974708 0.028235
C109  C     C_R   0.687698 0.205600 0.039393 0.027492
C110  C     C_R   0.706590 0.759179 0.025858 0.028156
C111  C     C_R   0.311967 0.205319 0.961021 0.027678
C112  C     C_R   0.793600 0.259384 0.974330 0.028215
C113  C     C_R   0.187907 0.705880 0.038827 0.027696
C114  C     C_R   0.206528 0.260019 0.025422 0.028141
C115  C     C_R   0.293553 0.274494 0.330451 0.552463
C116  C     C_R   0.812323 0.705249 0.960398 0.027546
C117  C     C_R   0.138382 0.819602 0.947797 -0.134542
C118  C     C_R   0.849480 0.158546 0.061708 -0.137975
C119  C     C_R   0.862344 0.818113 0.051715 -0.134627
C120  C     C_R   0.150397 0.159066 0.938366 -0.137959
C121  C     C_R   0.637850 0.318733 0.948204 -0.134551
C122  C     C_R   0.349314 0.658204 0.061868 -0.138289
C123  C     C_R   0.361999 0.318658 0.051956 -0.134524
C124  C     C_R   0.650520 0.658816 0.938264 -0.138018
C125  C     C_R   0.122146 0.858577 0.892348 -0.006628
C126  C     C_R   0.795415 0.229290 0.329122 0.557205
C127  C     C_R   0.883142 0.150758 0.103095 -0.011676
C128  C     C_R   0.878338 0.857655 0.107187 -0.005078
C129  C     C_R   0.116719 0.151106 0.897060 -0.011703
C130  C     C_R   0.621772 0.357949 0.892707 -0.005484
C131  C     C_R   0.383026 0.650548 0.103167 -0.011558
C132  C     C_R   0.378108 0.358035 0.107394 -0.005614
C133  C     C_R   0.616800 0.650978 0.897020 -0.011628
C134  C     C_R   0.152978 0.854450 0.798980 0.000957
C135  C     C_R   0.871067 0.188416 0.183026 -0.000596
C136  C     C_R   0.847342 0.853816 0.200453 0.003536
C137  C     C_R   0.206477 0.774519 0.669495 0.555002
C138  C     C_R   0.128825 0.188609 0.817077 -0.000645
C139  C     C_R   0.652775 0.354025 0.799420 0.003036
C140  C     C_R   0.370995 0.688345 0.182959 0.002086
C141  C     C_R   0.347198 0.354096 0.200704 0.002471
C142  C     C_R   0.628884 0.688546 0.817103 -0.000901
C143  C     C_R   0.185601 0.793662 0.764126 0.004174
C144  C     C_R   0.818170 0.214386 0.232477 0.001111
C145  C     C_R   0.814798 0.792883 0.235531 0.003220
C146  C     C_R   0.181766 0.214618 0.767553 0.001142
C147  C     C_R   0.685344 0.293220 0.764400 0.003418
C148  C     C_R   0.204543 0.229371 0.670925 0.557641
C149  C     C_R   0.318085 0.714220 0.232522 0.002689
C150  C     C_R   0.314626 0.293171 0.235690 0.003923
C151  C     C_R   0.681820 0.714546 0.767557 0.001053
C152  C     C_R   0.201468 0.754378 0.819558 -0.146446
C153  C     C_R   0.785186 0.222259 0.189710 -0.145237
C154  C     C_R   0.799127 0.753005 0.180125 -0.148578
C155  C     C_R   0.214793 0.222673 0.810248 -0.145420
C156  C     C_R   0.701072 0.253703 0.819841 -0.148026
C157  C     C_R   0.285041 0.721961 0.189862 -0.145221
C158  C     C_R   0.298834 0.253471 0.180304 -0.147537
C159  C     C_R   0.793567 0.774479 0.330425 0.548686
C160  C     C_R   0.714863 0.722567 0.810241 -0.145267
C161  C     C_R   0.181100 0.771352 0.910338 -0.025356
C162  C     C_R   0.802567 0.198970 0.101778 -0.018236
C163  C     C_R   0.819604 0.769706 0.089251 -0.024625
C164  C     C_R   0.197376 0.199488 0.898168 -0.018179
C165  C     C_R   0.680620 0.270520 0.910713 -0.024790
C166  C     C_R   0.302418 0.698654 0.101947 -0.018532
C167  C     C_R   0.319254 0.270285 0.089493 -0.024994
C168  C     C_R   0.697473 0.699297 0.898141 -0.018192
C169  C     C_R   0.196724 0.631862 0.527547 0.554679
C170  C     C_R   0.578170 0.879448 0.421119 -0.146338
C171  C     C_R   0.800312 0.369068 0.483214 0.539056
C172  C     C_R   0.803129 0.631802 0.473082 0.556008
C173  C     C_R   0.199103 0.369031 0.518423 0.538602
C174  C     C_R   0.696915 0.131528 0.526079 0.554177
C175  C     C_R   0.303768 0.868127 0.470937 0.531878
C176  C     C_R   0.303305 0.131680 0.472589 0.555511
C177  C     C_R   0.700352 0.869008 0.514832 0.540030
C178  C     C_R   0.924635 0.905884 0.067907 0.553895
C179  C     C_R   0.072553 0.098632 0.934365 0.537050
C180  C     C_R   0.075536 0.906198 0.931892 0.553515
Cu1   Cu    Cu3+1 0.209920 0.785290 0.495070 0.891516
Cu2   Cu    Cu3+1 0.504760 0.500000 0.075850 0.887063
Cu3   Cu    Cu3+1 0.995240 1.000000 0.924150 0.886859
Cu4   Cu    Cu3+1 0.004760 1.000000 0.075850 0.888139
Cu5   Cu    Cu3+1 0.790080 0.214710 0.504930 0.884303
Cu6   Cu    Cu3+1 0.790080 0.785290 0.504930 0.892553
Cu7   Cu    Cu3+1 0.209920 0.214710 0.495070 0.883421
Cu8   Cu    Cu3+1 0.709920 0.285290 0.495070 0.894146
Cu9   Cu    Cu3+1 0.290080 0.714710 0.504930 0.890988
Cu10  Cu    Cu3+1 0.290080 0.285290 0.504930 0.890693
Cu11  Cu    Cu3+1 0.709920 0.714710 0.495070 0.887120
Cu12  Cu    Cu3+1 0.495240 0.500000 0.924150 0.889034
H1    H     H_    0.229448 0.500102 0.534925 0.158475
H2    H     H_    0.911745 0.673543 0.415809 0.148784
H3    H     H_    0.075452 0.316149 0.839773 0.141561
H4    H     H_    0.116153 0.308286 0.720273 0.174355
H5    H     H_    0.044829 0.298057 0.767648 0.133870
H6    H     H_    0.090611 0.177278 0.729183 0.175238
H7    H     H_    0.044683 0.191013 0.843480 0.159094
H8    H     H_    0.726310 0.466639 0.756726 0.146696
H9    H     H_    0.746742 0.407791 0.662015 0.156123
H10   H     H_    0.721455 0.495521 0.658155 0.150085
H11   H     H_    0.648143 0.409000 0.687227 0.176538
H12   H     H_    0.634796 0.465595 0.778927 0.172102
H13   H     H_    0.862251 0.333673 0.570894 0.152595
H14   H     H_    0.425210 0.815871 0.155293 0.146632
H15   H     H_    0.383880 0.810591 0.274810 0.160874
H16   H     H_    0.455252 0.800623 0.228752 0.127911
H17   H     H_    0.409424 0.679998 0.270867 0.172352
H18   H     H_    0.455243 0.691395 0.156163 0.159964
H19   H     H_    0.273333 0.465831 0.245380 0.146420
H20   H     H_    0.253700 0.407612 0.340455 0.158487
H21   H     H_    0.279349 0.495555 0.342726 0.148791
H22   H     H_    0.352703 0.408911 0.312400 0.176087
H23   H     H_    0.365374 0.465714 0.221194 0.172175
H24   H     H_    0.088362 0.674460 0.592297 0.149070
H25   H     H_    0.575564 0.816113 0.840407 0.141231
H26   H     H_    0.616184 0.808513 0.720850 0.174722
H27   H     H_    0.544834 0.798378 0.768362 0.134540
H28   H     H_    0.590595 0.677584 0.729278 0.176152
H29   H     H_    0.544716 0.691068 0.843650 0.159269
H30   H     H_    0.572985 0.832962 0.387691 0.097789
H31   H     H_    0.484352 0.180176 0.445967 0.103774
H32   H     H_    0.493006 0.822595 0.409613 0.100403
H33   H     H_    0.515528 0.171310 0.544189 0.104777
H34   H     H_    0.038295 0.327236 0.469656 0.105321
H35   H     H_    0.982827 0.678444 0.456432 0.105075
H36   H     H_    0.948784 0.329362 0.562424 0.104567
H37   H     H_    0.772070 0.499806 0.460020 0.158119
H38   H     H_    0.014424 0.679229 0.558504 0.104669
H39   H     H_    0.279761 0.808345 0.871027 0.111738
H40   H     H_    0.702310 0.156552 0.142821 0.112097
H41   H     H_    0.720901 0.806602 0.129945 0.108428
H42   H     H_    0.297270 0.156455 0.857427 0.111485
H43   H     H_    0.779405 0.307462 0.870612 0.108845
H44   H     H_    0.202260 0.656308 0.142234 0.111558
H45   H     H_    0.220808 0.307900 0.129314 0.109282
H46   H     H_    0.797586 0.656825 0.856616 0.111819
H47   H     H_    0.231848 0.713263 0.791490 0.133220
H48   H     H_    0.726263 0.999613 0.543565 0.157404
H49   H     H_    0.746180 0.247307 0.224112 0.134933
H50   H     H_    0.768655 0.711871 0.208326 0.131293
H51   H     H_    0.253862 0.247739 0.775802 0.134684
H52   H     H_    0.731505 0.212664 0.791681 0.131617
H53   H     H_    0.246047 0.747041 0.224259 0.135071
H54   H     H_    0.268373 0.212319 0.208456 0.132028
H55   H     H_    0.753928 0.747644 0.775788 0.134756
H56   H     H_    0.107438 0.694037 0.215855 0.148719
H57   H     H_    0.091993 0.765468 0.158743 0.151777
H58   H     H_    0.053228 0.683954 0.186849 0.141465
H59   H     H_    0.269570 0.999779 0.471057 0.157697
H60   H     H_    0.114979 0.681785 0.027063 0.152998
H61   H     H_    0.134603 0.615336 0.082225 0.137673
H62   H     H_    0.818517 0.395799 0.004208 0.152497
H63   H     H_    0.840860 0.336437 0.065588 0.165672
H64   H     H_    0.889158 0.381491 0.967371 0.130493
H65   H     H_    0.879406 0.253445 0.932478 0.143529
H66   H     H_    0.861592 0.314854 0.870422 0.129029
H67   H     H_    0.892439 0.693831 0.782886 0.148943
H68   H     H_    0.908274 0.764988 0.840182 0.151415
H69   H     H_    0.946806 0.683473 0.811347 0.141746
H70   H     H_    0.650246 0.835914 0.409165 0.148994
H71   H     H_    0.885403 0.680740 0.971248 0.152874
H72   H     H_    0.865305 0.614685 0.915950 0.138036
H73   H     H_    0.182786 0.396631 0.994926 0.152557
H74   H     H_    0.160201 0.337448 0.933425 0.165727
H75   H     H_    0.112083 0.382917 0.031346 0.130352
H76   H     H_    0.120741 0.254797 0.066735 0.143703
H77   H     H_    0.138826 0.316056 0.128889 0.129166
H78   H     H_    0.607556 0.193686 0.216811 0.149600
H79   H     H_    0.591919 0.265124 0.159928 0.151341
H80   H     H_    0.553153 0.183596 0.188306 0.143248
H81   H     H_    0.410525 0.179316 0.414572 0.154303
H82   H     H_    0.614552 0.181373 0.028380 0.152976
H83   H     H_    0.634455 0.115011 0.083265 0.138465
H84   H     H_    0.318403 0.895873 0.005868 0.152600
H85   H     H_    0.340700 0.836152 0.066968 0.165752
H86   H     H_    0.389034 0.881628 0.969200 0.130467
H87   H     H_    0.379468 0.753748 0.933334 0.144246
H88   H     H_    0.361801 0.815547 0.871481 0.131285
H89   H     H_    0.392342 0.193459 0.783914 0.148041
H90   H     H_    0.408238 0.264519 0.841244 0.151909
H91   H     H_    0.446494 0.182782 0.812874 0.140985
H92   H     H_    0.411453 0.823028 0.402181 0.147874
H93   H     H_    0.384753 0.180494 0.972646 0.153170
H94   H     H_    0.364687 0.114462 0.917271 0.137685
H95   H     H_    0.682022 0.895773 0.996799 0.152662
H96   H     H_    0.659455 0.836688 0.935177 0.165486
H97   H     H_    0.611329 0.881518 0.033680 0.130851
H98   H     H_    0.620736 0.753340 0.067858 0.142993
H99   H     H_    0.638788 0.814469 0.130157 0.127990
H100  H     H_    0.120001 0.829703 0.019034 0.136346
H101  H     H_    0.859616 0.133419 0.997809 0.132303
H102  H     H_    0.880765 0.828120 0.980466 0.135960
H103  H     H_    0.587423 0.168375 0.582156 0.146243
H104  H     H_    0.140243 0.134049 0.002290 0.132477
H105  H     H_    0.619406 0.328761 0.019462 0.136106
H106  H     H_    0.359457 0.633104 0.997951 0.132828
H107  H     H_    0.380384 0.328700 0.980716 0.136098
H108  H     H_    0.640415 0.633653 0.002089 0.132140
H109  H     H_    0.228840 0.963604 0.747018 0.145854
H110  H     H_    0.244817 0.907811 0.650622 0.171249
H111  H     H_    0.218702 0.996148 0.654730 0.144776
H112  H     H_    0.144613 0.907961 0.689326 0.175991
H113  H     H_    0.134852 0.965789 0.778674 0.171436
H114  H     H_    0.126689 0.330668 0.449082 0.155191
H115  H     H_    0.924583 0.316148 0.160007 0.141393
H116  H     H_    0.883937 0.308473 0.279544 0.174552
H117  H     H_    0.955259 0.298484 0.232059 0.133626
H118  H     H_    0.909308 0.177576 0.270893 0.175692
H119  H     H_    0.955222 0.191180 0.156573 0.158953
H120  H     H_    0.774537 0.966793 0.240488 0.147411
H121  H     H_    0.752984 0.907520 0.334871 0.153534
H122  H     H_    0.777989 0.995314 0.340472 0.151293
H123  H     H_    0.850918 0.909427 0.313354 0.176511
H124  H     H_    0.865374 0.965584 0.221028 0.172467
O1    O     O_R   0.255040 0.869590 0.478480 -0.511569
O2    O     O_R   0.817950 0.203450 0.375560 -0.507729
O3    O     O_R   0.817950 0.796550 0.375560 -0.515050
O4    O     O_R   0.182050 0.203450 0.624440 -0.508352
O5    O     O_R   0.682050 0.296550 0.624440 -0.513988
O6    O     O_R   0.317950 0.703450 0.375560 -0.513861
O7    O     O_R   0.317950 0.296550 0.375560 -0.515115
O8    O     O_R   0.682050 0.703450 0.624440 -0.507410
O9    O     O_R   0.250530 0.763330 0.367210 -0.511883
O10   O     O_R   0.749470 0.236670 0.632790 -0.523212
O11   O     O_R   0.749470 0.763330 0.632790 -0.510199
O12   O     O_R   0.744960 0.130410 0.521520 -0.505913
O13   O     O_R   0.250530 0.236670 0.367210 -0.520987
O14   O     O_R   0.750530 0.263330 0.367210 -0.510225
O15   O     O_R   0.249470 0.736670 0.632790 -0.512356
O16   O     O_R   0.249470 0.263330 0.632790 -0.510265
O17   O     O_R   0.750530 0.736670 0.367210 -0.525562
O18   O     O_R   0.177260 0.690030 0.513710 -0.514222
O19   O     O_R   0.822740 0.309970 0.486290 -0.523733
O20   O     O_R   0.822740 0.690030 0.486290 -0.514850
O21   O     O_R   0.177260 0.309970 0.513710 -0.526417
O22   O     O_R   0.677260 0.190030 0.513710 -0.512933
O23   O     O_R   0.744960 0.869590 0.521520 -0.511460
O24   O     O_R   0.322740 0.809970 0.486290 -0.519238
O25   O     O_R   0.322740 0.190030 0.486290 -0.516942
O26   O     O_R   0.677260 0.809970 0.513710 -0.520473
O27   O     O_R   0.051640 0.926880 0.885090 -0.512688
O28   O     O_R   0.948360 0.073120 0.114910 -0.523834
O29   O     O_R   0.948360 0.926880 0.114910 -0.511984
O30   O     O_R   0.051640 0.073120 0.885090 -0.523963
O31   O     O_R   0.551640 0.426880 0.885090 -0.512029
O32   O     O_R   0.448360 0.573120 0.114910 -0.523847
O33   O     O_R   0.448360 0.426880 0.114910 -0.512378
O34   O     O_R   0.255040 0.130410 0.478480 -0.506950
O35   O     O_R   0.551640 0.573120 0.885090 -0.523571
O36   O     O_R   0.940620 0.926560 0.986760 -0.509732
O37   O     O_R   0.059380 0.073440 0.013240 -0.517500
O38   O     O_R   0.059380 0.926560 0.013240 -0.509642
O39   O     O_R   0.940620 0.073440 0.986760 -0.517645
O40   O     O_R   0.440620 0.426560 0.986760 -0.509701
O41   O     O_R   0.559380 0.573440 0.013240 -0.517773
O42   O     O_R   0.559380 0.426560 0.013240 -0.509805
O43   O     O_R   0.440620 0.573440 0.986760 -0.517507
O44   O     O_R   0.755040 0.369590 0.478480 -0.511030
O45   O     O_R   0.244960 0.630410 0.521520 -0.508037
O46   O     O_R   0.244960 0.369590 0.521520 -0.510238
O47   O     O_R   0.755040 0.630410 0.478480 -0.507127
O48   O     O_R   0.182050 0.796550 0.624440 -0.514768

loop_
_geom_bond_atom_site_label_1
_geom_bond_atom_site_label_2
_ccdc_geom_bond_type
C84   H9    S    
C20   C170  A    
C28   C47   A    
Cu10  O46   S    
C118  H101  S    
C36   C42   A    
C96   C105  A    
Cu1   O18   S    
Cu1   O48   S    
C124  C133  A    
C79   C99   A    
C72   H99   S    
C64   H73   S    
C16   C35   A    
C31   C172  S    
Cu10  O25   S    
C37   C42   A    
C80   H122  S    
C176  O25   A    
C131  C140  A    
C137  O15   A    
C134  C143  A    
C124  C168  A    
C57   H36   S    
C68   H38   S    
C179  O37   A    
Cu12  O43   S    
Cu2   O41   S    
C119  C128  A    
C24   C51   A    
C96   C108  A    
C49   H81   S    
C59   C60   S    
C8    C16   A    
C137  O48   A    
C53   H2    S    
C119  H102  S    
C102  C111  A    
Cu2   Cu12  S    
C79   C161  S    
C158  C167  A    
C93   O10   A    
Cu3   O30   S    
C81   C138  S    
C78   H124  S    
C4    O33   A    
C95   C109  A    
C81   H6    S    
C115  O7    A    
C72   C73   S    
C101  C110  A    
C174  O22   A    
Cu1   O1    S    
C29   C45   A    
C103  C112  A    
C142  C151  A    
C91   H25   S    
Cu3   Cu4   S    
C81   H7    S    
C66   H78   S    
C37   C175  S    
C76   H119  S    
Cu7   O13   S    
C54   H13   S    
C22   C31   A    
C60   H62   S    
C87   C141  S    
C92   C116  A    
C120  H104  S    
C82   H3    S    
C74   H113  S    
C24   H33   S    
C13   C18   A    
C75   H109  S    
C42   H59   S    
C159  O17   A    
C117  H100  S    
C13   H32   S    
C75   H111  S    
C180  O38   A    
C14   C57   A    
C118  C162  A    
C2    C19   A    
C71   H90   S    
C123  H107  S    
C25   C55   A    
C83   H12   S    
C64   H75   S    
C85   H17   S    
C86   H15   S    
C99   H39   S    
C4    O40   A    
C9    C15   A    
C74   C134  S    
C46   C53   A    
C160  C168  A    
C94   C102  A    
C88   H20   S    
C172  O47   A    
Cu11  O8    S    
C34   C177  S    
C122  H106  S    
C93   O5    A    
Cu3   O36   S    
C41   H48   S    
C77   H117  S    
C11   C18   A    
C153  H49   S    
C123  C132  A    
C121  C130  A    
C6    C130  S    
C25   C43   A    
C1    O6    A    
C4    C132  S    
C85   C86   S    
C5    C133  S    
C99   C108  A    
C39   H1    S    
C178  O36   A    
C133  C142  A    
C90   C162  S    
C105  C113  A    
C80   H120  S    
Cu3   O27   S    
C145  C159  S    
C78   C80   S    
C38   C174  S    
C77   H116  S    
C60   H64   S    
Cu3   O39   S    
C72   H98   S    
C156  H52   S    
Cu12  O31   S    
C170  H30   S    
C106  H45   S    
C29   C38   A    
C46   H35   S    
C59   H66   S    
C14   C16   A    
C89   C91   S    
C152  C161  A    
C62   H69   S    
C76   C135  S    
C95   C103  A    
C141  C150  A    
C179  O30   A    
C107  H46   S    
Cu4   O28   S    
C88   H21   S    
C120  C129  A    
C61   H71   S    
C38   C41   A    
C10   C20   A    
C171  O44   A    
Cu2   O33   S    
C50   H92   S    
C83   C84   S    
C8    C12   A    
C70   H93   S    
C10   C45   A    
C74   H112  S    
C85   C140  S    
Cu10  O16   S    
Cu4   O37   S    
C76   H118  S    
C145  C154  A    
C92   C163  S    
C79   C113  A    
C118  C127  A    
C67   H87   S    
C6    O31   A    
C159  O3    A    
C122  C131  A    
C172  O20   A    
C29   C51   A    
C27   C47   A    
C169  O18   A    
C103  H43   S    
C82   H4    S    
C121  C165  A    
C71   H91   S    
C58   H56   S    
C63   H77   S    
C64   H74   S    
C73   H96   S    
C152  H47   S    
C28   C37   A    
C138  C146  A    
C69   H86   S    
C126  C144  S    
Cu4   O29   S    
C87   H22   S    
C56   C58   S    
C30   C39   A    
C96   C166  S    
Cu11  O26   S    
C61   C62   S    
C98   C168  S    
C107  C116  A    
C120  C164  A    
C13   C50   A    
C100  C109  A    
C58   H57   S    
C73   H97   S    
C15   C46   A    
C40   H37   S    
C157  H53   S    
C140  C149  A    
Cu2   O42   S    
Cu9   O15   S    
C27   C49   A    
C25   C33   A    
C54   C57   A    
C155  H51   S    
C125  C134  A    
C87   C88   S    
C98   C110  A    
C65   H83   S    
C11   C47   A    
C8    C43   A    
C33   C169  S    
C83   C139  S    
C55   C68   A    
Cu6   O23   S    
C11   C19   A    
C169  O45   A    
C127  C135  A    
C128  C136  A    
C97   C111  A    
C67   C108  S    
C89   C142  S    
C132  C141  A    
C31   C40   A    
Cu6   Cu11  S    
Cu7   Cu10  S    
C66   H79   S    
Cu1   Cu9   S    
C146  C155  A    
C121  H105  S    
C56   C113  S    
C1    C149  S    
C70   C71   S    
C63   H76   S    
C7    C131  S    
C124  H108  S    
C26   C48   A    
C126  O14   A    
C177  O23   A    
C34   C41   A    
Cu10  O7    S    
C130  C139  A    
C95   C165  S    
C177  O26   A    
C146  C148  S    
Cu6   O11   S    
C71   H89   S    
C148  O16   A    
C82   H5    S    
C83   H11   S    
C86   H16   S    
Cu8   O22   S    
Cu9   O6    S    
C23   C44   A    
C9    C14   A    
Cu7   O34   S    
Cu5   O10   S    
C12   C68   A    
C12   C15   A    
Cu6   O20   S    
C61   C116  S    
C59   C112  S    
Cu2   O32   S    
C147  C156  A    
C65   C109  S    
C92   C101  A    
C48   C170  A    
C97   C106  A    
C115  O13   A    
C143  C152  A    
C32   C171  S    
C36   C176  S    
C101  H41   S    
C105  H44   S    
C160  H55   S    
C94   C164  S    
C78   H123  S    
C150  C158  A    
C148  O4    A    
C176  O34   A    
C27   C36   A    
C21   C30   A    
C178  O29   A    
C153  C162  A    
C23   C32   A    
C91   H26   S    
C175  O24   A    
C89   H28   S    
C89   H29   S    
C77   H115  S    
C156  C165  A    
C56   H60   S    
C48   H70   S    
C5    O35   A    
C104  O8    A    
C104  O11   A    
C5    O41   A    
C70   C111  S    
C98   C107  A    
Cu11  O47   S    
C173  O46   A    
Cu11  O17   S    
C35   C52   A    
C87   H23   S    
C59   H65   S    
C149  C157  A    
C180  O27   A    
Cu7   O21   S    
C175  O1    A    
C154  H50   S    
C122  C166  A    
C35   H34   S    
C90   C112  A    
C80   H121  S    
C85   H18   S    
C86   H14   S    
C81   C82   S    
C94   C114  A    
C84   H8    S    
C129  C179  S    
C139  C147  A    
C33   C39   A    
C106  C114  A    
C104  C151  S    
Cu8   O14   S    
Cu5   O12   S    
C3    C127  S    
C10   C17   A    
Cu12  O40   S    
C144  C153  A    
C3    O28   A    
C21   C43   A    
C63   C114  S    
C28   C50   A    
C26   C34   A    
C22   C44   A    
C129  C138  A    
C70   H94   S    
C88   H19   S    
Cu5   O19   S    
C30   C173  S    
C51   H103  S    
C136  C145  A    
C26   C45   A    
Cu4   O38   S    
Cu1   O9    S    
C137  C143  S    
Cu5   O2    S    
Cu8   O44   S    
C56   H61   S    
Cu7   O4    S    
C125  C180  S    
C7    O32   A    
C90   C100  A    
C22   C53   A    
C6    O42   A    
C72   C110  S    
C17   C24   A    
C74   C75   S    
C171  O19   A    
C3    O39   A    
C154  C163  A    
C100  H40   S    
C76   C77   S    
C119  C163  A    
C55   H24   S    
C126  O2    A    
Cu5   Cu8   S    
C117  C161  A    
C97   C167  S    
C60   H63   S    
C63   C64   S    
C67   C69   S    
C2    C49   A    
Cu9   O45   S    
C73   H95   S    
C174  O12   A    
C69   H85   S    
C75   H110  S    
C135  C144  A    
C52   H114  S    
C58   H58   S    
C128  C178  S    
C62   H68   S    
C23   C54   A    
C84   H10   S    
C69   H84   S    
C9    C44   A    
C65   H82   S    
C61   H72   S    
C157  C166  A    
C102  H42   S    
C155  C164  A    
C151  C160  A    
C123  C167  A    
C7    O43   A    
C117  C125  A    
C62   H67   S    
C115  C150  S    
C2    H31   S    
C17   C19   A    
Cu8   O5    S    
C93   C147  S    
C18   C20   A    
C32   C40   A    
C91   H27   S    
C1    O9    A    
C66   H80   S    
C65   C66   S    
Cu6   O3    S    
C158  H54   S    
C67   H88   S    
C78   C136  S    
C21   C52   A    
C173  O21   A    
Cu12  O35   S    
Cu9   O24   S    
