data_mof_unit_764.cif
_audit_creation_date              2012-12-11T15:44:52-0500
_audit_creation_method            fapswitch 2.2
_symmetry_space_group_name_H-M    P1
_symmetry_Int_Tables_number       1
_space_group_crystal_system       triclinic
_cell_length_a                    6.919302
_cell_length_b                    16.752669
_cell_length_c                    17.205369
_cell_angle_alpha                 100.322058
_cell_angle_beta                  88.869932
_cell_angle_gamma                 90.533204
_cell_volume                      1961.69853142

loop_
_atom_site_label
_atom_site_type_symbol
_atom_type_description
_atom_site_fract_x
_atom_site_fract_y
_atom_site_fract_z
_atom_type_partial_charge
O1    O     O_R   0.494370 0.415690 0.413450 -0.531950
O2    O     O_R   0.819420 0.429360 0.578420 -0.559339
O3    O     O_R   0.994280 0.584310 0.586550 -0.544960
C1    C     C_R   0.648504 0.415468 0.606023 0.737677
O4    O     O_R   0.823790 0.406230 0.413570 -0.497617
O5    O     O_R   0.998670 0.561000 0.420530 -0.526961
C2    C     C_R   0.656499 0.381986 0.385837 0.730604
O6    O     O_R   0.489970 0.439000 0.579470 -0.520033
O7    O     O_3   0.662300 0.550810 0.502470 -0.385261
V1    V     V_3+5 0.935380 0.490570 0.499540 1.537127
O8    O     O_R   0.328650 0.570640 0.421580 -0.553203
C3    C     C_R   0.160832 0.586340 0.394835 0.772879
O9    O     O_R   0.324290 0.593770 0.586430 -0.547243
C4    C     C_R   0.154616 0.617438 0.614755 0.666415
V2    V     V_3+5 0.435930 0.509430 0.500460 1.496229
O10   O     O_3   0.159140 0.449190 0.497530 -0.341062
C5    C     C_R   0.287450 0.750490 0.691398 -0.075819
C6    C     C_R   0.276524 0.815708 0.756843 -0.019269
C7    C     C_R   0.124393 0.818388 0.813571 -0.192741
C8    C     C_R   0.985515 0.756454 0.804244 -0.045044
H1    H     H_    0.870097 0.757422 0.847936 0.150556
C9    C     C_R   0.993809 0.691643 0.740733 0.246299
C10   C     C_R   0.144150 0.687672 0.682546 -0.173012
C11   C     C_R   0.149708 0.636930 0.331417 -0.152905
C12   C     C_R   0.115343 0.868105 0.171726 -0.152385
C13   C     C_R   0.237088 0.854815 0.302275 0.199045
C14   C     C_R   0.206520 0.902876 0.242938 -0.082910
C15   C     C_R   0.054414 0.786976 0.160868 -0.203619
C16   C     C_R   0.087015 0.738575 0.218388 0.057482
C17   C     C_R   0.179125 0.771421 0.289911 0.130467
C18   C     C_R   0.208703 0.719834 0.346789 0.135058
C19   C     C_R   0.061729 0.605525 0.258356 -0.045292
C20   C     C_R   0.030062 0.656832 0.203762 -0.234335
H2    H     H_    0.961775 0.632260 0.148274 0.126595
H3    H     H_    0.987161 0.760512 0.105707 0.124626
C21   C     C_R   0.628002 0.367569 0.670172 -0.066043
C22   C     C_R   0.638692 0.140193 0.833791 -0.164929
C23   C     C_R   0.818689 0.174741 0.719462 0.005086
C24   C     C_R   0.790941 0.124788 0.776331 0.102357
C25   C     C_R   0.514375 0.207202 0.832498 -0.078162
C26   C     C_R   0.560179 0.264855 0.782688 0.012903
C27   C     C_R   0.707340 0.245956 0.723334 0.049415
C28   C     C_R   0.741727 0.299176 0.669331 -0.252232
C29   C     C_R   0.490914 0.389720 0.731328 0.135957
C30   C     C_R   0.464038 0.341403 0.790128 -0.076443
H4    H     H_    0.853819 0.287326 0.624273 0.172196
C31   C     C_R   0.793675 0.252090 0.300443 0.023024
C32   C     C_R   0.774277 0.189285 0.234985 -0.195139
H5    H     H_    0.884418 0.142759 0.223682 0.109511
C33   C     C_R   0.616180 0.184939 0.184389 -0.091689
C34   C     C_R   0.471266 0.245301 0.201910 0.188337
C35   C     C_R   0.491142 0.308397 0.266693 -0.066400
H6    H     H_    0.380451 0.354596 0.277321 0.204297
C36   C     C_R   0.649923 0.313401 0.317029 -0.141950
O11   O     O_R   0.774880 0.061150 0.920630 -0.540595
O12   O     O_R   0.440980 0.093710 0.086500 -0.546063
O13   O     O_R   0.266190 0.938890 0.079390 -0.539625
C37   C     C_R   0.608402 0.117202 0.114929 0.723353
O14   O     O_R   0.445420 0.070740 0.921670 -0.530476
O15   O     O_R   0.270660 0.915760 0.913380 -0.539729
C38   C     C_R   0.616673 0.086879 0.895060 0.769728
O16   O     O_R   0.770400 0.084270 0.086640 -0.542485
O17   O     O_3   0.602590 0.949210 0.997500 -0.363364
V3    V     V_3+5 0.329470 0.009420 0.000470 1.482629
O18   O     O_R   0.940650 0.906250 0.913470 -0.528504
C39   C     C_R   0.110579 0.884668 0.883848 0.686015
O19   O     O_R   0.936210 0.929220 0.078300 -0.540959
C40   C     C_R   0.103988 0.913840 0.105091 0.683210
V4    V     V_3+5 0.828930 0.990510 0.999490 1.479288
O20   O     O_3   0.105680 0.050790 0.002500 -0.366597
C41   C     C_2   0.439714 0.751042 0.629066 0.440088
H7    H     H_    0.403847 0.733308 0.567620 0.024965
O21   O     O_2   0.607514 0.768156 0.645550 -0.505423
N1    N     N_3   0.387970 0.464643 0.735695 -0.666627
H8    H     H_    0.420851 0.503270 0.788584 0.234350
H9    H     H_    0.239597 0.452208 0.734729 0.210281
C42   C     C_2   0.969485 0.150445 0.657030 0.403855
H10   H     H_    0.110315 0.131047 0.672975 0.067971
O22   O     O_2   0.934016 0.147084 0.587279 -0.526789
C43   C     C_2   0.353729 0.377900 0.862492 0.385959
H11   H     H_    0.214684 0.405949 0.857969 0.041493
O23   O     O_2   0.422833 0.380654 0.927683 -0.491614
N2    N     N_3   0.911456 0.054280 0.770186 -0.686451
H12   H     H_    0.825729 0.002686 0.770601 0.273542
H13   H     H_    0.008064 0.062258 0.816881 0.234204
C44   C     C_2   0.325219 0.212128 0.875221 0.459162
H14   H     H_    0.193414 0.215481 0.842791 -0.005487
O24   O     O_2   0.315835 0.217916 0.946874 -0.511607
C45   C     C_2   0.961832 0.247168 0.350973 0.395687
H15   H     H_    0.984416 0.192394 0.374966 0.060736
O25   O     O_2   0.084242 0.300679 0.360879 -0.497536
N3    N     N_3   0.303762 0.245935 0.154512 -0.614529
H16   H     H_    0.219236 0.194751 0.158440 0.240733
H17   H     H_    0.348554 0.244684 0.096053 0.286527
C46   C     C_2   0.412639 0.885354 0.762523 0.484298
H18   H     H_    0.358890 0.944918 0.757767 -0.006233
O26   O     O_2   0.582257 0.877548 0.777651 -0.513423
N4    N     N_3   0.850357 0.629047 0.739255 -0.656807
H19   H     H_    0.760311 0.629008 0.691236 0.274813
H20   H     H_    0.918850 0.572910 0.734018 0.214910
N5    N     N_3   0.292463 0.752149 0.421413 -0.619142
H21   H     H_    0.193991 0.744123 0.466276 0.206047
H22   H     H_    0.419502 0.720550 0.426919 0.233666
C47   C     C_2   0.001960 0.519108 0.235074 0.383092
H23   H     H_    0.905749 0.501704 0.185731 0.063413
O27   O     O_2   0.063186 0.466062 0.268117 -0.516900
N6    N     N_3   0.323502 0.890775 0.375534 -0.589438
H24   H     H_    0.466642 0.906669 0.364780 0.278018
H25   H     H_    0.244976 0.942079 0.401303 0.266170
C48   C     C_2   0.261573 0.990692 0.255122 0.376997
H26   H     H_    0.183508 0.031817 0.225119 0.024582
O28   O     O_2   0.396737 0.017988 0.296341 -0.539573

loop_
_geom_bond_atom_site_label_1
_geom_bond_atom_site_label_2
_ccdc_geom_bond_type
C37   O16   A    
C1    C21   S    
N5    H21   S    
C9    N4    S    
C31   C45   S    
C26   C27   A    
C46   H18   S    
C1    O6    A    
C47   O27   D    
C42   H10   S    
C35   H6    S    
C12   C15   A    
C13   C14   A    
C5    C10   A    
N1    H9    S    
C18   N5    S    
C15   C16   A    
C23   C27   A    
C22   C25   A    
O5    C3    A    
C17   C18   A    
C44   O24   D    
V2    O10   S    
C16   C20   A    
C7    C39   S    
C6    C7    A    
C25   C44   S    
C48   H26   S    
O8    V2    S    
O17   V4    S    
C15   H3    S    
N6    H24   S    
C19   C47   S    
O1    V2    S    
V3    O20   S    
C45   O25   D    
O7    V1    S    
C32   C33   A    
O15   C39   A    
N5    H22   S    
O9    C4    A    
C6    C46   S    
N6    H25   S    
C12   C40   S    
C47   H23   S    
C35   C36   A    
C20   H2    S    
C42   O22   D    
O14   C38   A    
N1    H8    S    
C34   C35   A    
C33   C37   S    
C31   C32   A    
C14   C48   S    
C43   O23   D    
O4    C2    A    
C44   H14   S    
C33   C34   A    
O19   C40   A    
O16   V4    S    
O19   V4    S    
C4    C10   S    
O2    C1    A    
C11   C19   A    
C16   C17   A    
C34   N3    S    
N2    H12   S    
N3    H17   S    
C5    C6    A    
O14   V3    S    
C29   N1    S    
O11   V4    S    
O3    C4    A    
C31   C36   A    
C32   H5    S    
N2    H13   S    
C8    C9    A    
C5    C41   S    
O6    V2    S    
N4    H20   S    
O9    V2    S    
C21   C29   A    
C27   C28   A    
O13   C40   A    
O2    V1    S    
C29   C30   A    
O13   V3    S    
C41   O21   D    
C25   C26   A    
O1    C2    A    
C43   H11   S    
C13   N6    S    
O5    V1    S    
C22   C38   S    
O8    C3    A    
C46   O26   D    
C13   C17   A    
C23   C42   S    
C12   C14   A    
C3    C11   S    
O15   V3    S    
C19   C20   A    
C7    C8    A    
O7    V2    S    
C11   C18   A    
C24   N2    S    
C41   H7    S    
C22   C24   A    
O3    V1    S    
V1    O10   S    
O12   V3    S    
C23   C24   A    
O18   V4    S    
O11   C38   A    
N3    H16   S    
O12   C37   A    
C30   C43   S    
O18   C39   A    
V4    O20   S    
C28   H4    S    
C48   O28   D    
O17   V3    S    
O4    V1    S    
C8    H1    S    
N4    H19   S    
C26   C30   A    
C9    C10   A    
C21   C28   A    
C2    C36   S    
C45   H15   S    
