data_mof_unit_65.cif
_audit_creation_date              2012-12-10T17:35:51-0500
_audit_creation_method            fapswitch 2.2
_symmetry_space_group_name_H-M    P1
_symmetry_Int_Tables_number       1
_space_group_crystal_system       triclinic
_cell_length_a                    10.546433
_cell_length_b                    12.080642
_cell_length_c                    12.780517
_cell_angle_alpha                 92.935747
_cell_angle_beta                  90.261074
_cell_angle_gamma                 85.011843
_cell_volume                      1620.04008128

loop_
_atom_site_label
_atom_site_type_symbol
_atom_type_description
_atom_site_fract_x
_atom_site_fract_y
_atom_site_fract_z
_atom_type_partial_charge
C1    C     C_R   0.492128 0.521807 0.699723 0.898707
C2    C     C_R   0.594938 0.158106 0.598266 0.358462
C3    C     C_R   0.541242 0.857578 0.548996 -0.065231
C4    C     C_R   0.458760 0.142421 0.451003 -0.065232
C5    C     C_R   0.536298 0.974634 0.539727 0.044451
C6    C     C_R   0.463704 0.025365 0.460272 0.044450
C7    C     C_R   0.742294 0.498646 0.498602 0.954023
C8    C     C_R   0.257706 0.501354 0.501399 0.954029
C9    C     C_3   0.973882 0.392923 0.493786 0.033851
C10   C     C_3   0.026118 0.607077 0.506215 0.033850
C11   C     C_3   0.048217 0.448136 0.582977 0.640951
C12   C     C_R   0.507870 0.478193 0.300277 0.898699
C13   C     C_3   0.951782 0.551864 0.417024 0.640954
C14   C     C_3   0.123070 0.504135 0.501219 -0.266668
C15   C     C_3   0.876930 0.495865 0.498781 -0.266670
C16   C     C_3   0.049354 0.449338 0.411863 0.012767
C17   C     C_3   0.950646 0.550663 0.588138 0.012769
C18   C     C_R   0.524849 0.465031 0.189528 -0.078381
C19   C     C_R   0.475143 0.534967 0.810472 -0.078383
C20   C     C_R   0.348420 0.586249 0.965728 0.206274
C21   C     C_R   0.651550 0.413718 0.034266 0.206277
C22   C     C_R   0.362264 0.586730 0.856112 0.186330
C23   C     C_R   0.570396 0.482349 0.869051 -0.330980
C24   C     C_R   0.637717 0.413252 0.143884 0.186310
C25   C     C_3   0.947516 0.270926 0.486389 -0.762455
C26   C     C_3   0.052484 0.729074 0.513611 -0.762456
C27   C     C_3   0.109783 0.393913 0.312295 -0.825493
C28   C     C_3   0.890217 0.606088 0.687705 -0.825506
C29   C     C_3   0.745943 0.364974 0.210837 -0.861911
C30   C     C_3   0.254041 0.635007 0.789155 -0.861987
C31   C     C_3   0.232608 0.647004 0.020521 -0.899626
C32   C     C_3   0.767338 0.352928 0.979468 -0.899656
C33   C     C_3   0.661510 0.224042 0.681322 -0.852748
C34   C     C_R   0.429592 0.517645 0.130949 -0.330979
C35   C     C_3   0.338484 0.775959 0.318680 -0.852762
C36   C     C_R   0.556009 0.473742 0.975698 0.085016
C37   C     C_R   0.443969 0.526239 0.024300 0.085008
C38   C     C_R   0.397965 0.958004 0.391613 -0.294437
C39   C     C_R   0.602037 0.041996 0.608386 -0.294437
C40   C     C_R   0.405062 0.841894 0.401735 0.358467
F1    F     F_    0.101440 0.395769 0.668490 -0.655819
F2    F     F_    0.898560 0.604231 0.331510 -0.655812
H1    H     H_    0.345168 0.554543 0.171589 0.166706
H2    H     H_    0.961261 0.781791 0.522704 0.242668
H3    H     H_    0.114052 0.745354 0.582341 0.235511
H4    H     H_    0.100135 0.750431 0.441222 0.247078
H5    H     H_    0.036120 0.357397 0.262736 0.245123
H6    H     H_    0.155692 0.456371 0.268125 0.234739
H7    H     H_    0.182605 0.326589 0.332806 0.239448
H8    H     H_    0.963879 0.642605 0.737263 0.245122
H9    H     H_    0.817394 0.673411 0.667194 0.239451
H10   H     H_    0.844309 0.543631 0.731877 0.234742
H11   H     H_    0.834374 0.402900 0.191336 0.261369
H12   H     H_    0.654826 0.445460 0.828415 0.166708
H13   H     H_    0.731816 0.382039 0.295838 0.247109
H14   H     H_    0.759344 0.273310 0.196435 0.230580
H15   H     H_    0.165626 0.597043 0.808619 0.261402
H16   H     H_    0.240601 0.726663 0.803590 0.230588
H17   H     H_    0.268193 0.617987 0.704155 0.247117
H18   H     H_    0.168390 0.696822 0.968895 0.251132
H19   H     H_    0.175307 0.586002 0.056417 0.250414
H20   H     H_    0.264138 0.706631 0.082246 0.238091
H21   H     H_    0.831523 0.303071 0.031089 0.251128
H22   H     H_    0.735779 0.293327 0.917733 0.238092
H23   H     H_    0.402178 0.181424 0.389897 0.132479
H24   H     H_    0.824679 0.413911 0.943587 0.250422
H25   H     H_    0.740509 0.172103 0.717335 0.202200
H26   H     H_    0.705093 0.294650 0.649880 0.270315
H27   H     H_    0.593209 0.252992 0.744713 0.250869
H28   H     H_    0.259478 0.827895 0.282678 0.202202
H29   H     H_    0.406777 0.747017 0.255283 0.250866
H30   H     H_    0.294911 0.705348 0.350121 0.270319
H31   H     H_    0.597824 0.818576 0.610102 0.132479
H32   H     H_    0.342749 0.995522 0.328783 0.148952
H33   H     H_    0.657252 0.004478 0.671216 0.148950
H34   H     H_    0.038739 0.218209 0.477297 0.242669
H35   H     H_    0.899865 0.249568 0.558778 0.247077
H36   H     H_    0.885949 0.254646 0.417659 0.235511
N1    N     N_R   0.523490 0.207800 0.519350 -0.099582
N2    N     N_R   0.476510 0.792200 0.480650 -0.099583
O1    O     O_R   0.506270 0.421700 0.658830 -0.609224
O2    O     O_R   0.493730 0.578300 0.341170 -0.609223
O3    O     O_R   0.491200 0.609310 0.646410 -0.632104
O4    O     O_R   0.508800 0.390690 0.353590 -0.632098
O5    O     O_R   0.693580 0.406210 0.506230 -0.648675
O6    O     O_R   0.306420 0.593790 0.493770 -0.648680
O7    O     O_R   0.678510 0.593830 0.493810 -0.586862
O8    O     O_R   0.321490 0.406170 0.506190 -0.586862
Zn1   Zn    Zn3+2 0.510060 0.374730 0.508290 0.954626
Zn2   Zn    Zn3+2 0.489940 0.625270 0.491710 0.954625

loop_
_geom_bond_atom_site_label_1
_geom_bond_atom_site_label_2
_ccdc_geom_bond_type
C27   H6    S    
C34   C37   A    
C31   H19   S    
C9    C25   S    
C21   C36   A    
C7    O5    A    
C25   H35   S    
C36   C37   A    
C9    C16   S    
C4    H23   S    
C11   C14   S    
C10   C17   S    
C1    O1    A    
C30   H15   S    
C12   O4    A    
C24   C29   S    
C2    N1    A    
C26   H3    S    
C28   H8    S    
C2    C39   A    
C7    O7    A    
C35   H28   S    
C40   N2    A    
C18   C24   A    
C39   H33   S    
C33   H27   S    
O1    Zn1   S    
C10   C26   S    
C16   C27   S    
C7    C15   S    
C35   H29   S    
C31   H20   S    
C3    N2    A    
C13   F2    S    
C21   C32   S    
C1    C19   S    
C26   H2    S    
C25   H36   S    
C19   C22   A    
C32   H22   S    
C4    N1    A    
C4    C6    A    
C10   C14   S    
O5    Zn1   S    
C29   H13   S    
C8    O8    A    
C31   H18   S    
C19   C23   A    
C18   C34   A    
C30   H17   S    
C6    C38   A    
C12   O2    A    
C9    C11   S    
C2    C33   S    
C20   C22   A    
C35   H30   S    
C5    C39   A    
O6    Zn2   S    
C14   C16   S    
O7    Zn2   S    
O4    Zn1   S    
C21   C24   A    
C33   H25   S    
C23   H12   S    
C32   H24   S    
C38   H32   S    
C27   H5    S    
C15   C17   S    
O3    Zn2   S    
C11   C17   S    
C8    C14   S    
C22   C30   S    
C17   C28   S    
C34   H1    S    
C32   H21   S    
C3    C5    A    
C10   C13   S    
C29   H14   S    
C1    O3    A    
O2    Zn2   S    
C25   H34   S    
C13   C15   S    
C35   C40   S    
C9    C15   S    
C38   C40   A    
C20   C37   A    
C28   H10   S    
C5    C6    A    
C29   H11   S    
C30   H16   S    
C28   H9    S    
C11   F1    S    
C8    O6    A    
N2    Zn2   S    
C3    H31   S    
N1    Zn1   S    
C26   H4    S    
O8    Zn1   S    
C23   C36   A    
C13   C16   S    
C12   C18   S    
C27   H7    S    
C33   H26   S    
C20   C31   S    
