data_mof_unit_506.cif
_audit_creation_date              2012-12-10T16:57:06-0500
_audit_creation_method            fapswitch 2.2
_symmetry_space_group_name_H-M    P1
_symmetry_Int_Tables_number       1
_space_group_crystal_system       triclinic
_cell_length_a                    7.748712
_cell_length_b                    8.556873
_cell_length_c                    17.035045
_cell_angle_alpha                 91.668637
_cell_angle_beta                  81.708799
_cell_angle_gamma                 93.867744
_cell_volume                      1114.93788043

loop_
_atom_site_label
_atom_site_type_symbol
_atom_type_description
_atom_site_fract_x
_atom_site_fract_y
_atom_site_fract_z
_atom_type_partial_charge
C1    C     C_R   0.546322 0.794840 0.497923 0.967415
C2    C     C_R   0.453678 0.205159 0.502077 0.967407
C3    C     C_2   0.570725 0.958412 0.496726 -0.384434
C4    C     C_2   0.429275 0.041588 0.503274 -0.384425
C5    C     C_R   0.479700 0.501664 0.653004 0.868165
C6    C     C_R   0.520297 0.498324 0.346995 0.868154
C7    C     C_R   0.479440 0.509403 0.737267 -0.029105
C8    C     C_R   0.520525 0.490469 0.262735 -0.029111
C9    C     C_R   0.598859 0.423034 0.768857 -0.251105
C10   C     C_R   0.401036 0.576728 0.231128 -0.251142
C11   C     C_R   0.623522 0.445378 0.847311 0.035386
C12   C     C_R   0.376300 0.554232 0.152691 0.035419
C13   C     C_R   0.523735 0.554656 0.894359 0.131813
C14   C     C_R   0.476101 0.444920 0.105672 0.131811
C15   C     C_R   0.404138 0.640914 0.862653 -0.201275
C16   C     C_R   0.595757 0.358761 0.137395 -0.201253
C17   C     C_R   0.380619 0.617283 0.784005 -0.208535
C18   C     C_R   0.619339 0.382539 0.216028 -0.208449
C19   C     C_2   0.522683 0.564058 0.978949 -0.242233
C20   C     C_2   0.477184 0.435476 0.021079 -0.242281
H1    H     H_    0.676646 0.341138 0.731601 0.159786
H2    H     H_    0.323245 0.658654 0.268361 0.159775
H3    H     H_    0.709983 0.313893 0.240900 0.151077
H4    H     H_    0.290021 0.686004 0.759147 0.151077
H5    H     H_    0.453140 0.322016 0.992887 0.154425
H6    H     H_    0.546715 0.677516 0.007147 0.154427
H7    H     H_    0.325526 0.722659 0.899489 0.149496
H8    H     H_    0.674384 0.276996 0.100580 0.149472
H9    H     H_    0.704165 0.009807 0.490481 0.180233
H10   H     H_    0.295835 0.990193 0.509519 0.180234
H11   H     H_    0.023020 0.381907 0.440094 0.192538
H12   H     H_    0.976980 0.618093 0.559905 0.192540
N1    N     N_2   0.953500 0.457650 0.478520 -0.174395
N2    N     N_2   0.046500 0.542350 0.521480 -0.174393
O1    O     O_R   0.388470 0.738640 0.505270 -0.615328
O2    O     O_R   0.611530 0.261360 0.494730 -0.615333
O3    O     O_R   0.679650 0.711510 0.491500 -0.628579
O4    O     O_R   0.320350 0.288490 0.508500 -0.628579
O5    O     O_R   0.337210 0.515200 0.623500 -0.617465
O6    O     O_R   0.662790 0.484800 0.376500 -0.617466
O7    O     O_R   0.628380 0.488060 0.609730 -0.628805
O8    O     O_R   0.371620 0.511940 0.390270 -0.628802
Zn1   Zn    Zn3+2 0.305580 0.518120 0.509190 0.943673
Zn2   Zn    Zn3+2 0.694420 0.481880 0.490810 0.943669
C21   C     C_R   0.243415 0.643624 0.122411 0.121580
C22   C     C_R   0.093599 0.565521 0.098838 -0.133940
C23   C     C_R   0.965232 0.650909 0.073197 -0.137902
C24   C     C_R   0.986103 0.814207 0.070328 -0.133516
C25   C     C_R   0.134932 0.892742 0.093756 -0.138286
C26   C     C_R   0.262793 0.807991 0.120230 -0.179513
H13   H     H_    0.075267 0.439042 0.101347 0.123363
H14   H     H_    0.849275 0.590574 0.055766 0.155166
H15   H     H_    0.886499 0.879841 0.050413 0.119709
H16   H     H_    0.150771 0.019308 0.091863 0.124290
H17   H     H_    0.377158 0.870110 0.138667 0.126340
C27   C     C_R   0.756342 0.355882 0.877573 0.121555
C28   C     C_R   0.736758 0.191532 0.879810 -0.179479
C29   C     C_R   0.864552 0.106676 0.906271 -0.138253
C30   C     C_R   0.013519 0.185086 0.929625 -0.133588
C31   C     C_R   0.034601 0.348367 0.926693 -0.137941
C32   C     C_R   0.906301 0.433860 0.901065 -0.133983
H18   H     H_    0.622285 0.129511 0.861428 0.126331
H19   H     H_    0.848552 0.980124 0.908209 0.124292
H20   H     H_    0.113066 0.119370 0.949531 0.119737
H21   H     H_    0.150666 0.408605 0.944064 0.155129
H22   H     H_    0.924792 0.560323 0.898508 0.123412

loop_
_geom_bond_atom_site_label_1
_geom_bond_atom_site_label_2
_ccdc_geom_bond_type
C16   H8    S    
C2    C4    S    
H11   N1    S    
C15   C17   A    
C23   H14   S    
C14   C20   S    
O1    Zn1   S    
O8    Zn1   S    
C2    O4    A    
O6    Zn2   S    
C15   H7    S    
C23   C24   A    
C1    O3    A    
C9    C11   A    
O3    Zn2   S    
C13   C15   A    
N1    N2    D    
C28   C29   A    
C4    H10   S    
O4    Zn1   S    
C1    C3    S    
C21   C22   A    
C10   H2    S    
C11   C13   A    
C9    H1    S    
C30   H20   S    
C10   C12   A    
C21   C26   A    
C18   H3    S    
C22   H13   S    
C8    C10   A    
C24   C25   A    
C12   C14   A    
C31   H21   S    
C6    O6    A    
C5    O5    A    
N2    Zn1   S    
O5    Zn1   S    
C24   H15   S    
O7    Zn2   S    
C14   C16   A    
O2    Zn2   S    
C17   H4    S    
C20   H5    S    
C13   C19   S    
C19   C20   D    
C25   H16   S    
C7    C9    A    
C30   C31   A    
C3    H9    S    
C27   C28   A    
C3    C4    D    
C16   C18   A    
C25   C26   A    
C6    O8    A    
C2    O2    A    
C29   H19   S    
C5    C7    S    
C19   H6    S    
C5    O7    A    
C22   C23   A    
C12   C21   S    
C6    C8    S    
C1    O1    A    
C28   H18   S    
C29   C30   A    
C27   C32   A    
N1    Zn2   S    
C32   H22   S    
C8    C18   A    
C11   C27   S    
C26   H17   S    
C31   C32   A    
C7    C17   A    
H12   N2    S    
