data_mof_unit_1266.cif
_audit_creation_date              2012-10-26T21:24:50-0400
_audit_creation_method            fapswitch 2.2
_symmetry_space_group_name_H-M    P1
_symmetry_Int_Tables_number       1
_space_group_crystal_system       triclinic
_cell_length_a                    9.551235
_cell_length_b                    10.809707
_cell_length_c                    15.47352
_cell_angle_alpha                 89.754475
_cell_angle_beta                  74.475187
_cell_angle_gamma                 90.114873
_cell_volume                      1539.26918762

loop_
_atom_site_label
_atom_site_type_symbol
_atom_type_description
_atom_site_fract_x
_atom_site_fract_y
_atom_site_fract_z
_atom_type_partial_charge
C1    C     C_R   0.999324 0.262534 0.501490 0.546268
C2    C     C_R   0.231105 0.566056 0.046477 0.042651
C3    C     C_R   0.328267 0.518876 0.093500 0.038993
C4    C     C_R   0.918311 0.499754 0.672169 0.560891
C5    C     C_R   0.084592 0.586073 0.091138 -0.146451
C6    C     C_R   0.033324 0.561313 0.182492 -0.136663
C7    C     C_R   0.271041 0.486771 0.184298 -0.117377
C8    C     C_R   0.125747 0.063834 0.480576 -0.003941
C9    C     C_R   0.997118 0.129669 0.509742 -0.003063
C10   C     C_R   0.868945 0.066502 0.553238 -0.143002
C11   C     C_R   0.867008 0.936681 0.558616 0.033507
C12   C     C_R   0.675880 0.510994 0.908691 0.032208
C13   C     C_R   0.994861 0.870694 0.514513 0.004713
C14   C     C_R   0.123675 0.936845 0.480379 -0.013731
C15   C     C_3   0.236548 0.931178 0.391687 -0.056795
C16   C     C_R   0.998176 0.737447 0.504085 0.587723
C17   C     C_3   0.239869 0.072103 0.393295 -0.249677
C18   C     C_R   0.594337 0.588410 0.453524 0.179974
C19   C     C_R   0.551478 0.420008 0.552415 -0.002979
C20   C     C_R   0.402620 0.419998 0.552420 -0.011268
C21   C     C_R   0.446848 0.588572 0.453538 0.160975
C22   C     C_3   0.485593 0.610212 0.354725 -0.268241
C23   C     C_R   0.776582 0.478964 0.957732 0.050259
C24   C     C_3   0.643785 0.610012 0.355038 -0.287475
C25   C     C_R   0.081670 0.501172 0.327846 0.560337
C26   C     C_R   0.873277 0.497842 0.770634 0.008197
C27   C     C_R   0.126926 0.512865 0.229741 0.007703
C28   C     C_R   0.923903 0.461497 0.913495 -0.138498
C29   C     C_R   0.972288 0.472013 0.820525 -0.138567
C30   C     C_R   0.726939 0.517690 0.814770 -0.111897
C31   C     C_2   0.731303 0.875395 0.610852 0.581694
C32   C     C_2   0.182893 0.880023 0.315514 0.572628
C33   C     C_R   0.527149 0.531130 0.954727 0.033866
C34   C     C_R   0.478781 0.506641 0.048557 0.041761
C35   C     C_R   0.583221 0.475035 0.094815 -0.125691
C36   C     C_R   0.729228 0.463109 0.050236 -0.132411
C37   C     C_R   0.425965 0.577324 0.910438 -0.133137
C38   C     C_R   0.281244 0.594914 0.955773 -0.134324
Cu1   Cu    Cu3+1 0.140670 0.499980 0.500000 0.957029
Cu2   Cu    Cu3+1 0.859330 0.500020 0.500000 0.989096
H1    H     H_    0.805372 0.439304 0.088495 0.112184
H2    H     H_    0.336102 0.441079 0.221656 0.106949
H3    H     H_    0.448655 0.701508 0.336857 0.177296
H4    H     H_    0.703739 0.529711 0.318524 0.141841
H5    H     H_    0.697971 0.701374 0.337940 0.151107
H6    H     H_    0.922103 0.583702 0.216340 0.126470
H7    H     H_    0.207983 0.631950 0.919424 0.116629
H8    H     H_    0.001320 0.437397 0.950713 0.116905
H9    H     H_    0.085998 0.456248 0.787631 0.127751
H10   H     H_    0.653817 0.533945 0.773847 0.140075
H11   H     H_    0.556774 0.462013 0.166298 0.097957
H12   H     H_    0.010560 0.624380 0.055892 0.121216
H13   H     H_    0.455748 0.605498 0.841074 0.119094
H14   H     H_    0.512117 0.877112 0.649921 0.336379
H15   H     H_    0.226485 0.774335 0.204630 0.347019
H16   H     H_    0.771086 0.118365 0.583257 0.156240
H17   H     H_    0.339826 0.889431 0.397522 0.115836
H18   H     H_    0.343591 0.109888 0.401939 0.132026
H19   H     H_    0.200392 0.118890 0.340086 0.155504
H20   H     H_    0.589285 0.353560 0.593482 0.119119
H21   H     H_    0.328820 0.353624 0.593511 0.120634
H22   H     H_    0.457227 0.530644 0.317805 0.148749
N1    N     N_R   0.648210 0.500930 0.499430 -0.230678
N2    N     N_R   0.352300 0.500890 0.499430 -0.236951
O1    O     O_R   0.118810 0.319640 0.500000 -0.506780
O2    O     O_R   0.596613 0.926377 0.611411 -0.713168
O3    O     O_2   0.064156 0.910128 0.306432 -0.518314
O4    O     O_R   0.271435 0.799624 0.254270 -0.715424
O5    O     O_R   0.881230 0.319680 0.499990 -0.511012
O6    O     O_R   0.055580 0.499970 0.629840 -0.510551
O7    O     O_R   0.818000 0.500010 0.629830 -0.491423
O8    O     O_R   0.118770 0.680320 0.500010 -0.500434
O9    O     O_R   0.881190 0.680360 0.500000 -0.461001
O10   O     O_R   0.182000 0.499990 0.370170 -0.502403
O11   O     O_R   0.944420 0.500030 0.370160 -0.507992
O12   O     O_2   0.736799 0.783235 0.655928 -0.516132

loop_
_geom_bond_atom_site_label_1
_geom_bond_atom_site_label_2
_ccdc_geom_bond_type
C31   O2    S    
Cu2   O7    S    
C18   C21   A    
C15   H17   S    
C35   C36   A    
C16   O8    A    
C4    O6    A    
H15   O4    S    
C15   C32   S    
C29   H9    S    
Cu1   N2    S    
C12   C23   A    
Cu2   N1    S    
C18   C24   S    
C24   H5    S    
C28   C29   A    
C25   O10   A    
C3    C7    A    
C5    C6    A    
C18   N1    A    
Cu1   O10   S    
C7    C27   A    
Cu2   O9    S    
C34   C35   A    
C7    H2    S    
C20   H21   S    
C21   N2    A    
C22   H3    S    
C19   N1    A    
C8    C9    A    
C1    O1    A    
Cu1   O8    S    
C5    H12   S    
C10   H16   S    
C9    C10   A    
C17   H18   S    
C32   O4    S    
C37   H13   S    
C30   H10   S    
C11   C31   S    
C13   C14   A    
Cu1   O1    S    
C36   H1    S    
Cu2   O5    S    
C16   O9    A    
C1    C9    S    
Cu1   Cu2   S    
C3    C34   A    
C33   C37   A    
C25   O11   A    
C20   N2    A    
C37   C38   A    
C22   H22   S    
C2    C38   A    
C6    C27   A    
C33   C34   A    
C23   C28   A    
C38   H7    S    
C17   H19   S    
C32   O3    D    
C26   C30   A    
C35   H11   S    
C24   H4    S    
C22   C24   S    
C2    C5    A    
C15   C17   S    
C28   H8    S    
C8    C14   A    
C6    H6    S    
C12   C30   A    
C4    C26   S    
H14   O2    S    
C19   H20   S    
C25   C27   S    
C8    C17   S    
Cu2   O11   S    
C19   C20   A    
C2    C3    A    
C11   C13   A    
C31   O12   D    
Cu1   O6    S    
C1    O5    A    
C10   C11   A    
C26   C29   A    
C23   C36   A    
C13   C16   S    
C14   C15   S    
C12   C33   A    
C21   C22   S    
C4    O7    A    
