data_mof_unit_3618.cif
_audit_creation_date              2012-12-11T14:54:19-0500
_audit_creation_method            fapswitch 2.2
_symmetry_space_group_name_H-M    P1
_symmetry_Int_Tables_number       1
_space_group_crystal_system       triclinic
_cell_length_a                    18.920637
_cell_length_b                    11.051226
_cell_length_c                    18.791967
_cell_angle_alpha                 89.825894
_cell_angle_beta                  89.652035
_cell_angle_gamma                 90.518974
_cell_volume                      3929.07710605

loop_
_atom_site_label
_atom_site_type_symbol
_atom_type_description
_atom_site_fract_x
_atom_site_fract_y
_atom_site_fract_z
_atom_type_partial_charge
C1    C     C_R   0.732372 0.387381 0.649748 0.538782
C2    C     C_R   0.267749 0.383088 0.351242 0.547165
C3    C     C_R   0.232607 0.887803 0.649940 0.529805
C4    C     C_R   0.767756 0.882832 0.351234 0.548652
C5    C     C_3   0.432846 0.342049 0.467090 0.141459
C6    C     C_3   0.436613 0.332991 0.547514 0.135346
C7    C     C_3   0.935791 0.847819 0.465976 0.117328
C8    C     C_3   0.939407 0.840798 0.546673 0.150755
C9    C     C_R   0.685610 0.915022 0.530170 -0.170097
C10   C     C_R   0.325840 0.988714 0.480334 -0.185193
C11   C     C_R   0.183307 0.421386 0.529110 -0.176577
C12   C     C_R   0.824902 0.486442 0.479942 -0.227401
C13   C     C_R   0.691088 0.888050 0.458420 -0.152780
C14   C     C_R   0.319605 0.969058 0.554126 -0.160732
C15   C     C_R   0.189085 0.394117 0.457329 -0.152939
C16   C     C_R   0.818558 0.466946 0.553600 -0.211846
C17   C     C_R   0.743608 0.941948 0.416481 0.045686
C18   C     C_R   0.252248 0.961361 0.585087 0.020863
C19   C     C_R   0.243517 0.443904 0.416162 0.042746
C20   C     C_R   0.751272 0.459640 0.584462 0.026937
C21   C     C_R   0.785886 0.034232 0.445474 0.165159
C22   C     C_R   0.196526 0.016696 0.547388 0.158865
C23   C     C_R   0.286543 0.535063 0.445407 0.181396
C24   C     C_R   0.695120 0.513544 0.546451 0.154974
C25   C     C_R   0.790626 0.040361 0.519824 0.142246
C26   C     C_R   0.198680 0.019154 0.473168 0.127225
C27   C     C_R   0.290452 0.541698 0.519857 0.118676
C28   C     C_R   0.697625 0.516297 0.472301 0.128643
C29   C     C_R   0.736828 0.986838 0.562735 0.040416
C30   C     C_R   0.264978 0.002844 0.438282 0.000700
C31   C     C_R   0.235617 0.490184 0.562336 -0.006250
C32   C     C_R   0.764208 0.500793 0.437846 0.006823
C33   C     C_R   0.553485 0.062567 0.978819 -0.194906
C34   C     C_R   0.536363 0.065376 0.050131 -0.178522
C35   C     C_R   0.052146 0.559364 0.978169 -0.190474
C36   C     C_R   0.034249 0.561950 0.049349 -0.174939
C37   C     C_R   0.507513 0.169840 0.080020 0.028286
C38   C     C_R   0.545152 0.164953 0.936304 0.028607
C39   C     C_R   0.008509 0.668299 0.080162 0.029003
C40   C     C_R   0.048316 0.664122 0.936788 0.025089
C41   C     C_R   0.503347 0.277297 0.039502 0.219036
C42   C     C_R   0.524327 0.275953 0.967317 0.230819
C43   C     C_R   0.009272 0.777387 0.040958 0.221453
C44   C     C_R   0.032633 0.776389 0.969379 0.231108
C45   C     C_R   0.533955 0.152349 0.645357 0.581584
C46   C     C_R   0.469046 0.154438 0.352574 0.555429
C47   C     C_R   0.033146 0.652580 0.645812 0.592381
C48   C     C_R   0.968719 0.654409 0.352871 0.554261
C49   C     C_R   0.797483 0.002071 0.969110 -0.185912
C50   C     C_R   0.198827 0.991899 0.032299 -0.163048
C51   C     C_R   0.300385 0.495462 0.967862 -0.166730
C52   C     C_R   0.689068 0.459745 0.038531 -0.185890
C53   C     C_R   0.796501 0.995148 0.041656 -0.198404
C54   C     C_R   0.199931 0.987833 0.959639 -0.180670
C55   C     C_R   0.299514 0.490508 0.040498 -0.197521
C56   C     C_R   0.689296 0.460881 0.965727 -0.179545
C57   C     C_R   0.750456 0.914941 0.075961 0.032789
C58   C     C_R   0.248857 0.915973 0.924120 0.024324
C59   C     C_R   0.251063 0.415889 0.075906 0.024493
C60   C     C_R   0.744266 0.407469 0.927298 0.035482
C61   C     C_R   0.699828 0.847629 0.036680 0.221511
C62   C     C_R   0.302973 0.857464 0.962298 0.282317
C63   C     C_R   0.197665 0.354110 0.037616 0.272624
C64   C     C_R   0.802820 0.358820 0.963341 0.276443
C65   C     C_R   0.699867 0.857039 0.961568 0.208958
C66   C     C_R   0.301427 0.860082 0.037268 0.220632
C67   C     C_R   0.199731 0.356316 0.962680 0.201374
C68   C     C_R   0.803255 0.359688 0.038406 0.220208
C69   C     C_R   0.749236 0.934903 0.928482 0.039379
C70   C     C_R   0.249930 0.931317 0.072143 -0.016538
C71   C     C_R   0.250130 0.431475 0.927971 -0.009009
C72   C     C_R   0.747680 0.418137 0.075587 -0.014816
C73   C     C_R   0.729585 0.015406 0.639060 0.577929
C74   C     C_R   0.271618 0.019855 0.360241 0.567082
C75   C     C_R   0.229178 0.516665 0.639136 0.568726
C76   C     C_R   0.771428 0.519320 0.360213 0.566846
C77   C     C_R   0.729399 0.376838 0.853296 0.576164
C78   C     C_R   0.269595 0.379004 0.147793 0.576464
C79   C     C_R   0.230350 0.878620 0.852240 0.565323
C80   C     C_R   0.769627 0.878547 0.147696 0.579478
C81   C     C_R   0.562480 0.153915 0.860635 0.569229
C82   C     C_R   0.469382 0.157837 0.147576 0.580595
C83   C     C_R   0.063722 0.653662 0.860488 0.579787
C84   C     C_R   0.969408 0.657619 0.147459 0.584264
C85   C     C_R   0.741192 0.971775 0.854792 0.593085
C86   C     C_R   0.258580 0.971328 0.145450 0.556318
C87   C     C_R   0.241390 0.470828 0.854561 0.546138
C88   C     C_R   0.758052 0.468480 0.146580 0.560361
C89   C     C_R   0.502929 0.158329 0.421955 0.003931
C90   C     C_R   0.511528 0.148222 0.571401 0.065866
C91   C     C_R   0.001940 0.658021 0.422663 0.003973
C92   C     C_R   0.009082 0.649079 0.572358 0.031927
C93   C     C_R   0.494367 0.260200 0.463949 -0.051621
C94   C     C_R   0.499569 0.255598 0.537076 -0.057343
C95   C     C_R   0.995100 0.761022 0.464141 -0.059163
C96   C     C_R   0.000075 0.757058 0.537427 -0.095589
C97   C     C_R   0.518647 0.040358 0.530523 0.216217
C98   C     C_R   0.521406 0.048586 0.455507 0.198969
C99   C     C_R   0.014589 0.540490 0.531883 0.208221
C100  C     C_R   0.018319 0.547798 0.456902 0.201574
Cr1   Cr    Cr6+3 0.771950 0.169480 0.750100 1.057625
Cr2   Cr    Cr6+3 0.228050 0.169480 0.249900 1.055388
Cr3   Cr    Cr6+3 0.271950 0.669480 0.750100 1.055413
Cr4   Cr    Cr6+3 0.728050 0.669480 0.249900 1.053981
Cr5   Cr    Cr6+3 0.614930 0.323340 0.749170 1.052752
Cr6   Cr    Cr6+3 0.385070 0.323340 0.250830 1.031167
Cr7   Cr    Cr6+3 0.114930 0.823340 0.749170 1.055774
Cr8   Cr    Cr6+3 0.885070 0.823340 0.250830 1.031737
Cr9   Cr    Cr6+3 0.616590 0.010620 0.750610 1.084372
Cr10  Cr    Cr6+3 0.383410 0.010620 0.249390 1.037224
Cr11  Cr    Cr6+3 0.116590 0.510620 0.750610 1.065955
Cr12  Cr    Cr6+3 0.883410 0.510620 0.249390 1.035213
H1    H     H_    0.835182 0.064478 0.945172 0.195110
H2    H     H_    0.158701 0.047265 0.056940 0.199701
H3    H     H_    0.339857 0.553695 0.943257 0.196339
H4    H     H_    0.644389 0.499521 0.065735 0.173876
H5    H     H_    0.835396 0.047591 0.070681 0.178077
H6    H     H_    0.159289 0.036329 0.931356 0.195312
H7    H     H_    0.340024 0.540402 0.068797 0.185149
H8    H     H_    0.644401 0.500688 0.939540 0.187289
H9    H     H_    0.885313 0.813980 0.443124 0.151841
H10   H     H_    0.955413 0.923397 0.575215 0.172446
H11   H     H_    0.383085 0.305142 0.444139 0.168539
H12   H     H_    0.449978 0.415038 0.578339 0.136676
H13   H     H_    0.643978 0.873993 0.561266 0.174516
H14   H     H_    0.377486 0.986193 0.455645 0.134317
H15   H     H_    0.140480 0.382630 0.559654 0.177110
H16   H     H_    0.876563 0.484271 0.455363 0.135778
H17   H     H_    0.654863 0.824787 0.436030 0.152723
H18   H     H_    0.366090 0.949302 0.585137 0.166169
H19   H     H_    0.151337 0.334455 0.434182 0.157354
H20   H     H_    0.864976 0.447707 0.584810 0.169147
H21   H     H_    0.571619 0.978781 0.956192 0.167113
H22   H     H_    0.541043 0.982532 0.080669 0.189621
H23   H     H_    0.067145 0.473904 0.954865 0.196677
H24   H     H_    0.035493 0.477624 0.078844 0.191954
O1    O     O_R   0.787510 0.042610 0.670410 -0.454871
O2    O     O_R   0.212490 0.042610 0.329590 -0.485725
O3    O     O_R   0.287510 0.542610 0.670410 -0.478986
O4    O     O_R   0.712490 0.542610 0.329590 -0.487787
O5    O     O_R   0.556450 0.252890 0.823790 -0.422142
O6    O     O_R   0.443550 0.252890 0.176210 -0.432599
O7    O     O_R   0.056450 0.752890 0.823790 -0.420299
O8    O     O_R   0.943550 0.752890 0.176210 -0.432148
O9    O     O_R   0.545750 0.051070 0.830560 -0.501803
O10   O     O_R   0.454250 0.051070 0.169440 -0.507744
O11   O     O_R   0.045750 0.551070 0.830560 -0.498576
O12   O     O_R   0.954250 0.551070 0.169440 -0.506636
O13   O     O_R   0.681210 0.959150 0.825320 -0.460731
O14   O     O_R   0.318790 0.959150 0.174680 -0.476051
O15   O     O_R   0.181210 0.459150 0.825320 -0.503469
O16   O     O_R   0.818790 0.459150 0.174680 -0.477259
O17   O     O_3   0.667820 0.167810 0.749960 -0.333209
O18   O     O_3   0.332180 0.167810 0.250040 -0.293320
O19   O     O_3   0.167820 0.667810 0.749960 -0.321778
O20   O     O_3   0.832180 0.667810 0.250040 -0.293206
O21   O     O_R   0.765670 0.292090 0.675090 -0.540815
O22   O     O_R   0.234330 0.292090 0.324910 -0.539825
O23   O     O_R   0.265670 0.792090 0.675090 -0.536739
O24   O     O_R   0.734330 0.792090 0.324910 -0.539273
O25   O     O_R   0.670220 0.409020 0.668560 -0.490887
O26   O     O_R   0.329780 0.409020 0.331440 -0.530114
O27   O     O_R   0.170220 0.909020 0.668560 -0.495122
O28   O     O_R   0.829780 0.909020 0.331440 -0.530569
O29   O     O_R   0.556580 0.251590 0.674980 -0.525897
O30   O     O_R   0.443420 0.251590 0.325020 -0.538681
O31   O     O_R   0.056580 0.751590 0.674980 -0.517911
O32   O     O_R   0.943420 0.751590 0.325020 -0.536355
O33   O     O_R   0.545890 0.049670 0.670030 -0.451356
O34   O     O_R   0.454110 0.049670 0.329970 -0.489689
O35   O     O_R   0.045890 0.549670 0.670030 -0.449542
O36   O     O_R   0.954110 0.549670 0.329970 -0.486872
O37   O     O_R   0.681340 0.957860 0.676500 -0.492584
O38   O     O_R   0.318660 0.957860 0.323500 -0.519913
O39   O     O_R   0.181340 0.457860 0.676500 -0.499148
O40   O     O_R   0.818660 0.457860 0.323500 -0.520142
O41   O     O_R   0.787380 0.044010 0.830940 -0.512622
O42   O     O_R   0.212620 0.044010 0.169060 -0.494485
O43   O     O_R   0.287380 0.544010 0.830940 -0.494017
O44   O     O_R   0.712620 0.544010 0.169060 -0.492403
O45   O     O_R   0.765540 0.293390 0.823910 -0.448994
O46   O     O_R   0.234460 0.293390 0.176090 -0.436542
O47   O     O_R   0.265540 0.793390 0.823910 -0.443015
O48   O     O_R   0.734460 0.793390 0.176090 -0.433382
O49   O     O_R   0.670090 0.410410 0.829090 -0.508277
O50   O     O_R   0.329910 0.410410 0.170910 -0.513167
O51   O     O_R   0.170090 0.910410 0.829090 -0.511081
O52   O     O_R   0.829910 0.910410 0.170910 -0.515837
O53   O     O_3   0.519634 0.929353 0.565022 -0.708515
H25   H     H_    0.524190 0.862073 0.530935 0.310270
O54   O     O_3   0.536307 0.948460 0.414706 -0.704090
H26   H     H_    0.497321 0.889294 0.422779 0.303678
O55   O     O_3   0.013710 0.429746 0.566797 -0.708843
H27   H     H_    0.020306 0.362120 0.533303 0.311545
O56   O     O_3   0.031990 0.446426 0.416704 -0.705465
H28   H     H_    0.992620 0.388302 0.425451 0.303734
O57   O     O_3   0.652923 0.772513 0.072625 -0.686464
H29   H     H_    0.640063 0.703637 0.041878 0.323682
O58   O     O_3   0.354693 0.795581 0.925308 -0.674505
H30   H     H_    0.391546 0.767175 0.958404 0.360785
O59   O     O_3   0.146286 0.289228 0.074470 -0.687326
H31   H     H_    0.109511 0.259954 0.041298 0.358037
O60   O     O_3   0.857627 0.309713 0.924137 -0.672620
H32   H     H_    0.896118 0.283999 0.956071 0.366902
O61   O     O_3   0.653206 0.792628 0.919420 -0.691998
H33   H     H_    0.608416 0.778903 0.945726 0.318888
O62   O     O_3   0.349742 0.792032 0.074434 -0.714063
H34   H     H_    0.327246 0.764972 0.119582 0.330759
O63   O     O_3   0.152877 0.284297 0.925439 -0.732742
H35   H     H_    0.175182 0.261838 0.879561 0.339950
O64   O     O_3   0.857946 0.303750 0.073493 -0.711020
H36   H     H_    0.838988 0.270028 0.118742 0.329697
O65   O     O_3   0.453175 0.455049 0.440648 -0.789995
H37   H     H_    0.456359 0.446252 0.388325 0.351318
O66   O     O_3   0.379705 0.266243 0.576194 -0.713926
H38   H     H_    0.343083 0.325991 0.588831 0.347327
O67   O     O_3   0.958835 0.958740 0.438607 -0.783389
H39   H     H_    0.960863 0.948804 0.386286 0.351633
O68   O     O_3   0.879505 0.785743 0.578472 -0.682538
H40   H     H_    0.866679 0.712290 0.550997 0.321295
N1    N     N_2   0.799930 0.140355 0.403565 -0.497064
H41   H     H_    0.777814 0.216874 0.425370 0.250316
C101  C     C_3   0.870877 0.163897 0.377093 -0.261273
H42   H     H_    0.872220 0.252276 0.349148 0.155095
H43   H     H_    0.909684 0.168992 0.420568 0.149971
H44   H     H_    0.887276 0.096191 0.337514 0.187677
N2    N     N_2   0.147042 0.090988 0.584283 -0.483137
H45   H     H_    0.149111 0.180530 0.569533 0.243601
C102  C     C_3   0.075905 0.045219 0.594879 -0.242543
H46   H     H_    0.060664 0.056506 0.651565 0.172985
H47   H     H_    0.072867 0.947993 0.581583 0.168514
H48   H     H_    0.037585 0.096130 0.562272 0.117750
N3    N     N_2   0.301060 0.641105 0.403588 -0.492280
H49   H     H_    0.279092 0.717885 0.425224 0.249648
C103  C     C_3   0.372106 0.663736 0.377188 -0.262756
H50   H     H_    0.374293 0.753341 0.350635 0.152433
H51   H     H_    0.411075 0.665606 0.420614 0.154152
H52   H     H_    0.387532 0.597220 0.336470 0.186535
N4    N     N_2   0.644192 0.585473 0.583049 -0.478307
H53   H     H_    0.645109 0.675018 0.568454 0.243447
C104  C     C_3   0.573526 0.537016 0.592882 -0.240827
H54   H     H_    0.557291 0.548662 0.649266 0.173738
H55   H     H_    0.572007 0.439629 0.580186 0.166917
H56   H     H_    0.534977 0.585644 0.559377 0.120500
N5    N     N_2   0.853896 0.085883 0.550472 -0.485851
H57   H     H_    0.898420 0.062964 0.523427 0.294069
C105  C     C_3   0.855917 0.212437 0.563672 -0.280815
H58   H     H_    0.893421 0.258902 0.526760 0.112260
H59   H     H_    0.875039 0.228116 0.618541 0.201508
H60   H     H_    0.802558 0.248443 0.555316 0.162591
N6    N     N_2   0.133256 0.007466 0.435789 -0.473753
H61   H     H_    0.099405 0.944060 0.457821 0.276829
C106  C     C_3   0.097251 0.117032 0.414872 -0.240401
H62   H     H_    0.081038 0.170789 0.461545 0.116251
H63   H     H_    0.049765 0.093933 0.383578 0.158584
H64   H     H_    0.130354 0.172502 0.379011 0.188450
N7    N     N_2   0.353258 0.587533 0.551353 -0.511241
H65   H     H_    0.398700 0.561747 0.526966 0.293293
C107  C     C_3   0.355766 0.714617 0.562504 -0.274605
H66   H     H_    0.393268 0.759067 0.524779 0.109712
H67   H     H_    0.375166 0.732522 0.617039 0.198338
H68   H     H_    0.302456 0.750758 0.553885 0.163529
N8    N     N_2   0.632424 0.503564 0.434522 -0.473735
H69   H     H_    0.599142 0.438723 0.455983 0.270359
C108  C     C_3   0.595167 0.612196 0.413956 -0.244168
H70   H     H_    0.579443 0.666199 0.460693 0.114073
H71   H     H_    0.547145 0.587465 0.383893 0.154015
H72   H     H_    0.626993 0.668334 0.377178 0.188599
O69   O     O_3   0.475076 0.379784 0.069937 -0.686473
H73   H     H_    0.445928 0.421284 0.033924 0.326300
O70   O     O_3   0.522355 0.379748 0.926100 -0.680139
H74   H     H_    0.526244 0.451909 0.956901 0.318281
O71   O     O_3   0.983535 0.881459 0.071910 -0.683111
H75   H     H_    0.958693 0.929106 0.035142 0.330441
O72   O     O_3   0.038570 0.882304 0.930400 -0.673657
H76   H     H_    0.045639 0.951303 0.963116 0.325290

loop_
_geom_bond_atom_site_label_1
_geom_bond_atom_site_label_2
_ccdc_geom_bond_type
C58   C62   A    
C49   H1    S    
O60   H32   S    
C49   C53   A    
C93   C94   A    
C55   C59   A    
C34   C37   A    
C77   O49   A    
C41   C42   A    
C14   C18   A    
Cr5   O17   S    
C95   C96   A    
C8    C96   S    
C86   O42   A    
C82   O6    A    
C107  H68   S    
C1    O25   A    
Cr2   O22   S    
C97   C98   A    
C45   O29   A    
C101  H44   S    
Cr1   O45   S    
N8    H69   S    
C8    H10   S    
C46   C89   S    
C55   H7    S    
O65   H37   S    
C15   C19   A    
Cr8   O28   S    
C91   C95   A    
C50   C54   A    
C79   O51   A    
Cr11  O39   S    
C64   C68   A    
C56   C60   A    
O71   H75   S    
Cr4   O24   S    
C39   C84   S    
C74   O38   A    
C102  H48   S    
Cr11  O11   S    
C86   O14   A    
Cr5   O5    S    
C5    C6    S    
C30   C74   S    
Cr9   O37   S    
N6    C106  S    
C29   C73   S    
C34   H22   S    
O70   H74   S    
Cr7   O51   S    
C92   C96   A    
C3    C18   S    
C104  H54   S    
Cr2   O2    S    
Cr5   O49   S    
C42   O70   S    
C9    C13   A    
C22   C26   A    
Cr7   O19   S    
C82   O10   A    
C48   O36   A    
C11   C15   A    
C6    O66   S    
N4    H53   S    
Cr5   O29   S    
C6    C94   S    
C48   C91   S    
C48   O32   A    
C5    H11   S    
C77   O45   A    
C103  H50   S    
C4    O28   A    
Cr6   O6    S    
C33   H21   S    
C78   O50   A    
C23   C27   A    
C91   C100  A    
C105  H60   S    
Cr9   O17   S    
C108  H70   S    
Cr2   O18   S    
C90   C97   A    
Cr3   O43   S    
C85   O13   A    
O55   H27   S    
C9    C29   A    
C5    C93   S    
O72   H76   S    
C97   O53   S    
Cr8   O32   S    
C11   C31   A    
O58   H30   S    
C49   C69   A    
O69   H73   S    
C12   C32   A    
C89   C93   A    
C103  H51   S    
C57   C80   S    
C40   C83   S    
Cr12  O36   S    
C51   C71   A    
C7    H9    S    
C47   C92   S    
C36   H24   S    
C59   C78   S    
O59   H31   S    
C72   C88   S    
Cr9   O33   S    
C90   C94   A    
C63   C67   A    
C105  H59   S    
C25   C29   A    
C27   N7    S    
O63   H35   S    
Cr7   O31   S    
C60   C77   S    
C62   C66   A    
C27   C31   A    
O62   H34   S    
Cr2   O46   S    
C107  H67   S    
C12   C16   A    
C28   C32   A    
Cr1   O41   S    
C63   O59   S    
Cr6   O50   S    
C101  H42   S    
N6    H61   S    
C10   C14   A    
N2    C102  S    
C61   O57   S    
O68   H40   S    
C106  H63   S    
Cr1   O1    S    
C19   C23   A    
C39   C43   A    
C22   N2    S    
C51   C55   A    
Cr6   O18   S    
Cr1   O17   S    
O61   H33   S    
C75   O39   A    
O53   H25   S    
C51   H3    S    
O54   H26   S    
C45   O33   A    
C68   C72   A    
C50   H2    S    
C35   C36   A    
C7    O67   S    
Cr4   O44   S    
C84   O12   A    
C11   H15   S    
C43   C44   A    
O64   H36   S    
C32   C76   S    
C102  H46   S    
Cr10  O18   S    
C88   O44   A    
Cr3   O3    S    
C24   N4    S    
N1    H41   S    
C47   O31   A    
C73   O37   A    
C10   C30   A    
C31   C75   S    
N2    H45   S    
Cr8   O20   S    
C85   O41   A    
C76   O40   A    
Cr9   O13   S    
C16   C20   A    
C5    O65   S    
C52   C72   A    
C83   O7    A    
N7    H65   S    
Cr12  O16   S    
C33   C34   A    
C80   O52   A    
C15   H19   S    
C1    O21   A    
N4    C104  S    
Cr4   O20   S    
N7    C107  S    
C41   O69   S    
C45   C90   S    
N3    C103  S    
C46   O34   A    
C21   N1    S    
C58   C79   S    
C83   O11   A    
C4    C17   S    
Cr10  O34   S    
Cr3   O19   S    
Cr4   O48   S    
C64   O60   S    
Cr7   O27   S    
C43   O71   S    
C26   C30   A    
C81   O9    A    
C54   H6    S    
C38   C81   S    
C71   C87   S    
Cr2   O42   S    
C103  H52   S    
Cr3   O47   S    
C37   C82   S    
C104  H55   S    
Cr11  O19   S    
C76   O4    A    
C35   H23   S    
C107  H66   S    
C70   C86   S    
Cr6   O30   S    
Cr8   O8    S    
C69   C85   S    
N3    H49   S    
C100  O56   S    
C10   H14   S    
C52   H4    S    
N8    C108  S    
C14   H18   S    
C21   C25   A    
C6    H12   S    
C1    C20   S    
C53   C57   A    
C46   O30   A    
Cr12  O40   S    
C2    C19   S    
C18   C22   A    
Cr8   O52   S    
C36   C39   A    
Cr9   O9    S    
C24   C28   A    
N5    H57   S    
C98   O54   S    
Cr10  O14   S    
Cr11  O15   S    
C88   O16   A    
C106  H64   S    
C47   O35   A    
C105  H58   S    
C101  H43   S    
C57   C61   A    
C56   H8    S    
Cr6   O26   S    
C3    O27   A    
C66   C70   A    
C28   N8    S    
C7    C95   S    
C99   O55   S    
C12   H16   S    
C59   C63   A    
C33   C38   A    
C99   C100  A    
C13   C17   A    
C89   C98   A    
C60   C64   A    
C104  H56   S    
N5    C105  S    
C35   C40   A    
C50   C70   A    
N1    C101  S    
C108  H71   S    
C75   O3    A    
C87   O43   A    
C4    O24   A    
C66   O62   S    
C74   O2    A    
Cr3   O23   S    
C106  H62   S    
Cr10  O38   S    
C73   O1    A    
C53   H5    S    
C65   C69   A    
O67   H39   S    
C81   O5    A    
C79   O47   A    
C67   O63   S    
C67   C71   A    
C80   O48   A    
C61   C65   A    
C37   C41   A    
O57   H29   S    
C16   H20   S    
C108  H72   S    
C17   C21   A    
C7    C8    S    
C26   N6    S    
C3    O23   A    
Cr1   O21   S    
O56   H28   S    
C23   N3    S    
C9    H13   S    
Cr12  O12   S    
C40   C44   A    
C44   O72   S    
C65   O61   S    
C2    O22   A    
C38   C42   A    
C102  H47   S    
O66   H38   S    
Cr12  O20   S    
C62   O58   S    
C54   C58   A    
C8    O68   S    
C84   O8    A    
Cr5   O25   S    
C87   O15   A    
C78   O46   A    
Cr10  O10   S    
C68   O64   S    
Cr7   O7    S    
C20   C24   A    
C13   H17   S    
C52   C56   A    
C92   C99   A    
Cr4   O4    S    
C2    O26   A    
Cr11  O35   S    
C25   N5    S    
