data_mof_unit_2998.cif
_audit_creation_date              2012-12-11T17:12:48-0500
_audit_creation_method            fapswitch 2.2
_symmetry_space_group_name_H-M    P1
_symmetry_Int_Tables_number       1
_space_group_crystal_system       triclinic
_cell_length_a                    17.266788
_cell_length_b                    6.883743
_cell_length_c                    14.368006
_cell_angle_alpha                 90.197924
_cell_angle_beta                  110.319284
_cell_angle_gamma                 90.077113
_cell_volume                      1601.49588939

loop_
_atom_site_label
_atom_site_type_symbol
_atom_type_description
_atom_site_fract_x
_atom_site_fract_y
_atom_site_fract_z
_atom_type_partial_charge
O1    O     O_R   0.314130 0.635770 0.168990 -0.546590
O2    O     O_R   0.685870 0.364230 0.831010 -0.546565
O3    O     O_R   0.185870 0.135770 0.331010 -0.542506
O4    O     O_R   0.814130 0.864230 0.668990 -0.542492
O5    O     O_R   0.146800 0.302460 0.139760 -0.537187
O6    O     O_R   0.853200 0.697540 0.860240 -0.537221
O7    O     O_R   0.353200 0.802460 0.360240 -0.540033
O8    O     O_R   0.646800 0.197540 0.639760 -0.540054
C1    C     C_R   0.114007 0.475593 0.112762 0.725651
C2    C     C_R   0.885991 0.524405 0.887241 0.725786
C3    C     C_R   0.385966 0.976037 0.387186 0.725393
C4    C     C_R   0.614034 0.023962 0.612814 0.725453
O9    O     O_R   0.311100 0.305780 0.157130 -0.544424
O10   O     O_R   0.688900 0.694220 0.842870 -0.544433
O11   O     O_R   0.188900 0.805780 0.342870 -0.548890
O12   O     O_R   0.811100 0.194220 0.657130 -0.548891
O13   O     O_R   0.351340 0.139640 0.348510 -0.534160
O14   O     O_R   0.648660 0.860360 0.651490 -0.534113
O15   O     O_R   0.148660 0.639640 0.151490 -0.536973
O16   O     O_R   0.851340 0.360360 0.848510 -0.536931
C5    C     C_R   0.333752 0.474575 0.137331 0.725836
C6    C     C_R   0.666261 0.525426 0.862678 0.725747
C7    C     C_R   0.166226 0.975067 0.362609 0.725080
C8    C     C_R   0.833765 0.024932 0.637382 0.725013
C9    C     C_1   0.533601 0.008655 0.533080 -0.187477
C10   C     C_1   0.466398 0.991344 0.466919 -0.187549
C11   C     C_1   0.966425 0.509236 0.966969 -0.187498
C12   C     C_1   0.033573 0.490764 0.033032 -0.187432
O17   O     O_3   0.263010 0.470920 0.312770 -0.368772
O18   O     O_3   0.736990 0.529080 0.687230 -0.368775
O19   O     O_3   0.236990 0.970920 0.187230 -0.367320
O20   O     O_3   0.763010 0.029080 0.812770 -0.367337
V1    V     V_3+5 0.247590 0.194450 0.238360 1.409034
V2    V     V_3+5 0.752410 0.805550 0.761640 1.409063
V3    V     V_3+5 0.252410 0.694450 0.261640 1.398736
V4    V     V_3+5 0.747590 0.305550 0.738360 1.398775
C13   C     C_R   0.115777 0.987085 0.426922 -0.100919
C14   C     C_R   0.884216 0.012921 0.573074 -0.100931
C15   C     C_R   0.384234 0.483418 0.072986 -0.098927
C16   C     C_R   0.615765 0.516586 0.927003 -0.099197
C17   C     C_R   0.897446 0.911275 0.417417 -0.205409
C18   C     C_R   0.102537 0.088806 0.582565 -0.205396
C19   C     C_R   0.603948 0.564769 0.088858 -0.204714
C20   C     C_R   0.396071 0.434989 0.911149 -0.204694
C21   C     C_R   0.848780 0.934617 0.476548 0.103211
C22   C     C_R   0.151199 0.065507 0.523424 0.103182
C23   C     C_R   0.652410 0.563102 0.028678 0.103051
C24   C     C_R   0.347604 0.436733 0.971324 0.102923
C25   C     C_R   0.969004 0.067399 0.609923 0.064260
C26   C     C_R   0.031000 0.932510 0.390094 0.064263
C27   C     C_R   0.530340 0.468996 0.886394 0.065317
C28   C     C_R   0.469652 0.531126 0.113568 0.065256
C29   C     C_R   0.018036 0.039515 0.548597 0.067975
C30   C     C_R   0.981960 0.960467 0.451404 0.067920
C31   C     C_R   0.481451 0.475530 0.948882 0.067674
C32   C     C_R   0.518553 0.524408 0.051101 0.067368
H1    H     H_    0.867097 0.854547 0.343595 0.134218
H2    H     H_    0.132876 0.145616 0.656370 0.134195
H3    H     H_    0.635192 0.596769 0.166455 0.135103
H4    H     H_    0.364841 0.402713 0.833574 0.134920
C33   C     C_3   0.992921 0.851103 0.284621 -0.367200
C34   C     C_3   0.946881 0.008404 0.211652 -0.757374
H5    H     H_    0.897345 0.074146 0.234011 0.225833
H6    H     H_    0.990553 0.124527 0.208222 0.226239
H7    H     H_    0.918390 0.943930 0.136443 0.220162
H8    H     H_    0.039659 0.788026 0.256827 0.185940
H9    H     H_    0.951793 0.725858 0.282245 0.169464
C35   C     C_3   0.007105 0.148599 0.715438 -0.367111
C36   C     C_3   0.053211 0.991196 0.788300 -0.757380
H10   H     H_    0.009582 0.874927 0.791675 0.226237
H11   H     H_    0.102758 0.925681 0.765881 0.225809
H12   H     H_    0.081699 0.055511 0.863548 0.220177
H13   H     H_    0.048193 0.273942 0.717854 0.169385
H14   H     H_    0.960375 0.211459 0.743315 0.185899
C37   C     C_3   0.508381 0.583552 0.223704 -0.366891
C38   C     C_3   0.550465 0.407824 0.284890 -0.762021
H15   H     H_    0.504007 0.293374 0.281053 0.226655
H16   H     H_    0.597738 0.346743 0.257024 0.228261
H17   H     H_    0.581035 0.451736 0.363673 0.222204
H18   H     H_    0.552246 0.706725 0.235316 0.168919
H19   H     H_    0.462570 0.639170 0.255084 0.186326
C39   C     C_3   0.491578 0.417198 0.776182 -0.366852
C40   C     C_3   0.449447 0.593194 0.715303 -0.762031
H20   H     H_    0.401816 0.653034 0.742888 0.228247
H21   H     H_    0.495793 0.708311 0.719821 0.226666
H22   H     H_    0.419298 0.550053 0.636343 0.222233
H23   H     H_    0.537378 0.362066 0.744682 0.186273
H24   H     H_    0.447747 0.293902 0.764377 0.168863
C41   C     C_3   0.241618 0.124604 0.566520 -0.360330
C42   C     C_3   0.297291 0.947816 0.600791 -0.777562
H25   H     H_    0.280243 0.867031 0.657691 0.227699
H26   H     H_    0.291898 0.849271 0.537579 0.229315
H27   H     H_    0.362594 0.996035 0.634002 0.215712
H28   H     H_    0.260252 0.208711 0.511988 0.189978
H29   H     H_    0.252648 0.222820 0.631528 0.172054
C43   C     C_3   0.758341 0.875684 0.433426 -0.360373
C44   C     C_3   0.702723 0.052577 0.399186 -0.777556
H30   H     H_    0.708163 0.151117 0.462412 0.229368
H31   H     H_    0.719780 0.133324 0.342283 0.227677
H32   H     H_    0.637404 0.004481 0.365986 0.215691
H33   H     H_    0.747288 0.777502 0.368401 0.172071
H34   H     H_    0.739674 0.791590 0.487936 0.189882
C45   C     C_3   0.256034 0.391051 0.923790 -0.365331
C46   C     C_3   0.204264 0.576071 0.903659 -0.766034
H35   H     H_    0.211731 0.654722 0.973779 0.231310
H36   H     H_    0.223012 0.673166 0.853557 0.226311
H37   H     H_    0.137998 0.538083 0.867301 0.213702
H38   H     H_    0.243316 0.313420 0.851957 0.173770
H39   H     H_    0.235244 0.291407 0.970987 0.184764
C47   C     C_3   0.743980 0.608728 0.076210 -0.365278
C48   C     C_3   0.795692 0.423637 0.096592 -0.766331
H40   H     H_    0.777214 0.327458 0.147238 0.226269
H41   H     H_    0.787871 0.344017 0.026634 0.231454
H42   H     H_    0.862002 0.461651 0.132436 0.213775
H43   H     H_    0.764828 0.708027 0.028922 0.184697
H44   H     H_    0.756677 0.686760 0.147939 0.173780

loop_
_geom_bond_atom_site_label_1
_geom_bond_atom_site_label_2
_ccdc_geom_bond_type
C2    C11   S    
C16   C23   A    
C31   C32   A    
O1    C5    A    
C25   C35   S    
C43   H34   S    
O3    C7    A    
C48   H40   S    
C38   H17   S    
C28   C37   S    
C18   H2    S    
C46   H36   S    
C44   H30   S    
C22   C41   S    
C29   C30   A    
O7    C3    A    
C26   C30   A    
O20   V4    S    
C38   H16   S    
C18   C29   A    
O8    V4    S    
O4    C8    A    
C25   C29   A    
O3    V1    S    
C35   H14   S    
C39   H23   S    
O17   V1    S    
C18   C22   A    
C41   H28   S    
C36   H11   S    
C47   C48   S    
C14   C21   A    
C34   H6    S    
C33   H8    S    
C1    O15   A    
C2    O16   A    
C35   C36   S    
O5    V1    S    
O2    C6    A    
C8    C14   S    
O19   V1    S    
C45   H38   S    
C37   H18   S    
C19   H3    S    
O11   C7    A    
C15   C28   A    
O12   C8    A    
C43   H33   S    
O9    V1    S    
C36   H10   S    
O13   V1    S    
O11   V3    S    
C46   H35   S    
C44   H31   S    
O4    V2    S    
O18   V2    S    
C38   H15   S    
C41   C42   S    
C14   C25   A    
C37   H19   S    
C3    C10   S    
C9    C10   T    
C7    C13   S    
C24   C45   S    
O6    V2    S    
O20   V2    S    
C41   H29   S    
C36   H12   S    
C37   C38   S    
O5    C1    A    
C34   H5    S    
C33   H9    S    
C42   H26   S    
C40   H20   S    
C5    C15   S    
O8    C4    A    
C6    C16   S    
C43   C44   S    
O9    C5    A    
C48   H41   S    
O14   V2    S    
C27   C39   S    
C40   H21   S    
O19   V3    S    
C16   C27   A    
C47   H44   S    
C45   C46   S    
C44   H32   S    
O1    V3    S    
C42   H27   S    
O2    V4    S    
C3    O13   A    
C34   H7    S    
O7    V3    S    
O10   V2    S    
O6    C2    A    
C23   C47   S    
O17   V3    S    
O18   V4    S    
C4    C9    S    
C45   H39   S    
O10   C6    A    
C35   H13   S    
C17   H1    S    
O15   V3    S    
O12   V4    S    
C13   C26   A    
C20   C31   A    
C42   H25   S    
C20   H4    S    
C39   H24   S    
C48   H42   S    
C27   C31   A    
C33   C34   S    
C17   C30   A    
O16   V4    S    
C28   C32   A    
C19   C32   A    
C40   H22   S    
C39   C40   S    
C4    O14   A    
C11   C12   T    
C26   C33   S    
C17   C21   A    
C13   C22   A    
C21   C43   S    
C19   C23   A    
C47   H43   S    
C46   H37   S    
C20   C24   A    
C1    C12   S    
C15   C24   A    
