data_mof_unit_3338.cif
_audit_creation_date              2012-12-10T17:52:17-0500
_audit_creation_method            fapswitch 2.2
_symmetry_space_group_name_H-M    P1
_symmetry_Int_Tables_number       1
_space_group_crystal_system       triclinic
_cell_length_a                    19.031532
_cell_length_b                    10.620084
_cell_length_c                    9.920925
_cell_angle_alpha                 91.624638
_cell_angle_beta                  88.922829
_cell_angle_gamma                 92.601616
_cell_volume                      2002.00240769

loop_
_atom_site_label
_atom_site_type_symbol
_atom_type_description
_atom_site_fract_x
_atom_site_fract_y
_atom_site_fract_z
_atom_type_partial_charge
C1    C     C_R   0.508771 0.261776 0.496389 0.869287
C2    C     C_R   0.854867 0.557620 0.472254 -0.079720
C3    C     C_R   0.605592 0.143522 0.679098 -0.184651
C4    C     C_R   0.365816 0.501879 0.501460 0.861702
C5    C     C_R   0.646678 0.082844 0.770577 0.220348
C6    C     C_R   0.646065 0.951260 0.767519 -0.189327
C7    C     C_R   0.602787 0.881158 0.678544 -0.197660
C8    C     C_R   0.558761 0.941346 0.589263 0.077896
C9    C     C_R   0.562457 0.073619 0.586716 0.044536
C10   C     C_R   0.527145 0.131631 0.483627 -0.207013
C11   C     C_R   0.503833 0.059295 0.370364 0.124426
C12   C     C_R   0.290766 0.518604 0.504918 -0.196247
C13   C     C_R   0.479627 0.937022 0.394340 0.132460
C14   C     C_R   0.510906 0.875243 0.500861 -0.197328
C15   C     C_R   0.404651 0.338914 0.138598 -0.163310
C16   C     C_R   0.502123 0.740615 0.501416 0.878384
C17   C     C_R   0.357094 0.259913 0.068083 -0.211645
C18   C     C_R   0.356347 0.260952 0.928625 -0.179028
C19   C     C_R   0.403424 0.340466 0.858924 -0.126410
C20   C     C_R   0.451856 0.422689 0.927283 0.154270
C21   C     C_R   0.451949 0.422659 0.071693 0.131671
C22   C     C_R   0.549806 0.568875 0.070275 0.145886
C23   C     C_R   0.931325 0.569724 0.471427 0.278738
C24   C     C_R   0.547789 0.569828 0.926756 -0.098670
C25   C     C_R   0.634298 0.497435 0.498590 0.855892
C26   C     C_R   0.264959 0.638543 0.542700 0.365881
C27   C     C_R   0.193147 0.659378 0.529329 0.161705
C28   C     C_R   0.148028 0.559020 0.482988 -0.058147
C29   C     C_R   0.173687 0.440838 0.450066 -0.214069
C30   C     C_R   0.244665 0.418405 0.461758 0.131577
C31   C     C_3   0.691444 0.158761 0.870263 -0.449477
C32   C     C_3   0.752085 0.231440 0.800068 -0.827839
C33   C     C_3   0.411480 0.886218 0.328372 -0.363409
C34   C     C_R   0.072656 0.570906 0.476631 0.311504
C35   C     C_3   0.419103 0.830286 0.184963 -0.793857
C36   C     C_3   0.611923 0.634468 0.141640 -0.333695
C37   C     C_3   0.656359 0.729438 0.059353 -1.005036
C38   C     C_3   0.166177 0.790559 0.557782 -0.353902
C39   C     C_3   0.155811 0.858861 0.426804 -0.865076
C40   C     C_3   0.268605 0.286086 0.430117 -0.411673
C41   C     C_3   0.243211 0.194840 0.538735 -0.866570
C42   C     C_3   0.719853 0.313430 0.334529 -0.433173
C43   C     C_3   0.744579 0.191693 0.392633 -0.851779
C44   C     C_3   0.514354 0.101265 0.224981 -0.346320
C45   C     C_R   0.823050 0.456031 0.399356 -0.213547
C46   C     C_3   0.566996 0.020415 0.147982 -0.910919
C47   C     C_R   0.750750 0.428772 0.410317 0.162587
C48   C     C_R   0.710271 0.507777 0.494801 -0.161885
C49   C     C_R   0.742133 0.608189 0.568574 -0.232136
C50   C     C_R   0.813680 0.636334 0.555813 0.475568
H1    H     H_    0.610991 0.245102 0.676439 0.173014
H2    H     H_    0.855082 0.395010 0.336817 0.172081
H3    H     H_    0.710628 0.669332 0.631829 0.161342
H4    H     H_    0.355390 0.711335 0.608474 0.345807
H5    H     H_    0.785018 0.165526 0.740532 0.270250
H6    H     H_    0.731934 0.302491 0.732278 0.257099
H7    H     H_    0.785438 0.281625 0.876928 0.255195
H8    H     H_    0.658157 0.226066 0.927209 0.208904
H9    H     H_    0.713727 0.096180 0.945009 0.214285
H10   H     H_    0.370268 0.774188 0.159337 0.244274
H11   H     H_    0.425898 0.904808 0.109510 0.247932
H12   H     H_    0.679954 0.902584 0.832971 0.157050
H13   H     H_    0.463506 0.766971 0.174965 0.278965
H14   H     H_    0.385619 0.812778 0.391613 0.232597
H15   H     H_    0.373685 0.963012 0.326983 0.185500
H16   H     H_    0.687712 0.680241 0.980126 0.274509
H17   H     H_    0.622197 0.797066 0.012510 0.267757
H18   H     H_    0.693653 0.783108 0.126645 0.275331
H19   H     H_    0.593389 0.686894 0.231668 0.254754
H20   H     H_    0.647766 0.561310 0.172079 0.231207
H21   H     H_    0.206490 0.868600 0.369767 0.267860
H22   H     H_    0.116356 0.806544 0.363074 0.267205
H23   H     H_    0.606290 0.780265 0.678873 0.158944
H24   H     H_    0.136813 0.954492 0.450190 0.249052
H25   H     H_    0.116264 0.785949 0.617013 0.205956
H26   H     H_    0.203084 0.849543 0.620901 0.253404
H27   H     H_    0.263703 0.227478 0.638460 0.258772
H28   H     H_    0.184848 0.187418 0.544111 0.261078
H29   H     H_    0.262811 0.099737 0.514532 0.256832
H30   H     H_    0.247709 0.252611 0.330933 0.205735
H31   H     H_    0.326580 0.282209 0.422677 0.192487
H32   H     H_    0.802599 0.186792 0.382982 0.261728
H33   H     H_    0.728711 0.185991 0.500519 0.270971
H34   H     H_    0.405013 0.328243 0.244762 0.200702
H35   H     H_    0.720055 0.109284 0.337160 0.250424
H36   H     H_    0.661644 0.307648 0.338133 0.222582
H37   H     H_    0.735903 0.317892 0.226397 0.209170
H38   H     H_    0.884143 0.773250 0.577137 0.337467
H39   H     H_    0.553904 0.918789 0.158061 0.286683
H40   H     H_    0.567174 0.042811 0.039353 0.255485
H41   H     H_    0.620713 0.040337 0.187328 0.257121
H42   H     H_    0.463250 0.098475 0.173325 0.208377
H43   H     H_    0.537772 0.197547 0.215498 0.236383
H44   H     H_    0.321691 0.195542 0.121909 0.143993
H45   H     H_    0.319962 0.198064 0.873888 0.149333
H46   H     H_    0.401292 0.332805 0.751825 0.205448
H47   H     H_    0.586148 0.623790 0.868311 0.164948
H48   H     H_    0.137640 0.364540 0.417060 0.167592
N1    N     N_R   0.038595 0.543507 0.360062 -0.168931
N2    N     N_R   0.968855 0.543134 0.357450 -0.172617
N3    N     N_R   0.965566 0.595186 0.588227 -0.147219
N4    N     N_R   0.035202 0.595669 0.590808 -0.173675
N5    N     N_R   0.499340 0.498800 0.142780 -0.156707
N6    N     N_R   0.499320 0.498720 0.857170 -0.144011
O1    O     O_R   0.500000 0.316780 0.614690 -0.631940
O2    O     O_3   0.840507 0.742560 0.623801 -0.762519
O3    O     O_R   0.499990 0.316750 0.385360 -0.659361
O4    O     O_R   0.398140 0.500000 0.614700 -0.628602
O5    O     O_R   0.398130 0.499970 0.385370 -0.616124
O6    O     O_R   0.500010 0.683250 0.614640 -0.621358
O7    O     O_R   0.500000 0.683220 0.385310 -0.618963
O8    O     O_R   0.601870 0.500030 0.614630 -0.628598
O9    O     O_R   0.601860 0.500000 0.385300 -0.646505
O10   O     O_3   0.307969 0.738755 0.588877 -0.814061
Zn1   Zn    Zn3+2 0.500000 0.500020 0.653130 0.920510
Zn2   Zn    Zn3+2 0.500000 0.499980 0.346870 0.896297

loop_
_geom_bond_atom_site_label_1
_geom_bond_atom_site_label_2
_ccdc_geom_bond_type
C4    O5    A    
N3    N4    A    
C43   H33   S    
C19   C20   A    
C33   H15   S    
C7    C8    A    
C7    H23   S    
C46   H39   S    
C38   H26   S    
C4    O4    A    
C26   C27   A    
C34   N4    A    
C29   H48   S    
O4    Zn1   S    
C28   C29   A    
C41   H27   S    
C5    C6    A    
C23   N3    A    
C27   C38   S    
C37   H18   S    
C37   H17   S    
C18   C19   A    
C39   H24   S    
C31   H9    S    
C44   H43   S    
C2    C50   A    
O5    Zn2   S    
N1    N2    A    
C44   C46   S    
C8    C9    A    
C39   H22   S    
C40   H30   S    
O7    Zn2   S    
C42   H36   S    
C4    C12   S    
C9    C10   A    
C32   H5    S    
C25   O8    A    
O9    Zn2   S    
C23   N2    A    
C28   C34   S    
C13   C14   A    
C18   H45   S    
C32   H7    S    
C36   H20   S    
C34   N1    A    
C38   H25   S    
C45   C47   A    
C2    C45   A    
C16   O6    A    
C24   H47   S    
C43   H35   S    
C41   H28   S    
C3    H1    S    
C46   H41   S    
C45   H2    S    
C22   N5    A    
C12   C26   A    
C35   H10   S    
C24   N6    A    
C26   O10   S    
C13   C33   S    
C29   C30   A    
C3    C9    A    
C25   O9    A    
N6    Zn1   S    
H38   O2    S    
C47   C48   A    
C37   H16   S    
C17   C18   A    
C30   C40   S    
C11   C44   S    
C35   H11   S    
C25   C48   S    
C6    C7    A    
C1    O3    A    
C46   H40   S    
C48   C49   A    
C14   C16   S    
C42   C43   S    
C2    C23   S    
C36   H19   S    
C31   H8    S    
C15   C17   A    
C40   C41   S    
C8    C14   A    
C12   C30   A    
C40   H31   S    
O1    Zn1   S    
C31   C32   S    
C1    C10   S    
C3    C5    A    
C44   H42   S    
C41   H29   S    
C15   H34   S    
C20   N6    A    
C22   C36   S    
C6    H12   S    
N5    Zn2   S    
C11   C13   A    
C38   C39   S    
C33   H14   S    
C49   H3    S    
H4    O10   S    
C33   C35   S    
C22   C24   A    
C42   C47   S    
O3    Zn2   S    
C42   H37   S    
C10   C11   A    
C21   N5    A    
C15   C21   A    
C20   C21   A    
C36   C37   S    
C49   C50   A    
C27   C28   A    
C50   O2    S    
C43   H32   S    
C39   H21   S    
C35   H13   S    
C17   H44   S    
O6    Zn1   S    
C32   H6    S    
O8    Zn1   S    
C19   H46   S    
C16   O7    A    
C1    O1    A    
C5    C31   S    
