data_mof_unit_3520.cif
_audit_creation_date              2012-12-10T20:25:45-0500
_audit_creation_method            fapswitch 2.2
_symmetry_space_group_name_H-M    P1
_symmetry_Int_Tables_number       1
_space_group_crystal_system       triclinic
_cell_length_a                    8.583758
_cell_length_b                    10.715134
_cell_length_c                    9.903792
_cell_angle_alpha                 88.973092
_cell_angle_beta                  98.684691
_cell_angle_gamma                 90.898574
_cell_volume                      900.245834202

loop_
_atom_site_label
_atom_site_type_symbol
_atom_type_description
_atom_site_fract_x
_atom_site_fract_y
_atom_site_fract_z
_atom_type_partial_charge
C1    C     C_R   0.505608 0.259935 0.501462 0.860190
C2    C     C_R   0.371881 0.456982 0.913422 0.172841
C3    C     C_3   0.298303 0.330499 0.901294 -0.497709
C4    C     C_R   0.201344 0.498943 0.464260 0.984278
C5    C     C_3   0.299449 0.329473 0.054980 -0.470990
C6    C     C_R   0.504711 0.739799 0.499516 0.937810
C7    C     C_R   0.798723 0.499873 0.535879 0.974595
C8    C     C_2   0.036123 0.495588 0.445518 -0.382061
C9    C     C_2   0.964077 0.500688 0.555174 -0.320963
C10   C     C_R   0.543507 0.060656 0.626751 0.062366
C11   C     C_R   0.531683 0.128519 0.504544 -0.061291
C12   C     C_R   0.549060 0.937861 0.382108 -0.201646
C13   C     C_R   0.550311 0.067120 0.383641 -0.201495
C14   C     C_R   0.528382 0.871233 0.501259 -0.065513
C15   C     C_R   0.538284 0.933421 0.624309 0.097118
C16   C     C_3   0.441792 0.922733 0.737880 0.241962
C17   C     C_3   0.449123 0.063998 0.741457 -0.537775
C18   C     C_R   0.372559 0.456072 0.055300 0.185579
C19   C     C_R   0.612042 0.564722 0.086340 0.056325
C20   C     C_R   0.612098 0.564852 0.941733 0.345112
Cl1   Cl    Cl    0.755046 0.655038 0.873022 -0.622019
Cl2   Cl    Cl    0.245440 0.864571 0.686019 -0.585193
H1    H     H_    0.974303 0.488178 0.341840 0.176875
H2    H     H_    0.333199 0.109392 0.710935 0.237866
H3    H     H_    0.521532 0.098215 0.836455 0.176022
H4    H     H_    0.839250 0.607094 0.157573 0.204955
H5    H     H_    0.715352 0.729475 0.144931 0.199675
H6    H     H_    0.177965 0.331305 0.841213 0.213792
H7    H     H_    0.379680 0.262871 0.869326 0.210915
H8    H     H_    0.179441 0.331153 0.084130 0.211874
H9    H     H_    0.379723 0.258884 0.110430 0.208298
H10   H     H_    0.026036 0.506800 0.659177 0.202189
H11   H     H_    0.554850 0.117686 0.288616 0.165283
H12   H     H_    0.553199 0.891307 0.286541 0.171569
H13   H     H_    0.505699 0.876863 0.831200 0.149764
N1    N     N_R   0.498950 0.499140 0.142680 -0.127708
N2    N     N_R   0.498950 0.499180 0.857030 -0.143988
N3    N     N_3   0.727615 0.635352 0.173562 -0.376421
O1    O     O_R   0.500020 0.316790 0.614690 -0.625610
O2    O     O_R   0.500000 0.316760 0.385350 -0.634657
O3    O     O_R   0.271760 0.500010 0.587850 -0.600245
O4    O     O_R   0.271740 0.499970 0.358500 -0.621602
O5    O     O_R   0.500000 0.683240 0.614650 -0.559790
O6    O     O_R   0.499980 0.683210 0.385310 -0.622940
O7    O     O_R   0.728260 0.500030 0.641500 -0.569447
O8    O     O_R   0.728240 0.499990 0.412150 -0.607493
Zn1   Zn    Zn3+2 0.500010 0.500020 0.653130 1.021388
Zn2   Zn    Zn3+2 0.499990 0.499980 0.346870 0.967915

loop_
_geom_bond_atom_site_label_1
_geom_bond_atom_site_label_2
_ccdc_geom_bond_type
C8    C9    D    
C18   N1    A    
C13   H11   S    
C19   N3    S    
C10   C15   A    
C2    C18   A    
C19   C20   A    
N2    Zn1   S    
C4    C8    S    
C17   H3    S    
C2    C3    S    
O3    Zn1   S    
O4    Zn2   S    
C12   C13   A    
C20   N2    A    
C11   C13   A    
C2    N2    A    
C3    H7    S    
C4    O4    A    
C7    O7    A    
C3    H6    S    
C12   C14   A    
N1    Zn2   S    
C6    O5    A    
O7    Zn1   S    
C16   H13   S    
O8    Zn2   S    
C9    H10   S    
C17   H2    S    
C6    C14   S    
C10   C11   A    
C1    O1    A    
H5    N3    S    
C12   H12   S    
C15   C16   S    
C7    O8    A    
C8    H1    S    
C20   Cl1   S    
C6    O6    A    
O1    Zn1   S    
C5    H8    S    
C4    O3    A    
C7    C9    S    
O2    Zn2   S    
C14   C15   A    
H4    N3    S    
C16   Cl2   S    
C5    C18   S    
C10   C17   S    
C1    O2    A    
C3    C5    S    
C19   N1    A    
O5    Zn1   S    
O6    Zn2   S    
C16   C17   S    
C5    H9    S    
C1    C11   S    
