data_mof_unit_4055.cif
_audit_creation_date              2012-12-10T17:59:19-0500
_audit_creation_method            fapswitch 2.2
_symmetry_space_group_name_H-M    P1
_symmetry_Int_Tables_number       1
_space_group_crystal_system       triclinic
_cell_length_a                    10.826965
_cell_length_b                    9.51137
_cell_length_c                    10.77511
_cell_angle_alpha                 90.006195
_cell_angle_beta                  91.173785
_cell_angle_gamma                 89.939464
_cell_volume                      1109.37949929

loop_
_atom_site_label
_atom_site_type_symbol
_atom_type_description
_atom_site_fract_x
_atom_site_fract_y
_atom_site_fract_z
_atom_type_partial_charge
C1    C     C_R   0.262158 0.499987 0.502853 0.882970
C2    C     C_3   0.621251 0.541833 0.935227 -0.396115
C3    C     C_R   0.064122 0.372230 0.505875 -0.184323
C4    C     C_R   0.063805 0.627729 0.501887 -0.119418
C5    C     C_R   0.936362 0.372181 0.504632 -0.172894
C6    C     C_R   0.936060 0.627698 0.500704 -0.181551
C7    C     C_R   0.871832 0.499917 0.501790 -0.025034
C8    C     C_R   0.128320 0.499990 0.503996 0.000283
C9    C     C_R   0.413493 0.074474 0.432683 0.009560
C10   C     C_R   0.413815 0.925691 0.432151 -0.003189
C11   C     C_R   0.585921 0.925465 0.568422 -0.023013
C12   C     C_R   0.586028 0.074360 0.568280 -0.024691
C13   C     C_R   0.489059 0.499939 0.259991 0.907796
C14   C     C_R   0.737954 0.499951 0.500449 0.780441
C15   C     C_R   0.499967 0.499817 0.740169 0.790376
C16   C     C_3   0.400446 0.620400 0.062982 0.327466
C17   C     C_3   0.448502 0.349865 0.067325 0.307486
C18   C     C_3   0.394089 0.603189 0.920672 -0.409347
C19   C     C_3   0.462243 0.349739 0.925046 -0.401149
C20   C     C_3   0.617327 0.530069 0.078225 -0.555282
C21   C     C_3   0.482922 0.499263 0.121561 -0.107451
C22   C     C_3   0.494844 0.499008 0.877601 0.003317
Cu1   Cu    Cu3+1 0.500020 0.640660 0.500000 0.975793
Cu2   Cu    Cu3+1 0.500020 0.359340 0.500000 0.975638
H1    H     H_    0.450785 0.720497 0.082071 0.114282
H2    H     H_    0.519073 0.274672 0.104420 0.103190
H3    H     H_    0.654537 0.869262 0.623412 0.120502
H4    H     H_    0.654739 0.130423 0.623140 0.120745
H5    H     H_    0.302277 0.563401 0.888771 0.225354
H6    H     H_    0.377620 0.311663 0.875939 0.222945
H7    H     H_    0.406228 0.708504 0.877578 0.173992
H8    H     H_    0.536960 0.274753 0.900272 0.154340
H9    H     H_    0.653003 0.629569 0.119941 0.200896
H10   H     H_    0.681238 0.445048 0.110182 0.193732
H11   H     H_    0.643591 0.651796 0.908447 0.188807
H12   H     H_    0.695710 0.472832 0.899656 0.182983
H13   H     H_    0.112336 0.272371 0.507694 0.152438
H14   H     H_    0.111756 0.727604 0.500458 0.157768
H15   H     H_    0.888419 0.272298 0.505815 0.152379
H16   H     H_    0.887889 0.727579 0.498698 0.151775
H17   H     H_    0.343631 0.130530 0.379636 0.183810
H18   H     H_    0.344794 0.869864 0.377629 0.183085
N1    N     N_R   0.500030 0.852070 0.500030 -0.172754
N2    N     N_R   0.500030 0.147930 0.500030 -0.172395
O1    O     O_R   0.319660 0.618740 0.499990 -0.574079
O2    O     O_R   0.319660 0.381260 0.499990 -0.583653
O3    O     O_R   0.499990 0.618790 0.317690 -0.573317
O4    O     O_R   0.499990 0.381210 0.317690 -0.563170
O5    O     O_R   0.680370 0.618830 0.500010 -0.594782
O6    O     O_R   0.680370 0.381170 0.500010 -0.595653
O7    O     O_R   0.500030 0.618780 0.682310 -0.592240
O8    O     O_R   0.500030 0.381220 0.682310 -0.592629
S1    S     S_3+6 0.248317 0.655930 0.121481 0.018316
O9    O     O_2   0.245526 0.638976 0.259355 -0.308866
O10   O     O_2   0.216981 0.806034 0.090544 -0.264458
O11   O     O_3   0.139682 0.552882 0.055363 -0.473349
H19   H     H_    0.062502 0.576203 0.098762 0.371771
S2    S     S_3+6 0.302345 0.273566 0.111409 0.021956
O12   O     O_2   0.205997 0.290072 0.010030 -0.248907
O13   O     O_2   0.322864 0.119105 0.132896 -0.300589
O14   O     O_3   0.248943 0.344928 0.242209 -0.506797
H20   H     H_    0.169224 0.297051 0.256247 0.364906

loop_
_geom_bond_atom_site_label_1
_geom_bond_atom_site_label_2
_ccdc_geom_bond_type
C2    H11   S    
C2    C22   S    
C13   O4    A    
C11   C12   A    
Cu2   O8    S    
C16   C21   S    
Cu1   O1    S    
C15   O7    A    
C10   H18   S    
C1    C8    S    
C9    C10   A    
C9    H17   S    
C4    C8    A    
C17   S2    S    
Cu1   Cu2   S    
C20   H10   S    
S2    O14   S    
S1    O10   D    
S2    O12   D    
C13   C21   S    
C12   N2    A    
C18   H5    S    
C14   O6    A    
C15   O8    A    
O11   H19   S    
C11   N1    A    
C1    O1    A    
C6    C7    A    
C12   H4    S    
C17   H2    S    
C4    C6    A    
C17   C19   S    
C4    H14   S    
C11   H3    S    
S2    O13   D    
C5    C7    A    
C5    H15   S    
Cu2   O6    S    
O14   H20   S    
Cu2   N2    S    
C6    H16   S    
C1    O2    A    
Cu1   O5    S    
C14   O5    A    
Cu1   O3    S    
C20   H9    S    
C2    C20   S    
Cu2   O4    S    
C19   C22   S    
Cu1   N1    S    
C20   C21   S    
C3    H13   S    
C16   C18   S    
C3    C8    A    
S1    O11   S    
C2    H12   S    
C16   H1    S    
C13   O3    A    
C16   S1    S    
C9    N2    A    
C18   H7    S    
C10   N1    A    
C18   C22   S    
C19   H6    S    
Cu1   O7    S    
C19   H8    S    
C15   C22   S    
C7    C14   S    
S1    O9    D    
Cu2   O2    S    
C3    C5    A    
C17   C21   S    
