data_mof_unit_854.cif
_audit_creation_date              2012-12-10T16:57:14-0500
_audit_creation_method            fapswitch 2.2
_symmetry_space_group_name_H-M    P1
_symmetry_Int_Tables_number       1
_space_group_crystal_system       triclinic
_cell_length_a                    15.886229
_cell_length_b                    10.985823
_cell_length_c                    9.756877
_cell_angle_alpha                 90.280319
_cell_angle_beta                  90.685691
_cell_angle_gamma                 90.507423
_cell_volume                      1702.59238611

loop_
_atom_site_label
_atom_site_type_symbol
_atom_type_description
_atom_site_fract_x
_atom_site_fract_y
_atom_site_fract_z
_atom_type_partial_charge
C1    C     C_R   0.505386 0.265560 0.499793 0.822824
C2    C     C_3   0.953771 0.425403 0.620195 0.295087
C3    C     C_3   0.917003 0.503815 0.500792 -0.029641
C4    C     C_3   0.950405 0.636726 0.513765 -0.527442
C5    C     C_3   0.048205 0.644601 0.493044 0.620402
C6    C     C_1   0.824663 0.503064 0.502288 0.106189
C7    C     C_1   0.175603 0.505994 0.496114 0.048131
C8    C     C_1   0.251036 0.502854 0.497688 -0.208402
C9    C     C_2   0.526205 0.928909 0.407149 -0.276366
C10   C     C_2   0.483041 0.864120 0.498858 0.347373
C11   C     C_2   0.513995 0.059835 0.393760 0.237549
C12   C     C_R   0.340476 0.500283 0.499352 0.811385
C13   C     C_2   0.527086 0.135752 0.502965 0.060479
C14   C     C_2   0.462295 0.416196 0.920373 0.074980
C15   C     C_2   0.476827 0.406952 0.074514 0.052155
C16   C     C_R   0.495761 0.733479 0.500178 0.707649
C17   C     C_R   0.659580 0.500518 0.500663 0.797253
C18   C     C_3   0.052427 0.441891 0.629046 0.125780
C19   C     C_3   0.045818 0.434465 0.369149 -0.033348
C20   C     C_3   0.948345 0.451169 0.361310 0.244556
C21   C     C_1   0.749167 0.501906 0.502166 -0.168848
C22   C     C_3   0.083171 0.508766 0.495498 0.048735
Cu1   Cu    Cu3+1 0.500020 0.500020 0.638630 0.971706
Cu2   Cu    Cu3+1 0.499980 0.499980 0.361370 0.931719
H1    H     H_    0.943291 0.329283 0.587172 0.190339
H2    H     H_    0.073451 0.499566 0.716466 0.113691
H3    H     H_    0.917968 0.694026 0.435737 0.201568
H4    H     H_    0.565869 0.884144 0.332397 0.122538
H5    H     H_    0.419287 0.352030 0.871003 0.077160
H6    H     H_    0.466799 0.319244 0.120254 0.097594
H7    H     H_    0.058365 0.336451 0.388858 0.229646
H8    H     H_    0.933383 0.520662 0.281130 0.133187
H9    H     H_    0.930619 0.676578 0.612651 0.182576
N1    N     N_2   0.499090 0.498660 0.846910 0.005489
N2    N     N_2   0.499070 0.498630 0.153040 -0.108372
O1    O     O_R   0.500010 0.321960 0.617040 -0.573831
O2    O     O_R   0.499990 0.321920 0.382900 -0.592684
O3    O     O_R   0.379450 0.500030 0.617120 -0.586010
O4    O     O_R   0.379420 0.499980 0.382980 -0.589879
O5    O     O_R   0.500010 0.678080 0.617100 -0.597371
O6    O     O_R   0.499990 0.678040 0.382960 -0.615143
O7    O     O_R   0.620580 0.500020 0.617020 -0.546242
O8    O     O_R   0.620550 0.499970 0.382880 -0.560560
O9    O     O_3   0.905640 0.433669 0.743011 -0.568955
C23   C     C_3   0.939365 0.508803 0.847959 -0.335442
H10   H     H_    0.958167 0.599663 0.811423 0.147393
H11   H     H_    0.992131 0.463444 0.902087 0.147756
H12   H     H_    0.889667 0.523386 0.925054 0.193227
O10   O     O_3   0.429194 0.921697 0.589954 -0.570034
C24   C     C_3   0.351685 0.858323 0.598078 -0.327467
H13   H     H_    0.357632 0.776969 0.664489 0.176745
H14   H     H_    0.326350 0.832204 0.494948 0.131692
H15   H     H_    0.304998 0.919199 0.646040 0.187424
C25   C     C_3   0.483742 0.100653 0.254700 -0.882079
H16   H     H_    0.472023 0.021895 0.184854 0.221797
H17   H     H_    0.423404 0.150163 0.263470 0.236744
H18   H     H_    0.533391 0.157643 0.207462 0.236585
C26   C     C_3   0.570794 0.093772 0.634024 -0.794674
H19   H     H_    0.622649 0.158377 0.661028 0.218167
H20   H     H_    0.525256 0.092492 0.719468 0.258436
H21   H     H_    0.600240 0.003016 0.625457 0.222001
O11   O     O_3   0.573254 0.536327 0.903502 -0.475336
C27   C     C_3   0.587630 0.659268 0.869726 -0.076821
H22   H     H_    0.528787 0.713216 0.862995 0.133247
H23   H     H_    0.624833 0.667532 0.775163 0.173266
H24   H     H_    0.626811 0.701177 0.952457 0.102051
O12   O     O_3   0.091524 0.325929 0.637144 -0.578576
C28   C     C_3   0.093377 0.282872 0.773120 -0.304546
H25   H     H_    0.028735 0.266334 0.811415 0.185878
H26   H     H_    0.128994 0.346003 0.842420 0.150138
H27   H     H_    0.126460 0.194397 0.774572 0.186571
C29   C     C_3   0.463947 0.616903 0.115181 -0.395838
H28   H     H_    0.413554 0.641022 0.187465 0.191327
H29   H     H_    0.513802 0.688013 0.121341 0.176869
H30   H     H_    0.430835 0.621482 0.015088 0.128273
C30   C     C_3   0.086750 0.458385 0.228700 -0.875151
H31   H     H_    0.065731 0.386872 0.154750 0.218564
H32   H     H_    0.068614 0.546965 0.184209 0.270082
H33   H     H_    0.156369 0.453664 0.235567 0.243383
O13   O     O_3   0.909261 0.336278 0.334285 -0.585238
C31   C     C_3   0.867587 0.335643 0.205804 -0.295822
H34   H     H_    0.912506 0.353092 0.121487 0.160098
H35   H     H_    0.815973 0.403427 0.203661 0.167508
H36   H     H_    0.838976 0.244335 0.188394 0.197920
C32   C     C_3   0.086206 0.727332 0.609729 -0.929739
H37   H     H_    0.067475 0.697700 0.713072 0.191144
H38   H     H_    0.156038 0.729081 0.608603 0.215815
H39   H     H_    0.063297 0.821974 0.597719 0.249367
O14   O     O_3   0.058568 0.697539 0.360192 -0.571044
C33   C     C_3   0.135346 0.760478 0.338441 -0.303906
H40   H     H_    0.191200 0.709268 0.372827 0.154250
H41   H     H_    0.134385 0.851896 0.387339 0.180472
H42   H     H_    0.142109 0.774989 0.226697 0.172874

loop_
_geom_bond_atom_site_label_1
_geom_bond_atom_site_label_2
_ccdc_geom_bond_type
C27   H23   S    
C2    C18   S    
C19   C20   S    
C18   H2    S    
C30   H33   S    
C3    C6    S    
C19   H7    S    
C4    H3    S    
C31   H34   S    
C7    C8    T    
C23   H10   S    
Cu1   O7    S    
C15   H6    S    
C19   C30   S    
C30   H32   S    
C32   H39   S    
C26   H20   S    
Cu1   O5    S    
N1    O11   S    
Cu2   O4    S    
C17   O7    A    
C4    H9    S    
C5    C22   S    
C2    O9    S    
C28   H25   S    
C24   H14   S    
Cu1   Cu2   S    
C9    C10   D    
C1    O2    A    
C5    C32   S    
C26   H21   S    
C23   H11   S    
C27   H24   S    
Cu2   O6    S    
C29   H30   S    
C15   N2    D    
C31   H35   S    
Cu2   O2    S    
C32   H38   S    
C25   H17   S    
Cu2   N2    S    
C20   O13   S    
O12   C28   S    
C24   H15   S    
C19   C22   S    
C30   H31   S    
C29   H29   S    
C29   H28   S    
C13   C26   S    
C26   H19   S    
C32   H37   S    
C6    C21   T    
C17   C21   S    
C17   O8    A    
O11   C27   S    
C33   H41   S    
C8    C12   S    
Cu1   N1    S    
C24   H13   S    
C3    C20   S    
C9    C11   S    
C11   C25   S    
C16   O5    A    
N2    C29   S    
Cu1   O1    S    
C1    C13   S    
C14   H5    S    
C3    C4    S    
C7    C22   S    
C31   H36   S    
O9    C23   S    
C33   H42   S    
C20   H8    S    
C23   H12   S    
C25   H16   S    
C18   C22   S    
O13   C31   S    
C14   N1    D    
Cu1   O3    S    
C12   O4    A    
C2    C3    S    
C18   O12   S    
C10   C16   S    
C11   C13   D    
C33   H40   S    
C28   H27   S    
C2    H1    S    
C12   O3    A    
C27   H22   S    
C4    C5    S    
C1    O1    A    
C28   H26   S    
O10   C24   S    
Cu2   O8    S    
C14   C15   S    
O14   C33   S    
C10   O10   S    
C16   O6    A    
C5    O14   S    
C9    H4    S    
C25   H18   S    
