data_mof_unit_3080.cif
_audit_creation_date              2012-12-10T16:50:11-0500
_audit_creation_method            fapswitch 2.2
_symmetry_space_group_name_H-M    P1
_symmetry_Int_Tables_number       1
_space_group_crystal_system       triclinic
_cell_length_a                    23.472026
_cell_length_b                    8.761412
_cell_length_c                    7.424817
_cell_angle_alpha                 102.850728
_cell_angle_beta                  94.096258
_cell_angle_gamma                 92.467145
_cell_volume                      1482.12285703

loop_
_atom_site_label
_atom_site_type_symbol
_atom_type_description
_atom_site_fract_x
_atom_site_fract_y
_atom_site_fract_z
_atom_type_partial_charge
C1    C     C_R   0.498853 0.200396 0.453866 0.860660
C2    C     C_R   0.501147 0.799605 0.546134 0.860653
C3    C     C_R   0.233834 0.479112 0.345771 -0.102936
C4    C     C_R   0.766175 0.522016 0.654322 -0.102875
C5    C     C_R   0.293042 0.479761 0.341987 -0.205415
C6    C     C_R   0.706966 0.521367 0.658098 -0.205562
C7    C     C_R   0.328365 0.499347 0.507693 -0.036453
C8    C     C_R   0.671633 0.500643 0.492309 -0.036474
C9    C     C_R   0.303301 0.518245 0.677187 -0.215580
C10   C     C_R   0.696681 0.480538 0.322722 -0.215790
C11   C     C_R   0.243939 0.517947 0.680508 -0.098571
C12   C     C_R   0.756041 0.480766 0.319400 -0.098593
C13   C     C_R   0.209210 0.498315 0.514761 0.364797
C14   C     C_R   0.790788 0.501606 0.485247 0.364533
C15   C     C_2   0.503502 0.034630 0.428652 -0.039358
C16   C     C_2   0.496499 0.965372 0.571347 -0.039404
C17   C     C_R   0.390919 0.499690 0.502566 0.793750
C18   C     C_R   0.609080 0.500311 0.497434 0.793750
C19   C     C_R   0.883314 0.641151 0.523510 0.534702
C20   C     C_R   0.116693 0.358756 0.476559 0.534758
C21   C     C_R   0.876788 0.360725 0.447052 0.537420
C22   C     C_R   0.123215 0.639184 0.552960 0.537427
C23   C     C_R   0.936542 0.357224 0.452998 -0.013834
C24   C     C_R   0.063462 0.642680 0.547042 -0.013858
C25   C     C_R   0.969903 0.500200 0.495902 -0.017569
C26   C     C_R   0.030102 0.499701 0.504158 -0.017565
C27   C     C_R   0.943203 0.643674 0.530852 -0.013257
C28   C     C_R   0.056802 0.356226 0.469220 -0.013284
C29   C     C_R   0.963600 0.214863 0.418691 -0.162656
C30   C     C_R   0.036404 0.785040 0.581359 -0.162666
C31   C     C_R   0.023140 0.214365 0.426761 -0.172929
C32   C     C_R   0.976865 0.785535 0.573311 -0.172927
Cu1   Cu    Cu3+1 0.506340 0.517380 0.684380 0.960902
Cu2   Cu    Cu3+1 0.493660 0.482620 0.315620 0.960896
H1    H     H_    0.938895 0.103478 0.385590 0.193807
H2    H     H_    0.061109 0.896425 0.614451 0.193805
H3    H     H_    0.042651 0.102611 0.399287 0.186680
H4    H     H_    0.957354 0.897290 0.600793 0.186692
H5    H     H_    0.206984 0.464155 0.217451 0.135428
H6    H     H_    0.793032 0.537899 0.782722 0.135667
H7    H     H_    0.311058 0.464859 0.209291 0.157997
H8    H     H_    0.688960 0.537205 0.790856 0.158133
H9    H     H_    0.329456 0.533419 0.806889 0.157352
H10   H     H_    0.670514 0.464451 0.192958 0.157540
H11   H     H_    0.224897 0.532772 0.811475 0.134036
H12   H     H_    0.775068 0.465000 0.188359 0.134319
H13   H     H_    0.454845 0.380263 0.948694 0.237364
H14   H     H_    0.545154 0.619737 0.051306 0.237393
N1    N     N_R   0.851637 0.501166 0.482859 -0.475910
N2    N     N_R   0.148365 0.498745 0.517175 -0.475953
N3    N     N_2   0.484110 0.456420 0.038520 -0.212721
N4    N     N_2   0.515890 0.543580 0.961480 -0.212710
O1    O     O_R   0.504120 0.286130 0.619770 -0.552719
O2    O     O_R   0.495880 0.713870 0.380230 -0.552728
O3    O     O_R   0.493410 0.256770 0.308360 -0.598262
O4    O     O_R   0.506590 0.743230 0.691640 -0.598262
O5    O     O_R   0.423230 0.514630 0.655730 -0.592098
O6    O     O_R   0.576770 0.485370 0.344270 -0.592104
O7    O     O_R   0.412530 0.485280 0.344320 -0.586224
O8    O     O_R   0.587470 0.514720 0.655680 -0.586227
O9    O     O_2   0.856864 0.777160 0.557150 -0.514148
O10   O     O_2   0.143149 0.222755 0.442916 -0.514068
O11   O     O_2   0.844035 0.225199 0.407588 -0.511677
O12   O     O_2   0.155970 0.774709 0.592406 -0.511601
N5    N     N_3   0.518634 0.948717 0.251210 -0.580715
H15   H     H_    0.556868 0.999907 0.221303 0.214493
H16   H     H_    0.486530 0.958670 0.150064 0.233486
N6    N     N_3   0.481340 0.051272 0.748752 -0.580759
H17   H     H_    0.443084 0.000121 0.778506 0.214512
H18   H     H_    0.513405 0.041243 0.849963 0.233490

loop_
_geom_bond_atom_site_label_1
_geom_bond_atom_site_label_2
_ccdc_geom_bond_type
H13   N3    S    
C5    H7    S    
C20   O10   S    
C4    H6    S    
C16   N6    S    
C32   H4    S    
C30   C32   A    
C2    C16   S    
C29   H1    S    
C26   C28   A    
C3    C13   A    
C10   H10   S    
C30   H2    S    
C22   N2    A    
Cu1   O4    S    
C21   N1    A    
Cu1   Cu2   S    
C1    O3    A    
C3    H5    S    
Cu2   O3    S    
C29   C31   A    
C2    O4    A    
Cu1   N4    S    
C4    C14   A    
C11   C13   A    
C24   C26   A    
Cu2   N3    S    
C10   C12   A    
C17   O7    A    
C20   N2    A    
C1    C15   S    
C6    C8    A    
C4    C6    A    
C19   C27   A    
C25   C26   A    
C19   O9    S    
Cu2   O2    S    
Cu1   O8    S    
C7    C9    A    
C9    C11   A    
C21   C23   A    
Cu1   O1    S    
Cu2   O7    S    
Cu2   O6    S    
C22   C24   A    
C19   N1    A    
C9    H9    S    
C24   C30   A    
C11   H11   S    
C15   C16   D    
C22   O12   S    
C13   N2    S    
C15   N5    S    
C23   C29   A    
H14   N4    S    
C23   C25   A    
N3    N4    D    
C14   N1    S    
C8    C10   A    
N5    H15   S    
C2    O2    A    
C18   O8    A    
C5    C7    A    
N6    H18   S    
C1    O1    A    
C12   H12   S    
Cu1   O5    S    
N5    H16   S    
C20   C28   A    
C7    C17   S    
C27   C32   A    
C17   O5    A    
C6    H8    S    
C18   O6    A    
C28   C31   A    
C8    C18   S    
C31   H3    S    
C21   O11   S    
C12   C14   A    
N6    H17   S    
C3    C5    A    
C25   C27   A    
