data_mof_unit_2691.cif
_audit_creation_date              2012-10-26T19:42:44-0400
_audit_creation_method            fapswitch 2.2
_symmetry_space_group_name_H-M    P1
_symmetry_Int_Tables_number       1
_space_group_crystal_system       triclinic
_cell_length_a                    19.367651
_cell_length_b                    10.86412
_cell_length_c                    9.568682
_cell_angle_alpha                 90.127267
_cell_angle_beta                  89.998762
_cell_angle_gamma                 92.563641
_cell_volume                      2011.35011496

loop_
_atom_site_label
_atom_site_type_symbol
_atom_type_description
_atom_site_fract_x
_atom_site_fract_y
_atom_site_fract_z
_atom_type_partial_charge
C1    C     C_R   0.505117 0.262870 0.500741 0.551151
C2    C     C_R   0.853670 0.507162 0.499373 0.034519
C3    C     C_R   0.537477 0.119320 0.759879 -0.095564
C4    C     C_R   0.367476 0.500013 0.500044 0.602497
C5    C     C_R   0.526276 0.059976 0.887334 -0.131630
C6    C     C_R   0.491842 0.945238 0.890550 -0.123272
C7    C     C_R   0.475021 0.884667 0.765784 -0.093902
C8    C     C_R   0.493274 0.938096 0.634847 0.024593
C9    C     C_R   0.514266 0.063861 0.632893 0.026151
C10   C     C_R   0.510439 0.128803 0.504393 -0.007031
C11   C     C_R   0.502359 0.063388 0.378838 -0.159417
C12   C     C_R   0.291278 0.501483 0.500047 0.090468
C13   C     C_R   0.496356 0.936198 0.379464 -0.162571
C14   C     C_R   0.491988 0.871856 0.506029 -0.005341
C15   C     C_R   0.591347 0.665083 0.144681 -0.098198
C16   C     C_R   0.495636 0.737421 0.501193 0.535953
C17   C     C_R   0.635554 0.746341 0.072442 -0.177601
C18   C     C_R   0.635611 0.746194 0.928496 -0.168476
C19   C     C_R   0.591407 0.664883 0.855975 -0.093249
C20   C     C_R   0.544854 0.581242 0.925276 0.147767
C21   C     C_R   0.544832 0.581261 0.075053 0.151730
C22   C     C_R   0.457498 0.422446 0.073787 -0.007448
C23   C     C_R   0.929731 0.507710 0.499185 0.344458
C24   C     C_R   0.457499 0.422505 0.925690 -0.007288
C25   C     C_R   0.632488 0.500928 0.499963 0.530021
C26   C     C_R   0.256214 0.559562 0.609871 0.055006
C27   C     C_R   0.184005 0.560257 0.608991 -0.122547
C28   C     C_R   0.145773 0.505130 0.499476 -0.005891
C29   C     C_R   0.180557 0.448252 0.390232 -0.121005
C30   C     C_R   0.252675 0.445366 0.389902 0.059291
C31   C     C_R   0.069739 0.506595 0.499264 0.347819
C32   C     C_R   0.817341 0.520690 0.625121 -0.118845
C33   C     C_R   0.745347 0.518302 0.625419 -0.138771
C34   C     C_R   0.708422 0.503162 0.499846 0.011578
C35   C     C_R   0.744701 0.490752 0.373968 -0.136152
C36   C     C_R   0.816656 0.492251 0.373804 -0.119400
Cu1   Cu    Cu3+1 0.500000 0.499990 0.640660 0.923618
Cu2   Cu    Cu3+1 0.500000 0.500010 0.359340 0.935255
H1    H     H_    0.566061 0.206949 0.762597 0.148378
H2    H     H_    0.596152 0.672178 0.745904 0.186459
H3    H     H_    0.158060 0.605652 0.693742 0.141631
H4    H     H_    0.422743 0.358978 0.870006 0.126489
H5    H     H_    0.151869 0.404177 0.305248 0.141831
H6    H     H_    0.844433 0.532118 0.723609 0.138213
H7    H     H_    0.718705 0.528641 0.723990 0.129663
H8    H     H_    0.717556 0.479277 0.275500 0.133602
H9    H     H_    0.843212 0.482182 0.275129 0.138213
H10   H     H_    0.500948 0.110449 0.279234 0.133958
H11   H     H_    0.277514 0.581172 0.815446 0.231141
H12   H     H_    0.542686 0.104562 0.983824 0.109692
H13   H     H_    0.280689 0.713299 0.722026 0.225980
H14   H     H_    0.267103 0.290990 0.277282 0.226849
H15   H     H_    0.273004 0.423332 0.184452 0.228990
H16   H     H_    0.479540 0.901724 0.989714 0.116071
H17   H     H_    0.445837 0.798081 0.774577 0.163005
H18   H     H_    0.494298 0.888310 0.280000 0.136775
H19   H     H_    0.422759 0.358847 0.129069 0.136444
H20   H     H_    0.596298 0.672214 0.254772 0.185773
H21   H     H_    0.670274 0.809564 0.128907 0.126297
H22   H     H_    0.670287 0.809421 0.872246 0.128820
N1    N     N_R   0.033148 0.473410 0.383172 -0.228040
N2    N     N_R   0.964513 0.474130 0.383069 -0.229031
N3    N     N_R   0.966308 0.540906 0.615310 -0.229175
N4    N     N_R   0.034972 0.540560 0.615274 -0.227819
N5    N     N_R   0.500660 0.501210 0.147910 -0.244768
N6    N     N_R   0.500680 0.501290 0.852040 -0.248155
N7    N     N_3   0.293739 0.620943 0.720903 -0.615163
N8    N     N_3   0.286310 0.382474 0.278970 -0.624317
O1    O     O_R   0.499990 0.319640 0.618810 -0.514222
O2    O     O_R   0.500000 0.319660 0.381240 -0.501669
O3    O     O_R   0.400140 0.499970 0.618820 -0.471599
O4    O     O_R   0.400150 0.500000 0.381250 -0.467683
O5    O     O_R   0.500000 0.680340 0.618760 -0.532187
O6    O     O_R   0.500010 0.680360 0.381190 -0.526544
O7    O     O_R   0.599850 0.500000 0.618750 -0.528152
O8    O     O_R   0.599860 0.500030 0.381180 -0.524024

loop_
_geom_bond_atom_site_label_1
_geom_bond_atom_site_label_2
_ccdc_geom_bond_type
Cu2   O2    S    
Cu1   O1    S    
C33   H7    S    
C31   N1    A    
C19   C20   A    
C7    H17   S    
C22   H19   S    
C7    C8    A    
Cu2   O8    S    
C26   C27   A    
C29   C30   A    
C16   O6    A    
C26   N7    S    
C20   N6    A    
C28   C29   A    
C18   C19   A    
C5    C6    A    
C24   H4    S    
C36   H9    S    
C2    C32   A    
C34   C35   A    
H15   N8    S    
C23   N2    A    
C35   C36   A    
C8    C9    A    
C4    C12   S    
C9    C10   A    
H14   N8    S    
C24   N6    A    
C25   C34   S    
C13   H18   S    
C12   C30   A    
C23   N3    A    
Cu1   O7    S    
C3    H1    S    
C13   C14   A    
C29   H5    S    
C11   H10   S    
C6    H16   S    
C33   C34   A    
Cu2   O4    S    
C16   O5    A    
C19   H2    S    
C1    O1    A    
C12   C26   A    
C25   O7    A    
C22   N5    A    
Cu1   Cu2   S    
C3    C9    A    
C27   H3    S    
Cu2   N5    S    
Cu1   N6    S    
C2    C23   S    
C17   C18   A    
C32   H6    S    
H13   N7    S    
C17   H21   S    
C18   H22   S    
Cu1   O3    S    
C15   H20   S    
C14   C16   S    
C5    H12   S    
C4    O4    A    
Cu2   O6    S    
C2    C36   A    
C15   C17   A    
Cu1   O5    S    
C8    C14   A    
H11   N7    S    
C21   N5    A    
C31   N4    A    
C28   C31   S    
C1    C10   S    
C3    C5    A    
C6    C7    A    
C1    O2    A    
C25   O8    A    
C32   C33   A    
C11   C13   A    
C22   C24   A    
N1    N2    A    
C10   C11   A    
N3    N4    A    
C15   C21   A    
C20   C21   A    
C27   C28   A    
C35   H8    S    
C4    O3    A    
C30   N8    S    
