data_mof_unit_3715.cif
_audit_creation_date              2013-03-05T16:31:07-0500
_audit_creation_method            fapswitch 2.2
_symmetry_space_group_name_H-M    P1
_symmetry_Int_Tables_number       1
_space_group_crystal_system       triclinic
_cell_length_a                    10.839244
_cell_length_b                    10.9182
_cell_length_c                    9.535683
_cell_angle_alpha                 92.421476
_cell_angle_beta                  91.364488
_cell_angle_gamma                 92.377126
_cell_volume                      1126.1533212

loop_
_atom_site_label
_atom_site_type_symbol
_atom_site_description
_atom_site_fract_x
_atom_site_fract_y
_atom_site_fract_z
_atom_type_partial_charge
O1    O     O_R   0.500000 0.319640 0.618810 -0.600009
O2    O     O_R   0.500010 0.319680 0.381230 -0.597989
C1    C     C_R   0.490194 0.262696 0.496565 0.801845
O3    O     O_R   0.319640 0.499980 0.618820 -0.592994
O4    O     O_R   0.319650 0.500020 0.381230 -0.568587
C2    C     C_R   0.262756 0.508869 0.499527 0.828670
Cu1   Cu    Cu3+1 0.499990 0.499980 0.640670 1.009807
Cu2   Cu    Cu3+1 0.500010 0.500020 0.359330 1.004085
O5    O     O_R   0.499990 0.680320 0.618770 -0.537384
O6    O     O_R   0.500000 0.680360 0.381190 -0.558016
O7    O     O_R   0.680350 0.499980 0.618770 -0.563637
O8    O     O_R   0.680360 0.500020 0.381180 -0.593738
C3    C     C_R   0.497942 0.738038 0.502211 0.925373
C4    C     C_R   0.737576 0.490211 0.501684 0.843375
H1    H     H_    0.107068 0.456760 0.281387 0.184758
C5    C     C_R   0.120255 0.609276 0.746162 0.259771
C6    C     C_R   0.065592 0.596808 0.878202 0.304667
C7    C     C_R   0.962022 0.516856 0.888298 -0.244740
H2    H     H_    0.922067 0.500864 0.989287 0.176209
C8    C     C_R   0.898319 0.471807 0.766935 -0.164541
H3    H     H_    0.814461 0.416726 0.779204 0.172637
C9    C     C_R   0.943269 0.498112 0.633533 0.088306
C10   C     C_R   0.065960 0.543657 0.626057 -0.058996
C11   C     C_R   0.128687 0.518138 0.499766 -0.033397
C12   C     C_R   0.061181 0.479468 0.377916 -0.115354
H4    H     H_    0.883147 0.449376 0.280875 0.163678
C13   C     C_R   0.933602 0.469267 0.379205 -0.190654
C14   C     C_R   0.872452 0.480358 0.506524 -0.083394
C15   C     C_R   0.546491 0.073837 0.596424 0.043030
C16   C     C_R   0.484880 0.129344 0.489724 -0.134301
C17   C     C_R   0.421457 0.055156 0.382919 -0.017490
C18   C     C_R   0.423018 0.925436 0.390944 0.305722
C19   C     C_R   0.488758 0.871709 0.502757 -0.240272
C20   C     C_R   0.556815 0.948660 0.600721 0.057542
C21   C     C_3   0.552848 0.960386 0.759669 0.148953
C22   C     C_3   0.530767 0.094913 0.749278 -0.449172
H5    H     H_    0.475782 0.906961 0.806279 0.160951
H6    H     H_    0.434866 0.118308 0.775696 0.180129
H7    H     H_    0.604375 0.158337 0.797720 0.226812
C23   C     C_R   0.598988 0.548787 0.079222 0.140950
N1    N     N_R   0.500790 0.500930 0.147930 -0.165171
C24   C     C_R   0.408043 0.441069 0.069081 -0.008806
H8    H     H_    0.332354 0.395753 0.120711 0.115707
C25   C     C_R   0.408274 0.440542 0.920228 -0.009411
H9    H     H_    0.332873 0.394131 0.860393 0.121684
N2    N     N_R   0.500790 0.500890 0.852020 -0.184178
C26   C     C_R   0.598964 0.550061 0.931209 0.115240
C27   C     C_3   0.640957 0.682581 0.939945 0.167906
C28   C     C_3   0.648097 0.677042 0.098743 -0.435078
H10   H     H_    0.567950 0.741565 0.901395 0.162732
H11   H     H_    0.742331 0.679872 0.147532 0.226530
H12   H     H_    0.583886 0.739174 0.151207 0.247202
N3    N     N_R   0.672961 0.948223 0.829855 0.159020
O9    O     O_R   0.774125 0.961771 0.759983 -0.265229
O10   O     O_R   0.679657 0.962276 0.966077 -0.338276
N4    N     N_R   0.760549 0.706936 0.876505 0.149936
O11   O     O_R   0.850704 0.761682 0.950580 -0.264031
O12   O     O_R   0.765959 0.706865 0.740574 -0.322216
N5    N     N_R   0.221126 0.697141 0.731753 0.148087
O13   O     O_R   0.218930 0.773149 0.630455 -0.336618
O14   O     O_R   0.312633 0.705263 0.822965 -0.338580
N6    N     N_R   0.107239 0.671871 0.999067 0.187453
O15   O     O_R   0.133300 0.788301 0.986715 -0.214455
O16   O     O_R   0.093061 0.631727 0.124164 -0.348158
C29   C     C_3   0.337517 0.111113 0.274326 -0.347789
C30   C     C_3   0.218210 0.153633 0.341133 -0.353903
C31   C     C_3   0.121801 0.183215 0.229638 -0.778114
H13   H     H_    0.037591 0.215256 0.281379 0.245459
H14   H     H_    0.158224 0.256231 0.162452 0.225501
H15   H     H_    0.095842 0.099976 0.162667 0.298641
H16   H     H_    0.178495 0.079968 0.405712 0.264605
H17   H     H_    0.238498 0.236461 0.410796 0.195447
H18   H     H_    0.385617 0.187385 0.222219 0.202551
H19   H     H_    0.312054 0.044742 0.186582 0.260236
N7    N     N_R   0.348664 0.848545 0.293158 0.135452
O17   O     O_R   0.253517 0.785632 0.336341 -0.261689
O18   O     O_R   0.378993 0.837061 0.162226 -0.340294

loop_
_geom_bond_atom_site_label_1
_geom_bond_atom_site_label_2
_geom_bond_distance
_ccdc_geom_bond_type
C23   C26   1.412056 A    
C21   N3    1.463199 S    
N1    C24   1.367881 A    
C21   C22   1.504924 S    
C18   N7    1.437267 S    
Cu1   Cu2   2.682793 S    
C17   C18   1.422370 A    
N3    O9    1.303029 A    
Cu1   O7    1.971027 S    
C15   C22   1.480965 S    
H4    C13   1.083500 S    
N6    O15   1.301571 A    
C21   H5    1.111189 S    
C7    H2    1.083149 S    
C16   C17   1.420111 A    
O7    C4    1.292709 A    
H1    C12   1.081144 S    
C23   C28   1.479967 S    
C29   H18   1.106109 S    
N4    O11   1.301593 A    
C17   C29   1.525802 S    
C20   C21   1.517453 S    
O5    C3    1.300826 A    
N6    O16   1.298473 A    
C30   H17   1.110508 S    
C26   C27   1.496987 S    
C5    C6    1.413590 A    
C28   H11   1.110962 S    
C10   C11   1.420043 A    
C27   H10   1.106578 S    
C30   C31   1.526693 S    
N5    O13   1.300229 A    
C9    C14   1.420268 A    
C24   C25   1.419244 A    
O3    Cu1   1.960989 S    
C25   N2    1.369396 A    
C19   C20   1.404340 A    
N3    O10   1.301488 A    
N5    O14   1.301255 A    
C31   H13   1.110102 S    
Cu1   N2    2.014783 S    
C11   C12   1.398622 A    
O3    C2    1.290144 A    
C15   C20   1.378145 A    
C29   H19   1.105690 S    
C31   H14   1.109477 S    
C5    N5    1.437324 S    
C1    C16   1.453351 S    
N7    O17   1.300136 A    
C3    C19   1.466752 S    
C15   C16   1.379056 A    
C6    N6    1.438219 S    
C30   H16   1.112282 S    
Cu2   O8    1.960991 S    
C28   H12   1.105415 S    
C2    C11   1.460961 S    
C6    C7    1.400899 A    
Cu2   N1    2.016504 S    
N7    O18   1.300907 A    
C23   N1    1.360592 A    
C8    C9    1.409555 A    
C5    C10   1.426502 A    
C24   H8    1.080007 S    
C25   H9    1.081336 S    
C27   N4    1.462658 S    
N2    C26   1.367805 A    
C27   C28   1.518265 S    
O1    Cu1   1.971219 S    
C22   H7    1.113131 S    
O2    Cu2   1.988787 S    
O8    C4    1.303253 A    
O6    C3    1.292210 A    
O4    Cu2   1.971027 S    
C12   C13   1.383110 A    
C31   H15   1.110921 S    
C4    C14   1.470123 S    
C18   C19   1.428289 A    
C22   H6    1.112789 S    
O2    C1    1.290686 A    
O4    C2    1.300378 A    
N4    O12   1.298885 A    
C7    C8    1.394160 A    
Cu1   O5    1.988786 S    
C8    H3    1.080378 S    
Cu2   O6    1.971219 S    
C29   C30   1.535495 S    
C13   C14   1.400184 A    
C9    C10   1.404841 A    
O1    C1    1.297710 A    
