data_mof_unit_3823.cif
_audit_creation_date              2012-12-10T17:32:14-0500
_audit_creation_method            fapswitch 2.2
_symmetry_space_group_name_H-M    P1
_symmetry_Int_Tables_number       1
_space_group_crystal_system       triclinic
_cell_length_a                    12.355423
_cell_length_b                    13.233262
_cell_length_c                    15.105943
_cell_angle_alpha                 76.956754
_cell_angle_beta                  102.031309
_cell_angle_gamma                 116.692858
_cell_volume                      2133.38298066

loop_
_atom_site_label
_atom_site_type_symbol
_atom_type_description
_atom_site_fract_x
_atom_site_fract_y
_atom_site_fract_z
_atom_type_partial_charge
C1    C     C_R   0.854886 0.286638 0.508972 0.874737
C2    C     C_R   0.087730 0.480920 0.111329 0.098069
C3    C     C_R   0.810636 0.529267 0.004711 -0.181779
C4    C     C_R   0.812812 0.530108 0.912924 -0.184057
C5    C     C_R   0.904371 0.512859 0.886639 0.109737
C6    C     C_R   0.995956 0.495924 0.952881 0.091463
C7    C     C_R   0.089812 0.480552 0.926179 0.096598
C8    C     C_R   0.181555 0.465337 0.992154 -0.183761
C9    C     C_R   0.180813 0.466016 0.084161 -0.147814
C10   C     C_R   0.906440 0.513668 0.794797 -0.236273
C11   C     C_R   0.999139 0.497992 0.768010 -0.066725
C12   C     C_R   0.999862 0.499351 0.671205 0.803003
C13   C     C_R   0.090575 0.481313 0.833801 -0.211744
C14   C     C_R   0.269915 0.029856 0.398449 0.505104
C15   C     C_R   0.227631 0.835452 0.473566 -0.115648
C16   C     C_R   0.812382 0.090973 0.586049 -0.305067
C17   C     C_R   0.729059 0.985408 0.622556 -0.184343
C18   C     C_R   0.604951 0.950811 0.594067 0.638694
C19   C     C_R   0.562329 0.016563 0.519161 -0.092609
C20   C     C_R   0.648459 0.123620 0.480114 -0.099658
C21   C     C_R   0.436930 0.981558 0.483901 -0.062097
C22   C     C_R   0.396588 0.060008 0.422820 -0.061136
C23   C     C_R   0.145107 0.713495 0.487162 0.828847
C24   C     C_R   0.483570 0.162416 0.381683 0.526669
C25   C     C_R   0.608451 0.188014 0.403174 0.309947
C26   C     C_R   0.351662 0.868248 0.502789 -0.099627
C27   C     C_R   0.186074 0.917339 0.425760 -0.304802
C28   C     C_R   0.772496 0.164034 0.520032 -0.043549
C29   C     C_R   0.342721 0.316267 0.633661 0.546677
C30   C     C_R   0.760246 0.645848 0.375910 0.022567
C31   C     C_R   0.660096 0.671108 0.342109 -0.233200
C32   C     C_R   0.551351 0.609932 0.381354 0.407901
C33   C     C_R   0.546781 0.529465 0.462674 -0.046125
C34   C     C_R   0.998661 0.499071 0.328552 0.874783
C35   C     C_R   0.651208 0.503486 0.491930 0.257715
C36   C     C_R   0.443972 0.471615 0.515145 -0.080735
C37   C     C_R   0.442934 0.380055 0.585432 -0.040572
C38   C     C_R   0.542919 0.353393 0.609106 -0.200584
C39   C     C_R   0.645917 0.416345 0.565731 -0.183845
C40   C     C_R   0.343746 0.501646 0.504096 -0.074110
C41   C     C_R   0.244783 0.344913 0.616640 0.488411
C42   C     C_R   0.088030 0.483311 0.202977 -0.292140
C43   C     C_R   0.994725 0.496989 0.230929 -0.112527
C44   C     C_R   0.897301 0.506106 0.166088 0.367661
C45   C     C_R   0.899259 0.509257 0.072473 0.004318
C46   C     C_R   0.994068 0.495034 0.045725 0.016542
Cu1   Cu    Cu3+1 0.098270 0.475420 0.521130 0.962782
Cu2   Cu    Cu3+1 0.901730 0.524580 0.478870 0.982748
H1    H     H_    0.161475 0.474314 0.252751 0.183053
H2    H     H_    0.381496 0.802049 0.534139 0.224435
H3    H     H_    0.906949 0.119506 0.615941 0.219628
H4    H     H_    0.760261 0.933668 0.678555 0.183519
H5    H     H_    0.543740 0.284977 0.664133 0.209938
H6    H     H_    0.342660 0.576419 0.458238 0.205600
H7    H     H_    0.841869 0.690974 0.342137 0.159560
H8    H     H_    0.664636 0.734036 0.281377 0.179419
H9    H     H_    0.719419 0.392632 0.592230 0.194040
H10   H     H_    0.740012 0.546423 0.021197 0.166959
H11   H     H_    0.743123 0.545058 0.862320 0.156351
H12   H     H_    0.835554 0.526590 0.744241 0.163272
H13   H     H_    0.162617 0.469452 0.813266 0.172296
H14   H     H_    0.254222 0.453644 0.972529 0.162250
H15   H     H_    0.253139 0.455044 0.134103 0.171709
H16   H     H_    0.089315 0.892183 0.404485 0.151152
N1    N     N_R   0.246280 0.438190 0.553160 -0.270199
N2    N     N_R   0.754320 0.561190 0.447410 -0.204282
O1    O     O_R   0.972510 0.318130 0.526570 -0.599446
O2    O     O_R   0.806530 0.359650 0.490890 -0.564007
O3    O     O_R   0.082980 0.479210 0.647590 -0.606860
O4    O     O_R   0.917000 0.520730 0.611900 -0.610149
O5    O     O_R   0.193470 0.640350 0.509110 -0.586889
O6    O     O_R   0.027490 0.681870 0.473430 -0.590994
O7    O     O_R   0.083000 0.479270 0.388100 -0.598501
O8    O     O_R   0.917020 0.520790 0.352410 -0.508157
F1    F     F_    0.447686 0.233364 0.315234 -0.626004
O9    O     O_3   0.229978 0.109789 0.346493 -0.649196
H17   H     H_    0.139487 0.074458 0.336105 0.316185
F2    F     F_    0.529099 0.858777 0.646572 -0.682031
O10   O     O_3   0.692226 0.271224 0.347332 -0.701020
H18   H     H_    0.650016 0.304804 0.294583 0.378885
O11   O     O_3   0.148444 0.274408 0.665586 -0.700533
H19   H     H_    0.096717 0.313210 0.663280 0.359466
F3    F     F_    0.339499 0.225384 0.698627 -0.627237
O12   O     O_3   0.802239 0.512505 0.195486 -0.709525
H20   H     H_    0.724814 0.464346 0.161471 0.323171
O13   O     O_3   0.450348 0.623599 0.332774 -0.737660
H21   H     H_    0.382850 0.545954 0.331802 0.321358

loop_
_geom_bond_atom_site_label_1
_geom_bond_atom_site_label_2
_ccdc_geom_bond_type
C16   C28   A    
C21   C26   A    
C10   H12   S    
C19   C20   A    
C16   H3    S    
C12   O3    A    
C1    O2    A    
O11   H19   S    
C7    C8    A    
C45   C46   A    
C2    C46   A    
C5    C6    A    
C36   C37   A    
C19   C21   A    
C29   F3    S    
C26   H2    S    
C38   C39   A    
C20   C25   A    
C39   H9    S    
C33   C36   A    
C18   C19   A    
Cu1   O3    S    
C1    O1    A    
O12   H20   S    
C31   C32   A    
C8    C9    A    
C1    C28   S    
C31   H8    S    
C15   C23   S    
C32   O13   S    
C9    H15   S    
C21   C22   A    
Cu2   O6    S    
C17   H4    S    
Cu1   O1    S    
Cu2   O8    S    
C36   C40   A    
C24   C25   A    
Cu1   O7    S    
C10   C11   A    
O13   H21   S    
C16   C17   A    
C15   C26   A    
C41   N1    A    
C20   C28   A    
C35   N2    A    
C34   O7    A    
C3    C45   A    
Cu2   O2    S    
C14   O9    S    
C35   C39   A    
C43   C44   A    
C37   C38   A    
C23   O5    A    
C15   C27   A    
Cu1   Cu2   S    
C18   F2    S    
C41   O11   S    
C17   C18   A    
O9    H17   S    
Cu1   O5    S    
C30   N2    A    
C34   O8    A    
C40   H6    S    
C40   N1    A    
C14   C27   A    
C22   C24   A    
C42   C43   A    
C3    C4    A    
C44   C45   A    
C12   O4    A    
C6    C46   A    
C29   C41   A    
C25   O10   S    
C23   O6    A    
C34   C43   S    
Cu2   O4    S    
C4    C5    A    
C44   O12   S    
C11   C12   S    
C24   F1    S    
C6    C7    A    
C30   H7    S    
C32   C33   A    
C14   C22   A    
C5    C10   A    
C11   C13   A    
C30   C31   A    
C38   H5    S    
C2    C42   A    
C4    H11   S    
C33   C35   A    
C27   H16   S    
C42   H1    S    
O10   H18   S    
C3    H10   S    
C7    C13   A    
C13   H13   S    
C29   C37   A    
Cu2   N2    S    
C2    C9    A    
Cu1   N1    S    
C8    H14   S    
