data_mof_unit_2676.cif
_audit_creation_date              2012-12-10T19:47:17-0500
_audit_creation_method            fapswitch 2.2
_symmetry_space_group_name_H-M    P1
_symmetry_Int_Tables_number       1
_space_group_crystal_system       triclinic
_cell_length_a                    14.965496
_cell_length_b                    14.180161
_cell_length_c                    10.719021
_cell_angle_alpha                 89.866524
_cell_angle_beta                  90.516325
_cell_angle_gamma                 90.074895
_cell_volume                      2274.61671713

loop_
_atom_site_label
_atom_site_type_symbol
_atom_type_description
_atom_site_fract_x
_atom_site_fract_y
_atom_site_fract_z
_atom_type_partial_charge
C1    C     C_R   0.327475 0.499884 0.501633 0.890435
C2    C     C_R   0.671882 0.499994 0.500121 0.891455
C3    C     C_R   0.231206 0.499225 0.508961 -0.115462
C4    C     C_R   0.767075 0.499719 0.503063 -0.086522
C5    C     C_R   0.186289 0.413827 0.529178 -0.306190
C6    C     C_R   0.813302 0.444067 0.418204 -0.320176
C7    C     C_R   0.093926 0.412699 0.537045 0.616442
C8    C     C_R   0.905954 0.444405 0.420163 0.624757
C9    C     C_R   0.046886 0.497167 0.518423 0.023712
C10   C     C_R   0.950748 0.496880 0.512721 0.023900
C11   C     C_R   0.465511 0.104757 0.397852 0.344178
C12   C     C_R   0.528009 0.105280 0.609004 0.339458
C13   C     C_R   0.470795 0.204685 0.397960 -0.156032
C14   C     C_R   0.527326 0.205552 0.604114 -0.161214
C15   C     C_R   0.496335 0.054026 0.504002 -0.019676
C16   C     C_R   0.570970 0.896316 0.548455 -0.312640
C17   C     C_R   0.423539 0.894816 0.459672 -0.347562
C18   C     C_R   0.570514 0.796393 0.550802 0.529272
C19   C     C_R   0.427617 0.795473 0.452925 0.478491
C20   C     C_R   0.496507 0.947144 0.504886 0.092352
C21   C     C_R   0.507604 0.500336 0.260035 0.861771
C22   C     C_R   0.491131 0.500524 0.739740 0.863922
C23   C     C_R   0.560154 0.669976 0.108339 -0.387064
C24   C     C_R   0.462767 0.677823 0.887124 -0.382486
C25   C     C_R   0.549298 0.757167 0.046537 0.420596
C26   C     C_R   0.492915 0.762114 0.941750 0.410576
C27   C     C_R   0.486222 0.589473 0.938922 0.055940
C28   C     C_R   0.519814 0.587285 0.060191 0.052270
C29   C     C_R   0.513634 0.501247 0.126347 -0.077407
C30   C     C_R   0.481332 0.502908 0.873262 -0.079644
C31   C     C_R   0.496776 0.416504 0.063744 -0.221829
C32   C     C_R   0.484535 0.417023 0.936962 -0.230189
C33   C     C_R   0.091613 0.582623 0.501496 -0.293760
C34   C     C_R   0.903814 0.551954 0.597896 -0.293353
C35   C     C_R   0.183712 0.583825 0.497916 -0.197452
C36   C     C_R   0.811675 0.553667 0.592572 -0.167960
H1    H     H_    0.493414 0.349498 0.112289 0.159682
H2    H     H_    0.478129 0.350119 0.889001 0.159273
H3    H     H_    0.630033 0.933995 0.579173 0.189770
H4    H     H_    0.363415 0.930496 0.428688 0.198964
H5    H     H_    0.603325 0.665947 0.189618 0.184355
H6    H     H_    0.422305 0.681958 0.803514 0.186428
H7    H     H_    0.055026 0.647877 0.488486 0.168576
H8    H     H_    0.938609 0.592719 0.668645 0.161377
H9    H     H_    0.217318 0.650575 0.484549 0.221120
H10   H     H_    0.774983 0.594628 0.659965 0.169752
H11   H     H_    0.222362 0.348049 0.539759 0.177495
H12   H     H_    0.777702 0.402257 0.349268 0.160589
H13   H     H_    0.451329 0.244875 0.316498 0.138030
H14   H     H_    0.547820 0.247202 0.683406 0.141459
N1    N     N_R   0.500000 0.252470 0.500000 -0.113733
N2    N     N_R   0.500000 0.747550 0.500000 -0.172009
O1    O     O_R   0.369060 0.579480 0.500010 -0.567647
O2    O     O_R   0.630940 0.579480 0.499990 -0.565008
O3    O     O_R   0.369050 0.420520 0.500010 -0.623899
O4    O     O_R   0.630950 0.420520 0.499990 -0.614480
O5    O     O_R   0.500000 0.579490 0.316770 -0.621344
O6    O     O_R   0.500000 0.579490 0.683230 -0.618905
O7    O     O_R   0.499990 0.420540 0.316770 -0.630917
O8    O     O_R   0.500010 0.420540 0.683230 -0.631981
Zn1   Zn    Zn3+2 0.500000 0.606140 0.500000 0.995902
Zn2   Zn    Zn3+2 0.500000 0.393860 0.500000 0.938998
O9    O     O_3   0.644701 0.746966 0.592688 -0.590428
C37   C     C_3   0.669102 0.772004 0.716308 0.119751
H15   H     H_    0.666772 0.707310 0.774825 0.165414
H16   H     H_    0.624255 0.824201 0.761287 0.194648
C38   C     C_3   0.764324 0.810120 0.718776 -0.900595
H17   H     H_    0.768328 0.876773 0.664681 0.249898
H18   H     H_    0.785270 0.824183 0.816628 0.229698
H19   H     H_    0.810981 0.758281 0.677689 0.264839
O10   O     O_3   0.355791 0.745959 0.404925 -0.593254
C39   C     C_3   0.354597 0.755367 0.273848 0.097369
H20   H     H_    0.420887 0.739260 0.233866 0.141334
H21   H     H_    0.334514 0.827809 0.246165 0.133037
C40   C     C_3   0.287723 0.686206 0.217955 -0.818040
H22   H     H_    0.219570 0.701662 0.252469 0.244459
H23   H     H_    0.287720 0.692575 0.114652 0.197247
H24   H     H_    0.306244 0.612875 0.243930 0.262930
O11   O     O_3   0.600660 0.835180 0.077209 -0.606297
C41   C     C_3   0.580692 0.867012 0.198265 0.103351
H25   H     H_    0.600092 0.814025 0.270063 0.131474
H26   H     H_    0.508347 0.883798 0.206263 0.164970
C42   C     C_3   0.633953 0.956607 0.223554 -0.738380
H27   H     H_    0.609172 0.014793 0.163176 0.253067
H28   H     H_    0.626969 0.978197 0.322152 0.213467
H29   H     H_    0.705886 0.944442 0.204826 0.245537
O12   O     O_3   0.477926 0.848831 0.885163 -0.589953
C43   C     C_3   0.385102 0.865423 0.872715 0.087609
H30   H     H_    0.349734 0.851266 0.961936 0.114249
H31   H     H_    0.355361 0.821123 0.797698 0.139101
C44   C     C_3   0.369597 0.967876 0.836258 -0.753671
H32   H     H_    0.391386 0.979731 0.738862 0.275772
H33   H     H_    0.297329 0.984733 0.842214 0.186157
H34   H     H_    0.407594 0.015593 0.899397 0.270330
O13   O     O_3   0.049675 0.328286 0.555543 -0.577038
C45   C     C_3   0.041604 0.313517 0.685018 -0.348554
H35   H     H_    0.002209 0.370732 0.729396 0.159358
H36   H     H_    0.108347 0.307013 0.730944 0.155169
H37   H     H_    0.005263 0.246320 0.700380 0.204741
O14   O     O_3   0.952479 0.390793 0.335070 -0.576127
C46   C     C_3   0.962818 0.444338 0.225174 -0.348057
H38   H     H_    0.000780 0.510549 0.243510 0.162476
H39   H     H_    0.897000 0.460628 0.181018 0.156776
H40   H     H_    0.001717 0.402248 0.157592 0.200451
O15   O     O_3   0.437948 0.054231 0.293097 -0.626506
C47   C     C_3   0.367126 0.098826 0.227611 0.096335
H41   H     H_    0.395159 0.147697 0.156696 0.145588
H42   H     H_    0.321188 0.138103 0.290306 0.142295
C48   C     C_3   0.311777 0.024397 0.160665 -0.876309
H43   H     H_    0.272382 0.983439 0.229362 0.241985
H44   H     H_    0.265045 0.058512 0.093408 0.220184
H45   H     H_    0.356403 0.975815 0.109819 0.265255
O16   O     O_3   0.551076 0.054276 0.716089 -0.598818
C49   C     C_3   0.610898 0.102282 0.796421 0.057055
H46   H     H_    0.574241 0.155909 0.851530 0.138862
H47   H     H_    0.666551 0.135780 0.743883 0.139329
C50   C     C_3   0.651333 0.031929 0.887697 -0.740348
H48   H     H_    0.691934 0.979479 0.836823 0.249253
H49   H     H_    0.694879 0.069170 0.956062 0.191863
H50   H     H_    0.597262 0.994871 0.938250 0.314941

loop_
_geom_bond_atom_site_label_1
_geom_bond_atom_site_label_2
_ccdc_geom_bond_type
O12   C43   S    
C4    C36   A    
C46   H38   S    
C39   H21   S    
C24   H6    S    
C19   O10   S    
O13   C45   S    
C24   C27   A    
C49   H46   S    
C18   N2    A    
C5    H11   S    
C6    H12   S    
C28   C29   A    
C24   C26   A    
C21   O7    A    
N2    Zn1   S    
C50   H49   S    
C22   O8    A    
C18   O9    S    
C47   H41   S    
C45   H37   S    
C17   C20   A    
O8    Zn2   S    
C1    O1    A    
C33   C35   A    
O16   C49   S    
O1    Zn1   S    
C19   N2    A    
C42   H27   S    
C26   O12   S    
C45   H36   S    
C11   O15   S    
C43   C44   S    
C36   H10   S    
C32   H2    S    
C9    C10   S    
O6    Zn1   S    
C46   H39   S    
C13   N1    A    
C27   C30   A    
C9    C33   A    
N1    Zn2   S    
C11   C15   A    
C41   C42   S    
C15   C20   S    
C38   H17   S    
C33   H7    S    
C37   C38   S    
C34   H8    S    
O11   C41   S    
C41   H26   S    
C2    O2    A    
C48   H45   S    
C44   H32   S    
C5    C7    A    
C41   H25   S    
C6    C8    A    
C25   C26   A    
C21   C29   S    
C31   H1    S    
C1    C3    S    
C17   H4    S    
C37   H16   S    
C2    C4    S    
C40   H22   S    
C21   O5    A    
C44   H33   S    
C14   N1    A    
C12   C15   A    
C3    C35   A    
C16   C20   A    
C45   H35   S    
C10   C34   A    
C16   C18   A    
C23   C28   A    
C40   H23   S    
C13   H13   S    
C4    C6    A    
C42   H28   S    
C43   H31   S    
C46   H40   S    
O4    Zn2   S    
C50   H50   S    
C35   H9    S    
C12   O16   S    
C7    C9    A    
O7    Zn2   S    
C22   C30   S    
C25   O11   S    
C31   C32   A    
C12   C14   A    
C39   H20   S    
C3    C5    A    
C22   O6    A    
C49   H47   S    
O5    Zn1   S    
O2    Zn1   S    
C7    O13   S    
O15   C47   S    
C23   H5    S    
C38   H19   S    
C37   H15   S    
C48   H44   S    
C1    O3    A    
O10   C39   S    
C29   C31   A    
C2    O4    A    
C50   H48   S    
C44   H34   S    
C30   C32   A    
C11   C13   A    
C39   C40   S    
C14   H14   S    
C47   H42   S    
O3    Zn2   S    
O14   C46   S    
C17   C19   A    
C34   C36   A    
C23   C25   A    
C8    O14   S    
C40   H24   S    
C49   C50   S    
C16   H3    S    
O9    C37   S    
C42   H29   S    
C43   H30   S    
C8    C10   A    
C27   C28   A    
C38   H18   S    
C48   H43   S    
C47   C48   S    
