data_mof_unit_451.cif
_audit_creation_date              2012-12-10T17:45:32-0500
_audit_creation_method            fapswitch 2.2
_symmetry_space_group_name_H-M    P1
_symmetry_Int_Tables_number       1
_space_group_crystal_system       triclinic
_cell_length_a                    11.505966
_cell_length_b                    10.718014
_cell_length_c                    9.976236
_cell_angle_alpha                 92.769609
_cell_angle_beta                  89.509414
_cell_angle_gamma                 90.775426
_cell_volume                      1228.69230528

loop_
_atom_site_label
_atom_site_type_symbol
_atom_type_description
_atom_site_fract_x
_atom_site_fract_y
_atom_site_fract_z
_atom_type_partial_charge
C1    C     C_R   0.514199 0.260995 0.496773 0.876316
C2    C     C_R   0.659099 0.065477 0.828823 0.414969
C3    C     C_R   0.590702 0.961090 0.857379 -0.050375
C4    C     C_R   0.514802 0.908298 0.760297 -0.090002
C5    C     C_R   0.519065 0.949474 0.627441 0.025575
C6    C     C_R   0.566513 0.068155 0.607942 -0.006528
C7    C     C_R   0.536146 0.127412 0.489668 -0.144075
C8    C     C_R   0.502262 0.055284 0.375085 -0.026649
C9    C     C_R   0.475858 0.931188 0.387176 -0.233993
C10   C     C_R   0.485794 0.876161 0.510827 -0.103189
C11   C     C_R   0.334695 0.340489 0.117343 0.413309
C12   C     C_R   0.282241 0.500638 0.500397 0.910844
C13   C     C_R   0.260563 0.271806 0.028034 -0.317470
C14   C     C_R   0.244448 0.309195 0.899064 0.393073
C15   C     C_R   0.301900 0.417514 0.862033 -0.049314
C16   C     C_R   0.406702 0.450593 0.926565 -0.093893
C17   C     C_R   0.414406 0.432469 0.067039 0.094729
C18   C     C_R   0.584761 0.558299 0.074098 -0.218704
C19   C     C_R   0.587497 0.554910 0.930156 0.502332
C20   C     C_R   0.492277 0.740616 0.503793 0.860889
C21   C     C_R   0.717675 0.504853 0.499563 0.897119
C22   C     C_1   0.161744 0.505144 0.500787 -0.184409
C23   C     C_1   0.059510 0.509346 0.499893 0.022988
C24   C     C_1   0.940769 0.512206 0.498543 0.037295
C25   C     C_1   0.838364 0.510891 0.498244 -0.126856
C26   C     C_R   0.646538 0.120226 0.703521 -0.112561
H1    H     H_    0.451555 0.876152 0.297379 0.182175
H2    H     H_    0.653189 0.606138 0.130677 0.163247
H3    H     H_    0.207962 0.194760 0.062187 0.187800
N1    N     N_R   0.498930 0.498800 0.142780 -0.099410
N2    N     N_R   0.498900 0.498720 0.857170 -0.104906
O1    O     O_R   0.500000 0.316780 0.614690 -0.615366
O2    O     O_R   0.499990 0.316750 0.385360 -0.546455
O3    O     O_R   0.334450 0.500030 0.614670 -0.630745
O4    O     O_R   0.334440 0.500000 0.385330 -0.551161
O5    O     O_R   0.500010 0.683250 0.614640 -0.594625
O6    O     O_R   0.500000 0.683220 0.385310 -0.619178
O7    O     O_R   0.665560 0.500000 0.614670 -0.545697
O8    O     O_R   0.665550 0.499970 0.385330 -0.627078
Zn1   Zn    Zn3+2 0.500010 0.500020 0.653130 1.019022
Zn2   Zn    Zn3+2 0.499990 0.499980 0.346870 1.008265
C27   C     C_1   0.506287 0.101553 0.241526 0.282585
N3    N     N_1   0.511115 0.138056 0.134358 -0.179401
O9    O     O_3   0.156924 0.253309 0.822805 -0.727590
H4    H     H_    0.158211 0.289803 0.733226 0.337372
C28   C     C_1   0.221623 0.517582 0.841944 0.237915
N4    N     N_1   0.155381 0.595867 0.826615 -0.172126
O10   O     O_3   0.676485 0.612284 0.862173 -0.731079
H5    H     H_    0.733459 0.647853 0.928015 0.321202
C29   C     C_1   0.735669 0.206002 0.661294 0.192044
N5    N     N_1   0.810078 0.271593 0.628775 -0.192825
O11   O     O_3   0.736339 0.111176 0.925613 -0.741730
H6    H     H_    0.762996 0.196283 0.904770 0.348984
C30   C     C_1   0.603245 0.904452 0.985108 0.284860
N6    N     N_1   0.614081 0.859062 0.087043 -0.231451
C31   C     C_1   0.416521 0.836144 0.806008 0.241379
N7    N     N_1   0.337674 0.779977 0.844375 -0.190985
O12   O     O_3   0.332880 0.309467 0.248272 -0.708908
H7    H     H_    0.270016 0.247719 0.265090 0.312446

loop_
_geom_bond_atom_site_label_1
_geom_bond_atom_site_label_2
_ccdc_geom_bond_type
C23   C24   S    
N1    Zn2   S    
C6    C7    A    
C20   O6    A    
C10   C20   S    
C11   O12   S    
C9    C10   A    
C30   N6    T    
C21   O7    A    
C21   O8    A    
O2    Zn2   S    
O1    Zn1   S    
C2    C3    A    
O12   H7    S    
C19   N2    A    
C7    C8    A    
C2    C26   A    
C13   C14   A    
C31   N7    T    
C12   O4    A    
O7    Zn1   S    
C17   N1    A    
C11   C13   A    
C6    C26   A    
C2    O11   S    
O3    Zn1   S    
C5    C10   A    
O10   H5    S    
C8    C27   S    
C29   N5    T    
C26   C29   S    
O6    Zn2   S    
C5    C6    A    
O4    Zn2   S    
C3    C30   S    
C16   C17   A    
C27   N3    T    
C1    O1    A    
C18   N1    A    
C1    O2    A    
C15   C16   A    
C20   O5    A    
C12   C22   S    
O5    Zn1   S    
C18   H2    S    
C24   C25   T    
C9    H1    S    
C14   O9    S    
C18   C19   A    
C28   N4    T    
O8    Zn2   S    
C13   H3    S    
C21   C25   S    
C14   C15   A    
C8    C9    A    
C19   O10   S    
C15   C28   S    
N2    Zn1   S    
C1    C7    S    
C12   O3    A    
C22   C23   T    
C4    C31   S    
O9    H4    S    
C3    C4    A    
O11   H6    S    
C4    C5    A    
C16   N2    A    
C11   C17   A    
