data_mof_unit_156.cif
_audit_creation_date              2012-12-11T17:22:49-0500
_audit_creation_method            fapswitch 2.2
_symmetry_space_group_name_H-M    P1
_symmetry_Int_Tables_number       1
_space_group_crystal_system       triclinic
_cell_length_a                    8.222549
_cell_length_b                    16.473306
_cell_length_c                    26.983152
_cell_angle_alpha                 96.138938
_cell_angle_beta                  92.574534
_cell_angle_gamma                 86.697886
_cell_volume                      3625.17756792

loop_
_atom_site_label
_atom_site_type_symbol
_atom_type_description
_atom_site_fract_x
_atom_site_fract_y
_atom_site_fract_z
_atom_type_partial_charge
Ba1   Ba    Ba6+2 0.851940 0.461560 0.523510 1.649764
Ba2   Ba    Ba6+2 0.337880 0.538370 0.476480 1.658676
C1    C     C_3   0.657651 0.169486 0.654286 -0.370462
C2    C     C_3   0.645258 0.253274 0.635271 0.338274
C3    C     C_3   0.517114 0.665687 0.627935 0.299654
C4    C     C_3   0.494646 0.697599 0.682367 -0.371457
C5    C     C_3   0.000698 0.744105 0.342319 0.388630
C6    C     C_3   0.956867 0.804025 0.304089 -0.307955
C7    C     C_3   0.477501 0.728448 0.304093 0.840226
C8    C     C_3   0.427301 0.728318 0.248984 -0.231509
C9    C     C_R   0.007577 0.445405 0.178968 0.593170
C10   C     C_R   0.969908 0.591296 0.183410 0.581852
C11   C     C_2   0.782731 0.566306 0.273468 -0.092427
C12   C     C_3   0.141422 0.278659 0.659630 0.330784
C13   C     C_3   0.755782 0.589056 0.328539 -0.085125
C14   C     C_1   0.985277 0.490640 0.344086 0.028869
C15   C     C_2   0.026767 0.484046 0.296577 -0.092074
C16   C     C_2   0.919833 0.523001 0.258097 0.216471
C17   C     C_R   0.044658 0.514395 0.104454 -0.079926
C18   C     C_R   0.049345 0.442086 0.128226 -0.035446
C19   C     C_R   0.093457 0.367789 0.100536 -0.059526
C20   C     C_R   0.003970 0.589367 0.132358 -0.028763
C21   C     C_2   0.860687 0.537666 0.361726 -0.249744
C22   C     C_2   0.349524 0.479585 0.641842 -0.278131
C23   C     C_3   0.092257 0.265221 0.711809 0.288446
C24   C     C_R   0.176226 0.435073 0.974927 0.019443
C25   C     C_R   0.093383 0.581439 0.976526 0.019706
C26   C     C_R   0.152563 0.507104 0.950156 0.049872
C27   C     C_R   0.245507 0.364088 0.947840 -0.098885
C28   C     C_R   0.285935 0.363414 0.898118 -0.064849
C29   C     C_R   0.257351 0.433085 0.872699 -0.027640
C30   C     C_R   0.189011 0.504896 0.898522 -0.078281
C31   C     C_R   0.158221 0.574690 0.872831 -0.035278
C32   C     C_R   0.193944 0.571485 0.821704 0.590574
C33   C     C_R   0.297067 0.432477 0.822080 0.575436
C34   C     C_3   0.176738 0.289524 0.416755 0.303445
C35   C     C_2   0.457865 0.481820 0.729770 -0.077698
C36   C     C_3   0.500063 0.486637 0.675944 -0.048922
C37   C     C_1   0.212023 0.516310 0.657415 0.043030
C38   C     C_2   0.173694 0.518678 0.705064 -0.108963
C39   C     C_2   0.302511 0.499205 0.744299 0.204483
C40   C     C_R   0.131579 0.436516 0.025754 0.019271
C41   C     C_R   0.081175 0.511870 0.052805 0.050053
C42   C     C_R   0.067001 0.584831 0.028765 0.019883
C43   C     C_R   0.134457 0.364984 0.050687 -0.100219
C44   C     C_R   0.998955 0.661312 0.108785 -0.066058
C45   C     C_3   0.182467 0.197287 0.403699 -0.364186
C46   C     C_R   0.061320 0.649939 0.949376 -0.101274
C47   C     C_R   0.092417 0.646415 0.898794 -0.061921
C48   C     C_R   0.028618 0.659187 0.058224 -0.101992
C49   C     C_R   0.385998 0.266417 0.520919 -0.360233
C50   C     C_R   0.525525 0.240788 0.495210 0.040253
C51   C     C_R   0.578546 0.157994 0.490749 -0.182464
C52   C     C_R   0.489659 0.099979 0.511797 0.203019
C53   C     C_R   0.344449 0.126724 0.536413 0.321834
C54   C     C_R   0.291763 0.210013 0.539749 -0.050565
C55   C     C_R   0.622059 0.853160 0.507668 -0.132866
C56   C     C_3   0.017555 0.709997 0.581373 0.303813
C57   C     C_R   0.669593 0.769949 0.503833 0.014542
C58   C     C_R   0.715616 0.908903 0.486095 0.246653
C59   C     C_R   0.806787 0.741001 0.478049 -0.287809
C60   C     C_R   0.907183 0.795010 0.459831 -0.024238
C61   C     C_R   0.860943 0.878935 0.462928 -0.161548
C62   C     C_3   0.008185 0.802259 0.594604 -0.374361
C63   C     C_3   0.676446 0.359797 0.375868 0.297061
C64   C     C_3   0.678607 0.339497 0.319562 -0.338382
H1    H     H_    0.750477 0.256844 0.611366 0.107057
H2    H     H_    0.263128 0.179684 0.371953 0.129536
H3    H     H_    0.230331 0.165981 0.436084 0.059537
H4    H     H_    0.057915 0.176946 0.393257 0.129020
H5    H     H_    0.895395 0.689361 0.569574 0.004684
H6    H     H_    0.101794 0.694811 0.550406 0.068890
H7    H     H_    0.919059 0.819300 0.624178 0.133928
H8    H     H_    0.969271 0.833772 0.561501 0.068414
H9    H     H_    0.801022 0.372338 0.390225 0.007999
H10   H     H_    0.594793 0.414813 0.384623 0.091356
H11   H     H_    0.658861 0.121328 0.622175 0.077044
H12   H     H_    0.763719 0.285809 0.310107 0.129144
H13   H     H_    0.719299 0.392203 0.301905 0.077496
H14   H     H_    0.529865 0.259250 0.612871 -0.043903
H15   H     H_    0.551912 0.161989 0.677146 0.095111
H16   H     H_    0.396641 0.648292 0.611282 0.028464
H17   H     H_    0.603799 0.611300 0.625878 0.034632
H18   H     H_    0.414942 0.754553 0.684827 0.138275
H19   H     H_    0.436451 0.651865 0.702016 0.078828
H20   H     H_    0.614746 0.710734 0.701081 0.124173
H21   H     H_    0.771858 0.162062 0.677278 0.163119
H22   H     H_    0.042084 0.684325 0.322645 0.073009
H23   H     H_    0.887504 0.735891 0.361889 -0.119777
H24   H     H_    0.064919 0.813216 0.282574 0.142387
H25   H     H_    0.858518 0.780236 0.277954 0.117881
H26   H     H_    0.913279 0.863800 0.323298 0.093986
H27   H     H_    0.612956 0.721381 0.305690 -0.223275
H28   H     H_    0.488750 0.776925 0.232618 0.071124
H29   H     H_    0.293346 0.739324 0.244330 0.111661
H30   H     H_    0.106923 0.343321 0.654098 -0.003018
H31   H     H_    0.461642 0.668392 0.228297 0.038093
H32   H     H_    0.096894 0.310911 0.117438 0.121903
H33   H     H_    0.554982 0.470597 0.757201 0.100148
H34   H     H_    0.339605 0.307361 0.879472 0.106625
H35   H     H_    0.164151 0.305029 0.032275 0.068778
H36   H     H_    0.702158 0.594227 0.246534 0.082177
H37   H     H_    0.970401 0.720160 0.129391 0.117536
H38   H     H_    0.275551 0.267875 0.657010 -0.051713
H39   H     H_    0.065165 0.700853 0.880045 0.121539
H40   H     H_    0.049647 0.534883 0.715932 0.120113
H41   H     H_    0.024488 0.717609 0.043567 0.068851
H42   H     H_    0.846147 0.550483 0.401614 0.078934
H43   H     H_    0.353308 0.443863 0.605620 0.070398
H44   H     H_    0.515158 0.873975 0.528418 0.112242
H45   H     H_    0.686165 0.139086 0.469914 0.131166
H46   H     H_    0.938190 0.920714 0.447986 0.100814
H47   H     H_    0.344890 0.330245 0.523430 0.090669
H48   H     H_    0.141465 0.313816 0.739372 0.007789
H49   H     H_    0.842631 0.676502 0.475759 0.064311
H50   H     H_    0.957587 0.273400 0.713363 0.088334
H51   H     H_    0.301542 0.308912 0.426215 0.009605
H52   H     H_    0.098634 0.305206 0.449278 0.064015
N1    N     N_R   0.966774 0.519566 0.206070 -0.421829
N2    N     N_R   0.262716 0.500804 0.796727 -0.423043
N3    N     N_2   0.536997 0.014619 0.507694 -0.214276
N4    N     N_2   0.671607 0.994679 0.488767 -0.226888
O1    O     O_2   0.915540 0.542930 0.617950 -0.463112
O2    O     O_3   0.621458 0.293048 0.397031 -0.633500
O3    O     O_3   0.059577 0.224368 0.624668 -0.590208
O4    O     O_2   0.274150 0.457040 0.382020 -0.444269
O5    O     O_3   0.042160 0.457070 0.442220 -0.501696
O6    O     O_3   0.525310 0.603770 0.411640 -0.462527
O7    O     O_3   0.114087 0.326728 0.375263 -0.628159
O8    O     O_3   0.637620 0.597020 0.524620 -0.474106
O9    O     O_3   0.118810 0.645070 0.435950 -0.476069
O10   O     O_2   0.247195 0.789300 0.465416 -0.480072
O11   O     O_3   0.129115 0.774317 0.373987 -0.549485
O12   O     O_3   0.147530 0.542870 0.557780 -0.492264
O13   O     O_3   0.552080 0.402920 0.475380 -0.486509
O14   O     O_2   0.387280 0.697260 0.523450 -0.460255
O15   O     O_3   0.579855 0.727499 0.603770 -0.641376
O16   O     O_2   0.466690 0.509878 0.327234 -0.497396
O17   O     O_3   0.397638 0.665280 0.323150 -0.590065
O18   O     O_2   0.005639 0.382101 0.198706 -0.596451
O19   O     O_2   0.362195 0.370903 0.800587 -0.625403
O20   O     O_2   0.944186 0.657262 0.207835 -0.629246
O21   O     O_2   0.166401 0.632224 0.799700 -0.596662
O22   O     O_3   0.664390 0.396160 0.588360 -0.487790
O23   O     O_2   0.834159 0.434859 0.672511 -0.504859
O24   O     O_3   0.072929 0.673364 0.623757 -0.628150
O25   O     O_3   0.646043 0.314332 0.675815 -0.604518
O26   O     O_2   0.802410 0.302720 0.476520 -0.462962
O27   O     O_3   0.070880 0.354870 0.564040 -0.494472
O28   O     O_2   0.953707 0.210144 0.532008 -0.458946
P1    P     P_3+3 0.086060 0.566890 0.610430 0.997409
P2    P     P_3+3 0.625290 0.314770 0.461990 0.992432
P3    P     P_3+3 0.094304 0.248674 0.564672 0.991529
P4    P     P_3+3 0.103630 0.433040 0.389570 0.991399
P5    P     P_3+3 0.101451 0.751750 0.434756 0.994139
P6    P     P_3+3 0.662180 0.409661 0.653482 0.956978
P7    P     P_3+3 0.571996 0.699426 0.539388 0.953956
P8    P     P_3+3 0.537644 0.592724 0.346400 0.945865
H53   H     H_    0.129889 0.823133 0.608222 0.120871
H54   H     H_    0.554317 0.325417 0.304473 0.136985
O29   O     O_3   0.138992 0.184438 0.722020 -0.636800
C65   C     C_3   0.275480 0.184248 0.755551 0.171648
H55   H     H_    0.240755 0.211580 0.793329 0.072477
H56   H     H_    0.376939 0.217199 0.742349 0.078735
H57   H     H_    0.320194 0.120036 0.758415 0.055940
O30   O     O_3   0.424486 0.804746 0.328858 -0.639137
C66   C     C_3   0.512004 0.819713 0.374792 0.277527
H58   H     H_    0.641299 0.830701 0.368713 -0.039689
H59   H     H_    0.504549 0.768954 0.398479 0.051164
H60   H     H_    0.457591 0.875821 0.395470 0.084431
H61   H     H_    0.141498 0.452826 0.285616 0.120270
H62   H     H_    0.274202 0.308115 0.964432 0.067793
H63   H     H_    0.008045 0.707177 0.965921 0.069071
O31   O     O_3   0.246135 0.070589 0.552852 -0.619457
C67   C     C_3   0.303656 0.053145 0.600778 0.209856
H64   H     H_    0.306822 0.109446 0.627444 0.049598
H65   H     H_    0.426075 0.020770 0.599595 0.023645
H66   H     H_    0.218757 0.012052 0.615135 0.082810

loop_
_geom_bond_atom_site_label_1
_geom_bond_atom_site_label_2
_ccdc_geom_bond_type
C25   C46   A    
C53   C54   A    
C3    H16   S    
C28   H34   S    
C57   P7    S    
C17   C18   A    
C36   P6    S    
C9    O18   D    
C9    N1    Am   
O10   P5    D    
C64   H54   S    
O29   C65   S    
O6    P8    S    
C5    C6    S    
C66   H59   S    
C51   C52   A    
C64   H13   S    
Ba2   O12   S    
C12   O3    S    
C11   C16   D    
C34   C45   S    
O8    P7    S    
C32   O21   D    
C7    O30   S    
C35   C36   S    
Ba1   Ba2   S    
C28   C29   A    
C3    H17   S    
C56   H5    S    
C55   C57   A    
C8    H28   S    
C31   C47   A    
O13   P2    S    
C5    H23   S    
C37   P1    S    
C22   C37   D    
C60   P5    S    
Ba1   P2    S    
C15   C16   S    
C49   C54   A    
C63   O2    S    
C61   H46   S    
O27   P3    S    
O31   C67   S    
C45   H3    S    
O23   P6    D    
C25   C42   A    
C5    H22   S    
O17   P8    S    
C17   C41   A    
C14   C15   D    
O28   P3    D    
C1    H15   S    
C22   C36   S    
C62   H7    S    
Ba1   O27   S    
C6    H26   S    
C67   H66   S    
C34   H52   S    
C7    C8    S    
C19   C43   A    
Ba2   O5    S    
C51   H45   S    
C13   C21   S    
O2    P2    S    
C53   O31   S    
Ba2   P4    S    
C56   C62   S    
Ba2   O4    S    
C33   N2    Am   
O5    P4    S    
C12   H30   S    
O3    P3    S    
C31   C32   A    
C66   H60   S    
C65   H56   S    
C32   N2    Am   
C64   H12   S    
O1    P1    D    
C9    C18   A    
C57   C59   A    
C4    H18   S    
C1    H21   S    
C49   C50   A    
O26   P2    D    
C26   C30   A    
C17   C20   A    
C13   P8    S    
C67   H65   S    
Ba1   O8    S    
C23   H50   S    
C23   O29   S    
C37   C38   D    
C55   C58   A    
C47   H39   S    
C2    O25   S    
Ba2   O14   S    
C40   C43   A    
O22   P6    S    
C8    H31   S    
C41   C42   A    
Ba1   O1    S    
C45   H4    S    
C59   H49   S    
C27   C28   A    
O25   P6    S    
C10   N1    Am   
O16   P8    D    
C12   H38   S    
C67   H64   S    
C50   P2    S    
O12   P1    S    
C60   C61   A    
C56   O24   S    
Ba2   O9    S    
C6    H25   S    
C49   H47   S    
C18   C19   A    
C58   N4    S    
C34   H51   S    
C63   H10   S    
N3    N4    D    
C43   H35   S    
C33   O19   D    
O14   P7    D    
O4    P4    D    
C38   C39   S    
C20   C44   A    
C52   N3    S    
C14   C21   D    
C11   C13   S    
C14   P4    S    
C48   H41   S    
C10   C20   A    
C58   C61   A    
C6    H24   S    
C40   C41   A    
Ba1   O12   S    
C1    H11   S    
C7    H27   S    
C45   H2    S    
C66   H58   S    
C50   C51   A    
C24   C40   A    
C38   H40   S    
C46   H63   S    
C42   C48   A    
C52   C53   A    
C46   C47   A    
O11   P5    S    
C65   H57   S    
C29   C30   A    
C22   H43   S    
Ba1   O5    S    
C54   P3    S    
C4    H20   S    
C2    H1    S    
C15   H61   S    
C55   H44   S    
C5    O11   S    
C39   N2    S    
C65   H55   S    
C44   H37   S    
C44   C48   A    
C24   C26   A    
Ba2   O13   S    
C63   H9    S    
O15   P7    S    
C30   C31   A    
O9    P5    S    
C3    O15   S    
Ba1   O22   S    
Ba1   O13   S    
C34   O7    S    
C19   H32   S    
C7    O17   S    
C35   H33   S    
C56   H6    S    
C3    C4    S    
O30   C66   S    
C8    H29   S    
C21   H42   S    
C62   H53   S    
Ba2   O8    S    
C10   O20   D    
C2    H14   S    
Ba1   P1    S    
C29   C33   A    
C27   H62   S    
C35   C39   D    
C59   C60   A    
O24   P1    S    
C12   C23   S    
C24   C27   A    
C63   C64   S    
C4    H19   S    
C25   C26   A    
C62   H8    S    
Ba1   O26   S    
C11   H36   S    
C23   H48   S    
C16   N1    S    
O7    P4    S    
C1    C2    S    
Ba2   O6    S    
