data_mof_unit_3340.cif
_audit_creation_date              2012-12-10T20:58:00-0500
_audit_creation_method            fapswitch 2.2
_symmetry_space_group_name_H-M    P1
_symmetry_Int_Tables_number       1
_space_group_crystal_system       triclinic
_cell_length_a                    18.507226
_cell_length_b                    18.496162
_cell_length_c                    18.924676
_cell_angle_alpha                 120.717169
_cell_angle_beta                  89.39381
_cell_angle_gamma                 119.467077
_cell_volume                      4591.26777804

loop_
_atom_site_label
_atom_site_type_symbol
_atom_type_description
_atom_site_fract_x
_atom_site_fract_y
_atom_site_fract_z
_atom_type_partial_charge
C1    C     C_R   0.358579 0.220500 0.361364 0.793348
C2    C     C_3   0.314125 0.607462 0.349006 -0.411921
C3    C     C_3   0.301324 0.501837 0.301908 0.055114
C4    C     C_3   0.198853 0.499370 0.199268 0.085145
C5    C     C_3   0.141583 0.421365 0.220927 0.293801
C6    C     C_3   0.257647 0.607334 0.288176 -0.469191
C7    C     C_3   0.657166 0.942029 0.676429 -0.368455
C8    C     C_3   0.715852 0.060673 0.735672 -0.379020
C9    C     C_3   0.712163 0.940235 0.799292 -0.211721
C10   C     C_3   0.791875 0.938846 0.688798 0.307459
C11   C     C_3   0.698021 0.897153 0.699876 0.063422
C12   C     C_R   0.640152 0.780413 0.640428 0.817187
C13   C     C_3   0.799532 0.101949 0.801892 0.124315
C14   C     C_3   0.768722 0.060417 0.857466 -0.473646
C15   C     C_3   0.850869 0.057334 0.752041 -0.429208
C16   C     C_3   0.643920 0.386415 0.205103 -0.299565
C17   C     C_3   0.693931 0.376795 0.138258 -0.316175
C18   C     C_3   0.737803 0.592157 0.297852 -0.347202
C19   C     C_3   0.777563 0.498954 0.328793 -0.488265
C20   C     C_3   0.696703 0.493912 0.298042 0.209318
C21   C     C_3   0.784265 0.486538 0.184442 0.234960
C22   C     C_3   0.763866 0.570327 0.214640 -0.322584
C23   C     C_R   0.359433 0.501031 0.640618 0.799576
C24   C     C_3   0.834209 0.508666 0.267924 -0.410596
C25   C     C_R   0.397042 0.241256 0.563620 -0.053170
C26   C     C_R   0.369749 0.153664 0.481280 -0.165314
C27   C     C_R   0.280914 0.096360 0.434492 0.142486
C28   C     C_R   0.218326 0.093364 0.479432 -0.163594
C29   C     C_R   0.248393 0.161545 0.570883 -0.151058
C30   C     C_R   0.338791 0.239689 0.613694 -0.105607
C31   C     C_R   0.200424 0.941544 0.284251 0.383151
C32   C     C_R   0.186735 0.891088 0.194070 -0.119103
C33   C     C_R   0.225232 0.948501 0.158394 -0.067472
C34   C     C_R   0.640957 0.497436 0.359488 0.732659
C35   C     C_R   0.279599 0.054990 0.215213 -0.259494
C36   C     C_R   0.298315 0.106219 0.305396 -0.100539
C37   C     C_R   0.257928 0.047920 0.339836 -0.095515
C38   C     C_R   0.283102 0.927198 0.030808 -0.173278
C39   C     C_R   0.269181 0.878781 0.941037 -0.123831
C40   C     C_R   0.182982 0.803376 0.882071 -0.131574
C41   C     C_R   0.110787 0.780511 0.912665 -0.095232
C42   C     C_R   0.123946 0.832297 0.001964 -0.046000
C43   C     C_R   0.210569 0.901328 0.062393 0.153372
C44   C     C_R   0.863214 0.687040 0.597588 -0.091184
C45   C     C_R   0.641976 0.504332 0.643390 0.818866
C46   C     C_R   0.830264 0.610678 0.612010 -0.075267
C47   C     C_R   0.845326 0.639895 0.699177 0.150504
C48   C     C_R   0.909354 0.743783 0.767211 -0.168270
C49   C     C_R   0.951022 0.817550 0.750103 -0.137118
C50   C     C_R   0.926009 0.789819 0.665891 -0.150795
C51   C     C_R   0.842036 0.555851 0.768914 -0.249840
C52   C     C_R   0.800365 0.488785 0.792774 -0.113209
C53   C     C_R   0.705315 0.425321 0.762996 -0.091825
C54   C     C_R   0.656059 0.445212 0.730017 0.419288
C55   C     C_R   0.698885 0.508385 0.700902 -0.123692
C56   C     C_R   0.358746 0.501429 0.359969 0.776233
C57   C     C_R   0.793243 0.563738 0.720004 -0.053918
C58   C     C_R   0.583592 0.256132 0.729370 -0.178083
C59   C     C_R   0.540745 0.195270 0.758476 -0.153175
C60   C     C_R   0.570146 0.238323 0.846868 -0.198156
C61   C     C_R   0.635479 0.345184 0.906356 0.070974
C62   C     C_R   0.669158 0.410035 0.882394 -0.048359
C63   C     C_R   0.653018 0.360752 0.791000 0.168821
C64   C     C_R   0.416780 0.779335 0.698069 -0.101614
C65   C     C_R   0.391833 0.713299 0.722768 -0.035048
C66   C     C_R   0.303313 0.648521 0.711361 0.105565
C67   C     C_3   0.323422 0.475174 0.213948 -0.134610
C68   C     C_R   0.240550 0.658167 0.682530 -0.186546
C69   C     C_R   0.266338 0.728378 0.662040 -0.140274
C70   C     C_R   0.354351 0.788042 0.668535 -0.145917
C71   C     C_R   0.222110 0.566980 0.782580 -0.235748
C72   C     C_R   0.194460 0.497643 0.804610 -0.067345
C73   C     C_R   0.222543 0.430550 0.772667 0.017518
C74   C     C_R   0.276093 0.434625 0.719976 -0.237107
C75   C     C_R   0.303857 0.503718 0.697978 -0.063021
C76   C     C_R   0.276164 0.571298 0.730020 0.006193
C77   C     C_R   0.259296 0.345290 0.821545 -0.291927
C78   C     C_3   0.263000 0.473917 0.154935 -0.463539
C79   C     C_R   0.234627 0.276649 0.844293 0.046636
C80   C     C_R   0.145963 0.218427 0.838694 -0.121122
C81   C     C_R   0.083299 0.225938 0.807621 -0.150440
C82   C     C_R   0.107685 0.288516 0.779500 -0.060700
C83   C     C_R   0.196054 0.353647 0.791365 0.125974
C84   C     C_R   0.852610 0.498837 0.138927 0.715945
C85   C     C_R   0.138490 0.499288 0.861708 0.774685
C86   C     C_R   0.857713 0.219517 0.861175 0.763285
C87   C     C_R   0.135578 0.778586 0.140054 0.814763
C88   C     C_R   0.856344 0.495578 0.857340 0.793488
C89   C     C_3   0.201428 0.420020 0.277820 -0.471107
C90   C     C_R   0.140100 0.499538 0.142183 0.810605
H1    H     H_    0.308499 0.396794 0.178012 0.186734
H2    H     H_    0.215860 0.631191 0.321625 0.192627
H3    H     H_    0.184035 0.435145 0.337848 0.157613
H4    H     H_    0.102065 0.446101 0.258822 0.132344
H5    H     H_    0.590921 0.915879 0.681581 0.141269
H6    H     H_    0.648825 0.913830 0.607470 0.209236
H7    H     H_    0.735669 0.089016 0.694661 0.171852
H8    H     H_    0.676756 0.089166 0.770598 0.179366
H9    H     H_    0.731052 0.089464 0.893917 0.170082
H10   H     H_    0.824022 0.910632 0.707263 0.083613
H11   H     H_    0.878903 0.088217 0.713955 0.190583
H12   H     H_    0.904530 0.087972 0.808624 0.138663
H13   H     H_    0.750207 0.916239 0.815928 0.161625
H14   H     H_    0.827275 0.091459 0.907831 0.176742
H15   H     H_    0.566925 0.345161 0.176983 0.186255
H16   H     H_    0.642643 0.333679 0.220987 0.119708
H17   H     H_    0.710219 0.318767 0.119602 0.123494
H18   H     H_    0.629153 0.332732 0.084961 0.205528
H19   H     H_    0.698296 0.635453 0.314731 0.160460
H20   H     H_    0.303300 0.529769 0.140300 0.166931
H21   H     H_    0.706678 0.559572 0.178847 0.272037
H22   H     H_    0.819375 0.566660 0.396817 0.175463
H23   H     H_    0.755321 0.427275 0.323861 0.167447
H24   H     H_    0.854620 0.455328 0.247721 0.169870
H25   H     H_    0.895171 0.587567 0.305752 0.198896
H26   H     H_    0.803032 0.656725 0.359658 0.159529
H27   H     H_    0.826072 0.642018 0.230345 0.132876
H28   H     H_    0.362090 0.303617 0.681222 0.103097
H29   H     H_    0.459086 0.310129 0.579618 0.232004
H30   H     H_    0.417180 0.154450 0.446112 0.116536
H31   H     H_    0.225410 0.397965 0.091038 0.194300
H32   H     H_    0.148133 0.042199 0.444212 0.156212
H33   H     H_    0.201973 0.161631 0.606823 0.139771
H34   H     H_    0.308300 0.098063 0.188294 0.185895
H35   H     H_    0.350269 0.983338 0.075448 0.127795
H36   H     H_    0.324979 0.897560 0.917410 0.141067
H37   H     H_    0.172197 0.763799 0.812617 0.128115
H38   H     H_    0.045092 0.724728 0.867529 0.118177
H39   H     H_    0.067036 0.814605 0.024260 0.122790
H40   H     H_    0.953010 0.848125 0.654313 0.122338
H41   H     H_    0.188755 0.342595 0.242647 0.183904
H42   H     H_    0.836942 0.667913 0.535105 0.139972
H43   H     H_    0.782383 0.530195 0.557230 0.114295
H44   H     H_    0.924956 0.767908 0.833746 0.132675
H45   H     H_    0.999410 0.896969 0.802834 0.142255
H46   H     H_    0.913759 0.603199 0.788183 0.159288
H47   H     H_    0.563965 0.222776 0.659995 0.123054
H48   H     H_    0.488078 0.114844 0.712440 0.140611
H49   H     H_    0.542675 0.189738 0.868973 0.129002
H50   H     H_    0.721462 0.494295 0.933398 0.123585
H51   H     H_    0.373952 0.840709 0.650992 0.123034
H52   H     H_    0.483545 0.822791 0.701918 0.123042
H53   H     H_    0.440803 0.707421 0.745896 0.178258
H54   H     H_    0.171950 0.610561 0.674474 0.126775
H55   H     H_    0.217642 0.735283 0.639959 0.133649
H56   H     H_    0.202352 0.619639 0.807455 0.174321
H57   H     H_    0.295312 0.381789 0.694870 0.165135
H58   H     H_    0.327633 0.393491 0.829101 0.131489
H59   H     H_    0.294779 0.624986 0.408350 0.197616
H60   H     H_    0.125535 0.167675 0.858239 0.159967
H61   H     H_    0.017434 0.185790 0.806208 0.147184
H62   H     H_    0.058292 0.293323 0.755388 0.120503
H63   H     H_    0.384558 0.669596 0.371755 0.160073
H64   H     H_    0.301813 0.665190 0.276875 0.182972
O1    O     O_3   0.500000 0.500000 0.500000 -0.492638
O2    O     O_R   0.383400 0.560740 0.616060 -0.654244
O3    O     O_R   0.555060 0.439270 0.322940 -0.620341
O4    O     O_R   0.383950 0.268380 0.445700 -0.666334
O5    O     O_R   0.677590 0.731610 0.615290 -0.630053
O6    O     O_3   0.997750 0.500010 0.002220 -0.492992
O7    O     O_R   0.942690 0.560750 0.179280 -0.623978
O8    O     O_R   0.114340 0.439270 0.886160 -0.651279
O9    O     O_R   0.820160 0.268410 0.886930 -0.650070
O10   O     O_R   0.113800 0.731630 0.056520 -0.668833
O11   O     O_R   0.819390 0.439310 0.886160 -0.668275
O12   O     O_R   0.383400 0.268380 0.323710 -0.648797
O13   O     O_R   0.115110 0.560720 0.179280 -0.655205
O14   O     O_R   0.941380 0.560750 0.885620 -0.656147
O15   O     O_R   0.115110 0.439270 0.057830 -0.620805
O16   O     O_R   0.942690 0.268390 0.886930 -0.658525
O17   O     O_R   0.114340 0.731630 0.178520 -0.567813
O18   O     O_R   0.820160 0.439310 0.057830 -0.684991
O19   O     O_R   0.113800 0.560730 0.885620 -0.638852
O20   O     O_R   0.555060 0.731630 0.615290 -0.660995
O21   O     O_R   0.383950 0.439280 0.616600 -0.643618
O22   O     O_R   0.677590 0.560710 0.444390 -0.666873
O23   O     O_R   0.556370 0.439260 0.616600 -0.693432
O24   O     O_R   0.382640 0.439290 0.322940 -0.617396
O25   O     O_R   0.678360 0.560700 0.616060 -0.651463
O26   O     O_R   0.382640 0.560750 0.444390 -0.646004
Zn1   Zn    Zn3+2 0.456040 0.586770 0.543190 0.981500
Zn2   Zn    Zn3+2 0.456820 0.413240 0.543960 0.936531
Zn3   Zn    Zn3+2 0.631110 0.586750 0.543190 0.965352
Zn4   Zn    Zn3+2 0.456040 0.413240 0.369660 0.989258
Zn5   Zn    Zn3+2 0.041710 0.413240 0.959030 0.970834
Zn6   Zn    Zn3+2 0.866640 0.413270 0.959030 0.932538
Zn7   Zn    Zn3+2 0.040930 0.586780 0.958260 0.947970
Zn8   Zn    Zn3+2 0.041710 0.586770 0.132560 0.995425
C91   C     C_2   0.626787 0.898960 0.820406 0.390908
H65   H     H_    0.588582 0.930076 0.825655 0.056031
O27   O     O_2   0.602237 0.833541 0.833580 -0.596484
C92   C     C_2   0.421088 0.549649 0.230326 0.410804
H66   H     H_    0.447400 0.629794 0.261531 0.053969
O28   O     O_2   0.470386 0.521566 0.209074 -0.540410
O29   O     O_3   0.784893 0.906078 0.602036 -0.771857
H67   H     H_    0.826071 0.884491 0.585020 0.325006
O30   O     O_3   0.154760 0.885549 0.316789 -0.749445
H68   H     H_    0.190770 0.917711 0.376051 0.329083
O31   O     O_3   0.586722 0.447531 0.765974 -0.750690
H69   H     H_    0.516812 0.405187 0.754840 0.323692
C93   C     C_2   0.676366 0.389457 0.993132 0.414066
H70   H     H_    0.674593 0.327390 0.994067 0.077005
O32   O     O_2   0.646782 0.431256 0.051905 -0.623491
O33   O     O_3   0.080963 0.322781 0.145376 -0.771235
H71   H     H_    0.114759 0.296235 0.113727 0.342971
C94   C     C_2   0.302598 0.268608 0.875312 0.389294
H72   H     H_    0.369123 0.310263 0.875046 0.079746
O34   O     O_2   0.285200 0.215985 0.901664 -0.567390

loop_
_geom_bond_atom_site_label_1
_geom_bond_atom_site_label_2
_ccdc_geom_bond_type
O22   Zn3   S    
C66   C68   A    
C24   H24   S    
C8    C13   S    
C90   O13   A    
C22   H27   S    
C69   H55   S    
C73   C74   A    
C35   C36   A    
C18   H19   S    
O6    Zn6   S    
C8    H7    S    
O10   Zn7   S    
C5    O33   S    
C5    H4    S    
O1    Zn2   S    
C7    C8    S    
C56   O24   A    
C19   H22   S    
O26   Zn1   S    
C80   H60   S    
C7    H6    S    
C26   C27   A    
C62   C63   A    
O17   Zn8   S    
O9    Zn6   S    
C48   H44   S    
C28   C29   A    
C26   H30   S    
O7    Zn8   S    
C10   C15   S    
C17   H17   S    
C71   C76   A    
C65   H53   S    
C28   H32   S    
C23   O21   A    
C77   C83   A    
O23   Zn2   S    
C11   C12   S    
C58   C63   A    
C90   O15   A    
C18   C20   S    
C41   C42   A    
C91   O27   D    
C78   H31   S    
C8    H8    S    
C53   C63   S    
C50   H40   S    
C13   C14   S    
C61   C93   S    
C54   C55   A    
O31   H69   S    
O19   Zn7   S    
C31   C32   A    
O18   Zn6   S    
C16   C17   S    
C88   O14   A    
C13   C86   S    
C85   O19   A    
C22   H21   S    
C68   H54   S    
C51   C57   A    
O3    Zn4   S    
C64   C70   A    
C67   C92   S    
C4    C90   S    
C35   H34   S    
C9    H13   S    
C72   C73   A    
C20   C34   S    
C2    H59   S    
C87   O10   A    
C49   H45   S    
C66   C76   S    
C59   C60   A    
C12   O5    A    
O14   Zn7   S    
C86   O16   A    
C21   C22   S    
C85   O8    A    
C93   O32   D    
C41   H38   S    
C82   H62   S    
C2    C6    S    
C67   C78   S    
O6    Zn5   S    
C9    C91   S    
C25   H29   S    
O20   Zn1   S    
C44   C46   A    
C81   C82   A    
O25   Zn3   S    
C77   C79   A    
C72   C85   S    
C5    C89   S    
C74   C75   A    
C51   C52   A    
C33   C43   S    
C47   C48   A    
C74   H57   S    
C52   C88   S    
O12   Zn4   S    
C4    C6    S    
C17   H18   S    
C18   H26   S    
C39   C40   A    
C9    C14   S    
C94   H72   S    
C68   C69   A    
O1    Zn4   S    
C59   H48   S    
C58   C59   A    
C81   H61   S    
C40   H37   S    
C17   C21   S    
C54   O31   S    
O29   H67   S    
C60   C61   A    
C92   O28   D    
C7    C11   S    
C75   C76   A    
C4    C78   S    
C29   C30   A    
C47   C57   S    
C9    C11   S    
C51   H46   S    
C14   H14   S    
O30   H68   S    
C21   C84   S    
C16   C20   S    
C87   O17   A    
C67   H1    S    
C91   H65   S    
C78   H20   S    
C15   H11   S    
C10   H10   S    
C92   H66   S    
O4    Zn2   S    
C77   H58   S    
C6    H64   S    
C16   H15   S    
O21   Zn2   S    
C58   H47   S    
C40   C41   A    
C82   C83   A    
C2    H63   S    
C13   C15   S    
C42   C43   A    
O6    Zn8   S    
C3    C56   S    
C31   O30   S    
C38   H35   S    
C52   C53   A    
C12   O20   A    
C56   O26   A    
C44   C50   A    
C25   C30   A    
C46   C47   A    
C1    O4    A    
C70   H51   S    
C18   C22   S    
C3    C67   S    
C23   C75   S    
C80   C81   A    
C84   O18   A    
O8    Zn5   S    
O2    Zn1   S    
O1    Zn1   S    
C53   C54   A    
C45   O23   A    
C44   H42   S    
C79   C94   S    
C7    H5    S    
O11   Zn6   S    
C89   H41   S    
C93   H70   S    
C3    C89   S    
O5    Zn3   S    
C64   C65   A    
C19   C20   S    
C55   C57   A    
C2    C3    S    
C25   C26   A    
O15   Zn5   S    
C38   C43   A    
C88   O11   A    
C10   O29   S    
C32   C33   A    
C46   H43   S    
C32   C87   S    
C14   H9    S    
C16   H16   S    
C38   C39   A    
C64   H52   S    
C1    O12   A    
C27   C37   S    
C48   C49   A    
O13   Zn8   S    
C29   H33   S    
O16   Zn5   S    
C33   C35   A    
C19   C24   S    
C42   H39   S    
O1    Zn3   S    
C6    H2    S    
C65   C66   A    
C15   H12   S    
C89   H3    S    
C61   C62   A    
C69   C70   A    
C34   O22   A    
C10   C11   S    
C45   O25   A    
C60   H49   S    
C79   C80   A    
C34   O3    A    
C31   C37   A    
C4    C5    S    
C71   H56   S    
C71   C72   A    
O33   H71   S    
C45   C55   S    
C24   H25   S    
C36   C37   A    
C49   C50   A    
C21   C24   S    
C30   H28   S    
C27   C28   A    
C39   H36   S    
C19   H23   S    
C86   O9    A    
O6    Zn7   S    
C62   H50   S    
C23   O2    A    
C94   O34   D    
C73   C83   S    
O24   Zn4   S    
C84   O7    A    
C1    C36   S    
