data_mof_unit_4589.cif
_audit_creation_date              2012-12-10T16:55:49-0500
_audit_creation_method            fapswitch 2.2
_symmetry_space_group_name_H-M    P1
_symmetry_Int_Tables_number       1
_space_group_crystal_system       triclinic
_cell_length_a                    14.285282
_cell_length_b                    10.854612
_cell_length_c                    9.994403
_cell_angle_alpha                 90.169098
_cell_angle_beta                  90.879741
_cell_angle_gamma                 93.356786
_cell_volume                      1546.89124815

loop_
_atom_site_label
_atom_site_type_symbol
_atom_type_description
_atom_site_fract_x
_atom_site_fract_y
_atom_site_fract_z
_atom_type_partial_charge
C1    C     C_R   0.502879 0.266121 0.499618 0.725104
C2    C     C_1   0.770686 0.500223 0.501879 -0.204149
C3    C     C_2   0.452146 0.932413 0.399379 0.402490
C4    C     C_2   0.465656 0.861913 0.508406 0.254531
C5    C     C_2   0.444784 0.066879 0.422404 -0.313857
C6    C     C_2   0.509791 0.132776 0.495386 0.330167
C7    C     C_2   0.444951 0.432264 0.926626 0.228257
C8    C     C_2   0.429335 0.461331 0.075405 0.668284
C9    C     C_R   0.331807 0.499377 0.499252 0.772653
C10   C     C_R   0.491201 0.732897 0.500617 0.695160
C11   C     C_R   0.668164 0.500197 0.500753 0.755807
C12   C     C_1   0.229274 0.499634 0.498050 -0.214777
C13   C     C_1   0.143650 0.499953 0.498235 -0.019334
C14   C     C_1   0.042801 0.500219 0.499276 -0.001594
C15   C     C_1   0.957167 0.500292 0.500393 -0.002427
C16   C     C_1   0.856313 0.500244 0.501506 -0.016018
Cu1   Cu    Cu3+1 0.500020 0.500020 0.638630 0.931028
Cu2   Cu    Cu3+1 0.499980 0.499980 0.361370 0.998911
H1    H     H_    0.385609 0.112233 0.379310 0.108258
N1    N     N_2   0.499070 0.498660 0.846910 0.001706
N2    N     N_2   0.499040 0.498630 0.153040 -0.062249
O1    O     O_R   0.500010 0.321960 0.617040 -0.594284
O2    O     O_R   0.499990 0.321920 0.382900 -0.564296
O3    O     O_R   0.376070 0.500020 0.617100 -0.566031
O4    O     O_R   0.376040 0.499980 0.382950 -0.506483
O5    O     O_R   0.500010 0.678080 0.617100 -0.565237
O6    O     O_R   0.499990 0.678040 0.382960 -0.518166
O7    O     O_R   0.623960 0.500020 0.617050 -0.594732
O8    O     O_R   0.623930 0.499980 0.382900 -0.577947
O9    O     O_3   0.445792 0.876857 0.272604 -0.619830
C17   C     C_3   0.411981 0.953430 0.170543 0.079468
H2    H     H_    0.431765 0.913960 0.072953 0.167610
H3    H     H_    0.446532 0.048027 0.172627 0.151507
C18   C     C_3   0.304497 0.953319 0.173070 -0.376600
H4    H     H_    0.274579 0.864333 0.132176 0.220221
H5    H     H_    0.279402 0.961903 0.277117 0.215792
C19   C     C_3   0.268129 0.058367 0.090159 -0.935904
H6    H     H_    0.290940 0.148408 0.136710 0.279406
H7    H     H_    0.190301 0.050299 0.085943 0.261120
H8    H     H_    0.294938 0.054521 0.986768 0.261443
O10   O     O_3   0.453535 0.911349 0.635225 -0.639674
C20   C     C_3   0.366993 0.865723 0.688923 0.081502
H9    H     H_    0.379943 0.841212 0.795244 0.183110
H10   H     H_    0.335811 0.780421 0.638775 0.125994
C21   C     C_3   0.296133 0.965919 0.683786 -0.390753
H11   H     H_    0.325049 0.048803 0.739401 0.224955
H12   H     H_    0.283354 0.992528 0.578128 0.212539
C22   C     C_3   0.203002 0.920561 0.744567 -0.915001
H13   H     H_    0.154426 0.996745 0.744953 0.261053
H14   H     H_    0.213765 0.889260 0.849085 0.263656
H15   H     H_    0.170402 0.842615 0.684592 0.259099
O11   O     O_3   0.593567 0.080813 0.530138 -0.619654
C23   C     C_3   0.614616 0.094894 0.668355 0.121230
H16   H     H_    0.630233 0.002578 0.707823 0.175623
H17   H     H_    0.555596 0.126259 0.728884 0.146982
C24   C     C_3   0.702054 0.181252 0.688696 -0.370474
H18   H     H_    0.761216 0.145192 0.632447 0.228493
H19   H     H_    0.688491 0.273839 0.649139 0.227280
C25   C     C_3   0.729689 0.192449 0.836546 -0.937852
H20   H     H_    0.671562 0.228684 0.894786 0.251822
H21   H     H_    0.792548 0.256940 0.848357 0.263614
H22   H     H_    0.746592 0.100997 0.876929 0.257893
C26   C     C_3   0.400265 0.312931 0.872323 -0.924769
H23   H     H_    0.357258 0.262906 0.947896 0.225773
H24   H     H_    0.354368 0.329768 0.784776 0.260929
H25   H     H_    0.455700 0.251080 0.844356 0.236022
O12   O     O_3   0.535179 0.607906 0.894277 -0.518252
C27   C     C_3   0.627264 0.633369 0.843893 0.296538
H26   H     H_    0.653825 0.723825 0.885237 0.068624
H27   H     H_    0.629947 0.665435 0.740995 0.164588
C28   C     C_3   0.697557 0.531767 0.876459 -0.413583
H28   H     H_    0.686867 0.491235 0.976205 0.180062
H29   H     H_    0.687298 0.449385 0.812482 0.252890
C29   C     C_3   0.799074 0.582287 0.865413 -0.932211
H30   H     H_    0.811605 0.621476 0.764374 0.264319
H31   H     H_    0.847132 0.506865 0.882337 0.264196
H32   H     H_    0.814907 0.655402 0.941749 0.252362
O13   O     O_3   0.349353 0.410957 0.136613 -0.629926
C30   C     C_3   0.267079 0.454094 0.075851 -0.014355
H33   H     H_    0.207013 0.392917 0.109567 0.179565
H34   H     H_    0.266583 0.447336 0.964892 0.145913
C31   C     C_3   0.250096 0.586806 0.118273 -0.317717
H35   H     H_    0.246219 0.592588 0.228816 0.241394
H36   H     H_    0.309000 0.650083 0.084735 0.223019
C32   C     C_3   0.158517 0.628363 0.057198 -0.943053
H37   H     H_    0.162701 0.630218 0.946301 0.262489
H38   H     H_    0.145165 0.722369 0.093290 0.253855
H39   H     H_    0.098713 0.564805 0.086940 0.263645
O14   O     O_3   0.531024 0.617439 0.129143 -0.484142
C33   C     C_3   0.629457 0.635136 0.161747 0.298550
H40   H     H_    0.664244 0.665636 0.074093 0.124284
H41   H     H_    0.666229 0.550146 0.180966 0.101732
C34   C     C_3   0.659350 0.746635 0.253340 -0.330450
H42   H     H_    0.612459 0.822824 0.234896 0.262647
H43   H     H_    0.658333 0.721471 0.360201 0.215987
C35   C     C_3   0.760347 0.796205 0.229037 -0.997573
H44   H     H_    0.809471 0.721379 0.242520 0.265642
H45   H     H_    0.779898 0.871359 0.301652 0.276857
H46   H     H_    0.767192 0.834251 0.126332 0.257714

loop_
_geom_bond_atom_site_label_1
_geom_bond_atom_site_label_2
_ccdc_geom_bond_type
C10   O6    A    
C26   H24   S    
C34   H42   S    
C18   C19   S    
O10   C20   S    
N1    O12   S    
C9    O4    A    
C7    C8    S    
N2    O14   S    
C23   H16   S    
C29   H31   S    
Cu1   O5    S    
C19   H8    S    
O9    C17   S    
C32   H39   S    
C4    O10   S    
C15   C16   S    
Cu2   N2    S    
C35   H46   S    
Cu1   N1    S    
C24   H18   S    
C18   H4    S    
C21   H12   S    
C22   H15   S    
C27   H26   S    
C29   H32   S    
C35   H45   S    
C17   H3    S    
C2    C16   T    
C10   O5    A    
C23   H17   S    
C26   H25   S    
C25   H20   S    
C34   H43   S    
C13   C14   S    
C8    O13   S    
Cu2   O4    S    
C20   H10   S    
C2    C11   S    
Cu1   Cu2   S    
C32   H38   S    
C25   H21   S    
Cu1   O3    S    
C29   H30   S    
Cu2   O2    S    
C28   H29   S    
O13   C30   S    
C21   C22   S    
C32   H37   S    
C31   H35   S    
O12   C27   S    
C20   C21   S    
C3    O9    S    
C19   H6    S    
C28   C29   S    
C33   H41   S    
C17   H2    S    
C35   H44   S    
C8    N2    D    
C17   C18   S    
Cu2   O8    S    
C7    C26   S    
C22   H13   S    
C1    O2    A    
C34   C35   S    
C31   H36   S    
C20   H9    S    
C4    C10   S    
C3    C4    D    
O11   C23   S    
C33   C34   S    
C30   H34   S    
C23   C24   S    
C25   H22   S    
Cu1   O7    S    
Cu2   O6    S    
C26   H23   S    
C3    C5    S    
C30   C31   S    
C9    O3    A    
C5    H1    S    
C31   C32   S    
Cu1   O1    S    
C24   C25   S    
C28   H28   S    
C19   H7    S    
C33   H40   S    
C5    C6    D    
C11   O7    A    
C27   C28   S    
C22   H14   S    
C24   H19   S    
C18   H5    S    
C9    C12   S    
C30   H33   S    
C21   H11   S    
C1    O1    A    
C12   C13   T    
C11   O8    A    
C27   H27   S    
C7    N1    D    
C1    C6    S    
C14   C15   T    
C6    O11   S    
O14   C33   S    
