data_mof_unit_2256.cif
_audit_creation_date              2013-03-05T16:06:00-0500
_audit_creation_method            fapswitch 2.2
_symmetry_space_group_name_H-M    P1
_symmetry_Int_Tables_number       1
_space_group_crystal_system       triclinic
_cell_length_a                    10.799322
_cell_length_b                    9.714904
_cell_length_c                    23.5612
_cell_angle_alpha                 90.21085
_cell_angle_beta                  90.107704
_cell_angle_gamma                 90.032822
_cell_volume                      2471.88708667

loop_
_atom_site_label
_atom_site_type_symbol
_atom_site_description
_atom_site_fract_x
_atom_site_fract_y
_atom_site_fract_z
_atom_type_partial_charge
O1    O     O_R   0.319640 0.618740 0.500000 -0.542285
O2    O     O_R   0.680360 0.381260 0.500000 -0.556038
O3    O     O_R   0.680360 0.618740 0.500000 -0.545191
O4    O     O_R   0.319640 0.381260 0.500000 -0.557535
C1    C     C_R   0.262696 0.499992 0.500167 0.857795
C2    C     C_R   0.737307 0.500031 0.499815 0.861278
O5    O     O_R   0.499960 0.618810 0.417880 -0.497883
O6    O     O_R   0.500040 0.381190 0.582120 -0.548621
O7    O     O_R   0.500040 0.618810 0.582120 -0.489644
O8    O     O_R   0.499960 0.381190 0.417880 -0.496676
C3    C     C_R   0.499961 0.499779 0.391552 0.932368
C4    C     C_R   0.500661 0.500195 0.608439 0.929358
Cu1   Cu    Cu3+1 0.500000 0.640660 0.500000 1.160635
Cu2   Cu    Cu3+1 0.500000 0.359340 0.500000 1.133389
C5    C     C_R   0.610737 0.494912 0.881336 0.567893
C6    C     C_R   0.390883 0.492275 0.118636 0.566786
N1    N     N_R   0.501533 0.477578 0.851753 -0.444653
N2    N     N_R   0.500253 0.476076 0.148136 -0.442450
C7    C     C_R   0.392317 0.456187 0.880567 0.568204
C8    C     C_R   0.609639 0.456254 0.119223 0.563739
C9    C     C_R   0.388939 0.464237 0.939965 -0.023311
C10   C     C_R   0.612939 0.464943 0.059865 -0.023013
C11   C     C_R   0.501082 0.472156 0.970044 -0.013039
C12   C     C_R   0.500730 0.471817 0.029823 -0.013285
C13   C     C_R   0.613548 0.481471 0.940543 -0.021892
C14   C     C_R   0.388187 0.479411 0.059366 -0.022679
C15   C     C_R   0.276475 0.464415 0.969901 -0.137092
C16   C     C_R   0.725393 0.466836 0.029935 -0.138876
C17   C     C_R   0.276070 0.476466 0.028965 -0.137774
C18   C     C_R   0.725688 0.479564 0.970932 -0.136479
O9    O     O_2   0.716228 0.528229 0.854037 -0.494884
O10   O     O_2   0.285089 0.523949 0.146092 -0.498054
O11   O     O_2   0.287224 0.425383 0.852176 -0.490907
O12   O     O_2   0.714994 0.426435 0.147473 -0.496787
H1    H     H_    0.188602 0.459597 0.947741 0.196641
H2    H     H_    0.813306 0.462854 0.052073 0.196282
H3    H     H_    0.187892 0.480547 0.050737 0.196019
H4    H     H_    0.813823 0.484967 0.949182 0.196429
C19   C     C_R   0.594288 0.553017 0.239008 -0.118004
C20   C     C_R   0.406892 0.553633 0.761130 -0.103961
H5    H     H_    0.665775 0.606389 0.215652 0.213382
H6    H     H_    0.334946 0.606162 0.784641 0.212254
C21   C     C_R   0.599564 0.554061 0.298312 0.272986
C22   C     C_R   0.401585 0.554536 0.701836 0.287044
C23   C     C_R   0.498737 0.498656 0.329381 -0.208590
C24   C     C_R   0.502660 0.500020 0.670581 -0.239761
C25   C     C_R   0.399173 0.435152 0.299965 0.375667
C26   C     C_R   0.603018 0.438071 0.699777 0.298405
C27   C     C_R   0.406425 0.418803 0.241143 -0.141717
C28   C     C_R   0.595974 0.421776 0.758564 -0.114054
H7    H     H_    0.335821 0.359858 0.219382 0.219973
H8    H     H_    0.667159 0.363814 0.780154 0.221593
C29   C     C_R   0.500605 0.482056 0.209708 0.182677
C30   C     C_R   0.501194 0.483780 0.790202 0.190292
C31   C     C_R   0.063908 0.374985 0.499975 -0.118770
C32   C     C_R   0.936080 0.625157 0.500015 -0.096421
C33   C     C_R   0.935971 0.375012 0.499598 -0.118878
C34   C     C_R   0.064066 0.625135 0.500372 -0.092318
H9    H     H_    0.111786 0.277072 0.499988 0.181570
H10   H     H_    0.888134 0.723047 0.500000 0.185949
H11   H     H_    0.887991 0.277103 0.499274 0.181985
H12   H     H_    0.112119 0.723022 0.500719 0.189297
C35   C     C_R   0.871473 0.500077 0.499726 0.007822
C36   C     C_R   0.128535 0.500027 0.500255 0.006944
C37   C     C_R   0.520311 0.070173 0.451486 0.359624
C38   C     C_R   0.514793 0.930362 0.548915 0.362542
C39   C     C_R   0.479578 0.071112 0.548539 0.281748
C40   C     C_R   0.485679 0.929214 0.451002 0.350634
N3    N     N_R   0.500000 0.852070 0.500000 -0.306673
N4    N     N_R   0.500000 0.147930 0.500000 -0.304736
N5    N     N_R   0.711238 0.604048 0.325103 0.142282
O13   O     O_R   0.707882 0.679491 0.370721 -0.302087
O14   O     O_R   0.817512 0.585425 0.300270 -0.261753
N6    N     N_R   0.289663 0.603456 0.675166 0.142925
O15   O     O_R   0.292828 0.680717 0.630293 -0.295088
O16   O     O_R   0.183352 0.582599 0.699619 -0.255809
S1    S     S_3+6 0.259001 0.386384 0.333975 0.074302
O17   O     O_2   0.199966 0.512231 0.359245 -0.280871
O18   O     O_2   0.170825 0.323276 0.291805 -0.215428
O19   O     O_3   0.285290 0.272633 0.385971 -0.470048
H13   H     H_    0.202061 0.247191 0.400062 0.372389
S2    S     S_3+6 0.743953 0.391457 0.665683 0.054066
O20   O     O_2   0.802422 0.518504 0.641495 -0.257182
O21   O     O_2   0.832061 0.328429 0.707693 -0.207441
O22   O     O_3   0.719697 0.278554 0.612771 -0.528222
H14   H     H_    0.803477 0.250259 0.600347 0.382955
S3    S     S_3+6 0.617677 0.120990 0.394334 0.105570
O23   O     O_2   0.707750 0.231324 0.411044 -0.261155
O24   O     O_2   0.691519 0.997839 0.375457 -0.239005
O25   O     O_3   0.531801 0.175634 0.339208 -0.474190
H15   H     H_    0.542830 0.105958 0.308809 0.393678
S4    S     S_3+6 0.605519 0.880239 0.608403 0.096651
O26   O     O_2   0.673585 0.004088 0.630638 -0.280451
O27   O     O_2   0.523361 0.828243 0.654991 -0.189019
O28   O     O_3   0.711362 0.760777 0.591481 -0.504128
H16   H     H_    0.788460 0.788974 0.611206 0.391229
S5    S     S_3+6 0.370804 0.115710 0.602584 0.120206
O29   O     O_2   0.293746 0.239329 0.588997 -0.265149
O30   O     O_2   0.284325 0.995601 0.609263 -0.197789
O31   O     O_3   0.441009 0.139903 0.665565 -0.429733
H17   H     H_    0.516546 0.192872 0.657096 0.377949
S6    S     S_3+6 0.394223 0.878062 0.391568 0.085062
O32   O     O_2   0.327318 0.001816 0.369026 -0.256363
O33   O     O_2   0.475395 0.823660 0.344952 -0.231599
O34   O     O_3   0.287241 0.760383 0.408888 -0.505147
H18   H     H_    0.212738 0.783976 0.386365 0.392115

loop_
_geom_bond_atom_site_label_1
_geom_bond_atom_site_label_2
_geom_bond_distance
_ccdc_geom_bond_type
C34   H12   1.083086 S    
S3    O23   1.498131 D    
C31   H9    1.082923 S    
C15   C17   1.396134 A    
O28   H16   0.990754 S    
O3    C2    1.307284 A    
S5    O29   1.496742 D    
C19   H5    1.082079 S    
S1    O17   1.500875 D    
O5    C3    1.310235 A    
C28   C30   1.402301 A    
N6    O16   1.301614 A    
O1    C1    1.307008 A    
C7    C9    1.401929 A    
C40   S6    1.781142 S    
C5    C13   1.401831 A    
C38   N3    1.387450 A    
C37   N4    1.385675 A    
C18   H4    1.083166 S    
S6    O34   1.676905 S    
C23   C25   1.417873 A    
C33   H11   1.082880 S    
O7    Cu1   1.947231 S    
C6    O10   1.349139 S    
O31   H17   0.985363 S    
N2    C29   1.451669 S    
C26   S2    1.780331 S    
C40   N3    1.387144 A    
C27   H7    1.080756 S    
C28   H8    1.080711 S    
C11   C12   1.408510 A    
C37   S3    1.781068 S    
O3    Cu1   1.959492 S    
C8    O12   1.349221 S    
C20   H6    1.082103 S    
C38   C39   1.419532 A    
C9    C15   1.405623 A    
C10   C16   1.405623 A    
Cu1   Cu2   2.732997 S    
C6    C14   1.401844 A    
Cu2   N4    2.053829 S    
O2    C2    1.307221 A    
S5    O30   1.503040 D    
C22   C24   1.419533 A    
C33   C35   1.400833 A    
S1    O18   1.503702 D    
C34   C36   1.401039 A    
C24   C26   1.418092 A    
N6    O15   1.299337 A    
C21   N5    1.443234 S    
C4    C24   1.464271 S    
C7    O11   1.349216 S    
N5    O14   1.301625 A    
O4    C1    1.307462 A    
C38   S4    1.778200 S    
C15   H1    1.083162 S    
O22   H14   0.990232 S    
S4    O28   1.676967 S    
C32   H10   1.083069 S    
C1    C36   1.448854 S    
C2    C35   1.448914 S    
C22   N6    1.442784 S    
C20   C22   1.398165 A    
O6    C4    1.309923 A    
C37   C40   1.419349 A    
C31   C36   1.400633 A    
S4    O27   1.501490 D    
C32   C35   1.400849 A    
S6    O33   1.501322 D    
C26   C28   1.396898 A    
C21   C23   1.420002 A    
C8    C10   1.401915 A    
C20   C30   1.403003 A    
C31   C33   1.381648 A    
O8    Cu2   1.947231 S    
C10   C12   1.403954 A    
C3    C23   1.464847 S    
O1    Cu1   1.959251 S    
C25   S1    1.778922 S    
S5    O31   1.680766 S    
S1    O19   1.676806 S    
C13   C18   1.405859 A    
C5    N1    1.378706 A    
O6    Cu2   1.945678 S    
C12   C14   1.403568 A    
O19   H13   0.990274 S    
C19   C21   1.398346 A    
C5    O9    1.349141 S    
C25   C27   1.396764 A    
S2    O22   1.677563 S    
O34   H18   0.990438 S    
S2    O21   1.503868 D    
C39   N4    1.385825 A    
C9    C11   1.403954 A    
N5    O13   1.299279 A    
O25   H15   0.991069 S    
C19   C29   1.403003 A    
Cu1   N3    2.053828 S    
C27   C29   1.402165 A    
C16   C18   1.396134 A    
S4    O26   1.501779 D    
N1    C7    1.378032 A    
C32   C34   1.382170 A    
N2    C8    1.378010 A    
C11   C13   1.403563 A    
O4    Cu2   1.959493 S    
S6    O32   1.501278 D    
O2    Cu2   1.959250 S    
O7    C4    1.310610 A    
O8    C3    1.310482 A    
C39   S5    1.786408 S    
O5    Cu1   1.945678 S    
C16   H2    1.083163 S    
C14   C17   1.405860 A    
C6    N2    1.378714 A    
S2    O20   1.500821 D    
S3    O25   1.682251 S    
C17   H3    1.083165 S    
S3    O24   1.504529 D    
N1    C30   1.451693 S    
