data_mof_unit_4971.cif
_audit_creation_date              2012-12-11T15:35:33-0500
_audit_creation_method            fapswitch 2.2
_symmetry_space_group_name_H-M    P1
_symmetry_Int_Tables_number       1
_space_group_crystal_system       triclinic
_cell_length_a                    17.701731
_cell_length_b                    24.466678
_cell_length_c                    14.965227
_cell_angle_alpha                 90.075558
_cell_angle_beta                  125.475328
_cell_angle_gamma                 89.95279
_cell_volume                      5278.28746505

loop_
_atom_site_label
_atom_site_type_symbol
_atom_type_description
_atom_site_fract_x
_atom_site_fract_y
_atom_site_fract_z
_atom_type_partial_charge
Br1   Br    Br    0.070677 0.879255 0.571907 -0.418303
Br2   Br    Br    0.307563 0.104512 0.458173 -0.434033
Br3   Br    Br    0.821251 0.390665 0.462587 -0.354081
Br4   Br    Br    0.840241 0.619335 0.479256 -0.390018
Br5   Br    Br    0.282455 0.884136 0.658509 -0.441716
Br6   Br    Br    0.260164 0.115414 0.644407 -0.462854
Br7   Br    Br    0.761677 0.385581 0.642015 -0.471025
Br8   Br    Br    0.781418 0.616436 0.660130 -0.433581
Br9   Br    Br    0.123134 0.908935 0.406357 -0.362961
Br10  Br    Br    0.061024 0.098575 0.610301 -0.434574
Br11  Br    Br    0.562629 0.399352 0.608002 -0.440315
Br12  Br    Br    0.065101 0.986246 0.700521 -0.413345
Br13  Br    Br    0.618750 0.593456 0.408663 -0.348415
Br14  Br    Br    0.566626 0.510283 0.703830 -0.411224
Br15  Br    Br    0.570469 0.619685 0.579228 -0.431512
Br16  Br    Br    0.963593 0.017078 0.202711 -0.436553
Br17  Br    Br    0.949338 0.116089 0.320906 -0.453315
Br18  Br    Br    0.448659 0.385520 0.316775 -0.467673
Br19  Br    Br    0.461995 0.486977 0.203481 -0.434349
Br20  Br    Br    0.352385 0.877764 0.481938 -0.330461
C1    C     C_R   0.313581 0.128134 0.908295 0.009827
C2    C     C_R   0.562326 0.150139 0.908848 -0.155465
C3    C     C_R   0.266448 0.545506 0.247710 -0.104360
C4    C     C_R   0.061072 0.349484 0.908732 -0.105729
C5    C     C_R   0.059772 0.651290 0.909665 -0.110964
C6    C     C_R   0.434718 0.998276 0.631675 0.131404
C7    C     C_R   0.934551 0.501210 0.631783 0.130500
C8    C     C_R   0.822888 0.000772 0.278981 0.150518
C9    C     C_R   0.322932 0.499195 0.282150 0.111617
C10   C     C_R   0.623973 0.180011 0.000764 0.080318
C11   C     C_R   0.620026 0.818453 0.000793 -0.003172
C12   C     C_R   0.119022 0.681966 0.001638 -0.000953
C13   C     C_R   0.314060 0.871177 0.908001 0.027874
C14   C     C_R   0.122061 0.319383 0.000267 -0.005495
C15   C     C_3   0.064479 0.937285 0.475669 0.637733
C16   C     C_3   0.041526 0.020973 0.568692 0.580401
C17   C     C_3   0.542343 0.477379 0.570101 0.582285
C18   C     C_3   0.563186 0.563082 0.479796 0.637809
C19   C     C_3   0.961114 0.941367 0.381412 -0.564804
C20   C     C_3   0.938248 0.016244 0.474230 -0.505468
C21   C     C_3   0.438807 0.482020 0.476600 -0.506323
C22   C     C_3   0.459708 0.559020 0.386892 -0.556774
C23   C     C_3   0.086815 0.033908 0.436446 -0.442074
C24   C     C_R   0.813095 0.627630 0.908522 0.008388
C25   C     C_3   0.586410 0.467417 0.436123 -0.446527
C26   C     C_3   0.102388 0.996552 0.530326 -0.128412
C27   C     C_3   0.602155 0.503481 0.531715 -0.128463
C28   C     C_3   0.924642 0.000390 0.365440 0.009613
C29   C     C_3   0.424373 0.499684 0.368275 0.012747
C30   C     C_R   0.410860 0.866884 0.092515 -0.159088
C31   C     C_R   0.410359 0.132557 0.092703 -0.135604
C32   C     C_R   0.909647 0.368719 0.092985 -0.158813
C33   C     C_R   0.909278 0.631264 0.092890 -0.121878
C34   C     C_3   0.982333 0.038332 0.340353 0.573916
C35   C     C_R   0.813322 0.372116 0.908427 0.015803
C36   C     C_3   0.481815 0.463266 0.340439 0.576065
C37   C     C_R   0.170265 0.818087 0.937183 0.373295
C38   C     C_R   0.170972 0.181588 0.941066 0.382994
C39   C     C_R   0.669378 0.317818 0.937002 0.379426
C40   C     C_R   0.668455 0.681505 0.936066 0.376554
C41   C     C_R   0.618621 0.273933 0.938576 0.370002
C42   C     C_R   0.616984 0.724939 0.937850 0.393593
C43   C     C_R   0.117586 0.774318 0.935058 0.391407
C44   C     C_R   0.119774 0.225106 0.942807 0.398263
C45   C     C_R   0.668393 0.228831 0.004738 0.015354
C46   C     C_R   0.648428 0.150374 0.091156 0.455178
C47   C     C_R   0.665910 0.770441 0.003321 -0.012811
C48   C     C_R   0.165459 0.730010 0.005313 -0.013452
C49   C     C_R   0.168388 0.272116 0.001821 -0.033925
C50   C     C_R   0.764563 0.227559 0.073900 -0.124398
C51   C     C_R   0.762172 0.772861 0.070251 -0.230363
C52   C     C_R   0.261831 0.727237 0.073471 -0.226110
C53   C     C_R   0.264239 0.276420 0.062112 -0.205337
C54   C     C_R   0.312406 0.767982 0.071213 -0.172465
C55   C     C_R   0.313968 0.233723 0.064211 -0.186761
C56   C     C_R   0.813461 0.270353 0.075070 -0.200130
C57   C     C_R   0.646380 0.849198 0.091467 0.452246
C58   C     C_R   0.811822 0.730183 0.072150 -0.185668
C59   C     C_R   0.267245 0.812815 0.003271 -0.008535
C60   C     C_R   0.267850 0.186888 0.003895 -0.009723
C61   C     C_R   0.766657 0.314787 0.006125 -0.014484
C62   C     C_R   0.765708 0.685071 0.005040 0.008222
C63   C     C_R   0.387538 0.947789 0.458319 0.313964
C64   C     C_R   0.379903 0.046388 0.456824 0.159802
C65   C     C_R   0.879736 0.454538 0.454032 0.287670
C66   C     C_R   0.890374 0.553140 0.463316 0.193996
C67   C     C_R   0.396374 0.950083 0.372155 0.395367
C68   C     C_R   0.145538 0.650956 0.091880 0.450583
C69   C     C_R   0.400508 0.048781 0.379787 0.447869
C70   C     C_R   0.894470 0.454736 0.372516 0.411279
C71   C     C_R   0.909403 0.553162 0.385033 0.430066
C72   C     C_R   0.423030 0.999905 0.350853 -0.246414
C73   C     C_R   0.927299 0.503031 0.354729 -0.248390
C74   C     C_R   0.500001 0.045424 0.269517 -0.046191
C75   C     C_R   0.500739 0.954935 0.270367 -0.151486
C76   C     C_R   0.004961 0.545910 0.273357 -0.029937
C77   C     C_R   0.002346 0.455490 0.272549 -0.155933
C78   C     C_R   0.394819 0.996922 0.513150 -0.200315
C79   C     C_R   0.148309 0.349714 0.091343 0.485138
C80   C     C_R   0.895006 0.503073 0.513540 -0.206492
C81   C     C_R   0.252624 0.952590 0.694504 0.356346
C82   C     C_R   0.250850 0.044202 0.691317 0.337291
C83   C     C_R   0.750982 0.455916 0.691051 0.334338
C84   C     C_R   0.752449 0.547496 0.694997 0.359903
C85   C     C_R   0.323833 0.146323 0.001874 0.147717
C86   C     C_R   0.324622 0.852523 0.001420 0.113635
C87   C     C_R   0.822674 0.645189 0.002173 0.129327
C88   C     C_R   0.823116 0.354623 0.002353 0.127721
C89   C     C_R   0.473264 0.000249 0.300169 0.154499
C90   C     C_R   0.560140 0.848941 0.909151 -0.107428
C91   C     C_R   0.977795 0.501406 0.304557 0.142915
C92   C     C_R   0.204195 0.997366 0.626667 -0.052833
C93   C     C_R   0.704110 0.502784 0.627010 -0.054349
C94   C     C_R   0.452310 0.044287 0.696172 -0.080495
C95   C     C_R   0.456866 0.953990 0.699943 -0.073534
C96   C     C_R   0.956628 0.545731 0.699828 -0.063076
C97   C     C_R   0.952651 0.455403 0.696516 -0.089027
C98   C     C_R   0.766344 0.954529 0.246135 -0.100972
C99   C     C_R   0.767092 0.046384 0.252461 -0.146039
C100  C     C_R   0.267271 0.453505 0.255045 -0.084806
H1    H     H_    0.256180 0.135685 0.824459 0.191445
H2    H     H_    0.900655 0.054752 0.463952 0.226713
H3    H     H_    0.401845 0.443086 0.464937 0.227685
H4    H     H_    0.442303 0.576663 0.308587 0.232869
H5    H     H_    0.128509 0.019567 0.407351 0.253752
H6    H     H_    0.113589 0.075130 0.467213 0.277938
H7    H     H_    0.613538 0.426029 0.465069 0.275486
H8    H     H_    0.627668 0.482800 0.407208 0.250015
H9    H     H_    0.802243 0.192139 0.123802 0.202777
H10   H     H_    0.799235 0.808724 0.119116 0.174969
H11   H     H_    0.298317 0.691869 0.124476 0.175854
H12   H     H_    0.256584 0.863777 0.823971 0.191282
H13   H     H_    0.300524 0.313500 0.105987 0.206883
H14   H     H_    0.387159 0.763412 0.120339 0.174212
H15   H     H_    0.388492 0.238374 0.109224 0.182000
H16   H     H_    0.888392 0.266903 0.125509 0.182560
H17   H     H_    0.886699 0.734031 0.121943 0.170511
H18   H     H_    0.443170 0.852855 0.175316 0.140745
H19   H     H_    0.442740 0.147315 0.175129 0.136022
H20   H     H_    0.941568 0.355264 0.175983 0.140537
H21   H     H_    0.940665 0.644679 0.175875 0.139796
H22   H     H_    0.506524 0.086801 0.296747 0.151730
H23   H     H_    0.755474 0.635047 0.824672 0.193318
H24   H     H_    0.506566 0.913599 0.297796 0.163099
H25   H     H_    0.015922 0.587183 0.302684 0.150365
H26   H     H_    0.007274 0.414301 0.300309 0.162105
H27   H     H_    0.440115 0.086440 0.671063 0.178601
H28   H     H_    0.451745 0.911312 0.681676 0.178433
H29   H     H_    0.951529 0.588395 0.681122 0.176899
H30   H     H_    0.941665 0.413136 0.672613 0.179536
H31   H     H_    0.785502 0.912249 0.252852 0.158625
H32   H     H_    0.787433 0.088222 0.273291 0.185182
H33   H     H_    0.287577 0.411727 0.277637 0.207594
H34   H     H_    0.756115 0.364461 0.824421 0.193217
H35   H     H_    0.285651 0.587823 0.254945 0.163070
H36   H     H_    0.521572 0.836002 0.824360 0.184705
H37   H     H_    0.523805 0.163045 0.824086 0.182095
H38   H     H_    0.022636 0.336676 0.823857 0.177520
H39   H     H_    0.021502 0.664122 0.824894 0.182956
H40   H     H_    0.069993 0.871216 0.866517 0.355444
H41   H     H_    0.066267 0.143382 0.816342 0.359953
H42   H     H_    0.565698 0.352122 0.804699 0.361859
H43   H     H_    0.566061 0.647224 0.802627 0.360395
H44   H     H_    0.501049 0.312016 0.869582 0.346416
H45   H     H_    0.921743 0.914593 0.400503 0.214522
H46   H     H_    0.500247 0.685781 0.868319 0.343887
H47   H     H_    0.000614 0.795098 0.800091 0.347061
H48   H     H_    0.006172 0.184460 0.886235 0.342539
H49   H     H_    0.348872 0.915787 0.232897 0.329667
H50   H     H_    0.400319 0.128243 0.373273 0.359955
H51   H     H_    0.848729 0.420047 0.234092 0.330702
H52   H     H_    0.925489 0.631639 0.383652 0.354031
H53   H     H_    0.672007 0.146757 0.233373 0.313308
H54   H     H_    0.698716 0.790934 0.198388 0.343937
H55   H     H_    0.196317 0.709129 0.199234 0.346259
H56   H     H_    0.904615 0.984962 0.494343 0.217673
H57   H     H_    0.205268 0.291666 0.198439 0.345795
H58   H     H_    0.405052 0.512269 0.498605 0.217468
H59   H     H_    0.420397 0.584467 0.408301 0.215524
H60   H     H_    0.945054 0.925130 0.302720 0.234074
N1    N     N_R   0.392140 0.102630 0.941800 -0.056556
N2    N     N_R   0.525160 0.972040 0.206160 -0.045554
N3    N     N_R   0.025160 0.527960 0.206160 -0.063335
N4    N     N_R   0.025160 0.472040 0.206160 -0.049914
N5    N     N_R   0.317870 0.971120 0.792790 -0.102180
N6    N     N_R   0.317870 0.028880 0.792790 -0.095872
N7    N     N_R   0.817870 0.471120 0.792790 -0.096731
N8    N     N_R   0.817870 0.528880 0.792790 -0.102324
N9    N     N_R   0.473480 0.027920 0.793480 -0.059429
N10   N     N_R   0.473480 0.972080 0.793480 -0.061412
N11   N     N_R   0.973480 0.527920 0.793480 -0.062698
N12   N     N_R   0.392140 0.897370 0.941800 -0.060788
N13   N     N_R   0.973480 0.472080 0.793480 -0.061511
N14   N     N_R   0.681610 0.971120 0.207570 -0.039190
N15   N     N_R   0.681610 0.028880 0.207570 -0.068739
N16   N     N_R   0.181610 0.471120 0.207570 -0.054139
N17   N     N_R   0.181610 0.528880 0.207570 -0.048122
N18   N     N_R   0.605410 0.102620 0.056870 -0.114362
N19   N     N_R   0.605410 0.897380 0.056870 -0.079349
N20   N     N_R   0.105410 0.602620 0.056870 -0.080442
N21   N     N_R   0.105410 0.397380 0.056870 -0.081836
N22   N     N_R   0.549680 0.896430 0.944180 -0.084951
N23   N     N_R   0.892140 0.602630 0.941800 -0.060580
N24   N     N_R   0.549680 0.103570 0.944180 -0.075165
N25   N     N_R   0.049680 0.396430 0.944180 -0.086378
N26   N     N_R   0.049680 0.603570 0.944180 -0.084408
N27   N     N_R   0.892140 0.397370 0.941800 -0.060958
N28   N     N_R   0.450890 0.896450 0.057150 -0.046548
N29   N     N_R   0.450890 0.103550 0.057150 -0.064708
N30   N     N_R   0.950890 0.396450 0.057150 -0.049383
N31   N     N_R   0.950890 0.603550 0.057150 -0.056841
N32   N     N_R   0.525160 0.027960 0.206160 -0.068222
Ni1   Ni    Ni4+2 0.433410 0.064680 0.868830 0.276970
Ni2   Ni    Ni4+2 0.433410 0.935320 0.868830 0.279713
Ni3   Ni    Ni4+2 0.933410 0.564680 0.868830 0.276755
Ni4   Ni    Ni4+2 0.933410 0.435320 0.868830 0.272605
Ni5   Ni    Ni4+2 0.565650 0.934380 0.131170 0.288248
Ni6   Ni    Ni4+2 0.565650 0.065620 0.131170 0.224686
Ni7   Ni    Ni4+2 0.065650 0.434380 0.131170 0.284137
Ni8   Ni    Ni4+2 0.065650 0.565620 0.131170 0.279125
O1    O     O_3   0.130856 0.865885 0.878948 -0.697872
O2    O     O_3   0.392564 0.096868 0.326809 -0.734160
O3    O     O_3   0.873007 0.408311 0.309679 -0.684689
O4    O     O_3   0.903891 0.600606 0.331792 -0.734987
O5    O     O_3   0.684981 0.172673 0.192984 -0.709251
O6    O     O_3   0.686428 0.830560 0.196764 -0.752034
O7    O     O_3   0.185061 0.669347 0.197303 -0.753948
O8    O     O_3   0.189903 0.330771 0.196692 -0.745128
O9    O     O_3   0.130145 0.134693 0.879791 -0.698483
O10   O     O_3   0.627776 0.362743 0.869547 -0.698097
O11   O     O_3   0.627443 0.636462 0.868602 -0.697296
O12   O     O_3   0.523055 0.273814 0.879732 -0.725436
O13   O     O_3   0.521486 0.724201 0.879963 -0.725488
O14   O     O_3   0.021853 0.772862 0.865960 -0.727651
O15   O     O_3   0.025050 0.223052 0.891422 -0.725395
O16   O     O_3   0.376540 0.903832 0.309312 -0.693495

loop_
_geom_bond_atom_site_label_1
_geom_bond_atom_site_label_2
_ccdc_geom_bond_type
Br19  C36   S    
N26   Ni3   S    
C35   H34   S    
C63   C67   A    
C46   N18   A    
C74   N32   A    
N3    Ni8   S    
H49   O16   S    
C3    H35   S    
H47   O14   S    
C40   O11   S    
C53   C55   A    
C77   H26   S    
C37   C59   A    
Br2   C64   S    
N19   Ni5   S    
C23   H5    S    
C6    C94   A    
C19   H60   S    
C56   H16   S    
C22   H4    S    
C37   O1    S    
C28   C34   S    
C81   C92   A    
C11   C47   S    
C76   H25   S    
N14   N15   A    
C82   N6    A    
C42   C47   A    
C70   C73   A    
C13   N12   A    
N29   Ni6   S    
C3    C9    A    
N1    N29   A    
C83   C93   A    
H57   O8    S    
C94   H27   S    
C18   C22   S    
H43   O11   S    
C66   C71   A    
C17   C21   S    
C77   C91   A    
C55   H15   S    
C72   C89   S    
C68   O7    S    
Br4   C66   S    
C25   H8    S    
C45   C50   A    
C12   C68   A    
N6    Ni1   S    
C54   H14   S    
C4    N25   A    
C99   H32   S    
C41   O12   S    
H55   O7    S    
N5    Ni2   S    
C40   C42   A    
N12   Ni2   S    
Br11  C17   S    
N19   N22   A    
C58   C62   A    
C6    C95   A    
C100  H33   S    
N11   Ni3   S    
H50   O2    S    
C95   N10   A    
C40   C62   A    
C77   N4    A    
N4    Ni7   S    
C25   C36   S    
C63   C78   A    
C90   N22   A    
C5    H39   S    
N27   N30   A    
C49   C53   A    
C97   H30   S    
C30   C86   A    
C17   C27   S    
N17   Ni8   S    
C66   C80   A    
C55   C60   A    
C99   N15   A    
C79   O8    S    
Br18  C36   S    
C12   C48   S    
N14   Ni5   S    
C7    C96   A    
H46   O13   S    
C25   C27   S    
C82   C92   A    
C61   C88   S    
C57   O6    S    
C42   O13   S    
Br7   C83   S    
C67   C72   A    
C79   N21   A    
C32   N30   A    
N12   N28   A    
N23   N31   A    
N18   Ni6   S    
C81   N5    A    
C23   H6    S    
C21   C29   S    
C96   H29   S    
C76   C91   A    
N8    Ni3   S    
C11   C57   A    
C4    H38   S    
C7    C97   A    
C38   C44   A    
C84   N8    A    
C9    C100  A    
Br5   C81   S    
C7    C80   S    
C39   C41   A    
C47   C51   A    
C74   H22   S    
C21   H58   S    
C16   C20   S    
C83   N7    A    
N25   Ni4   S    
C44   O15   S    
C52   C54   A    
C75   C89   A    
C69   O2    S    
C20   H56   S    
C9    C29   S    
C44   C49   A    
C60   C85   S    
C50   H9    S    
C4    C14   A    
C67   O16   S    
C59   C86   S    
C19   H45   S    
C15   C19   S    
N3    N4    A    
N11   N13   A    
Br15  C18   S    
H52   O4    S    
C24   N23   A    
C52   H11   S    
C57   N19   A    
C33   C87   A    
C23   C34   S    
N24   Ni1   S    
C22   H59   S    
C48   C52   A    
N2    N32   A    
C14   C79   A    
Br13  C18   S    
N9    N10   A    
C100  N16   A    
C62   C87   S    
N22   Ni2   S    
C69   C72   A    
C16   C26   S    
C90   H36   S    
Br8   C84   S    
C14   C49   S    
N21   Ni7   S    
C18   C27   S    
H42   O10   S    
N9    Ni1   S    
C6    C78   S    
H48   O15   S    
H41   O9    S    
C10   C46   A    
C13   H12   S    
C96   N11   A    
C53   H13   S    
C54   C59   A    
N10   Ni2   S    
N18   N24   A    
N20   Ni8   S    
C75   H24   S    
Br3   C65   S    
Br12  C16   S    
C64   C69   A    
N7    Ni4   S    
C76   N3    A    
C26   C92   S    
C5    N26   A    
C58   H17   S    
N16   Ni7   S    
C20   H2    S    
Br1   C15   S    
N13   Ni4   S    
Br9   C15   S    
C24   C87   A    
N23   Ni3   S    
N28   Ni5   S    
C27   C93   S    
C3    N17   A    
C20   C28   S    
C8    C28   S    
N20   N26   A    
C33   N31   A    
C2    C10   A    
C71   C73   A    
N31   Ni8   S    
C13   C86   A    
C39   C61   A    
C37   C43   A    
N16   N17   A    
C8    C99   A    
C56   C61   A    
H51   O3    S    
C65   C70   A    
C30   H18   S    
C75   N2    A    
C2    H37   S    
C38   C60   A    
C31   N29   A    
C29   C36   S    
C35   N27   A    
C1    N1    A    
C74   C89   A    
C2    N24   A    
C35   C88   A    
H44   O12   S    
C64   C78   A    
C21   H3    S    
H54   O6    S    
N7    N8    A    
C73   C91   S    
C65   C80   A    
H53   O5    S    
C43   O14   S    
C50   C56   A    
C15   C26   S    
C68   N20   A    
N5    N6    A    
N32   Ni6   S    
C25   H7    S    
C24   H23   S    
C38   O9    S    
C95   H28   S    
C46   O5    S    
N27   Ni4   S    
C32   H20   S    
C11   C90   A    
Br10  C16   S    
H40   O1    S    
C33   H21   S    
C8    C98   A    
Br6   C82   S    
C1    H1    S    
C98   H31   S    
C98   N14   A    
C23   C26   S    
Br16  C34   S    
C31   C85   A    
C10   C45   S    
C97   N13   A    
N30   Ni7   S    
C22   C29   S    
C84   C93   A    
C41   C45   A    
C70   O3    S    
C32   C88   A    
N2    Ni5   S    
Br14  C17   S    
Br20  C63   S    
C94   N9    A    
N21   N25   A    
C43   C48   A    
N1    Ni1   S    
C71   O4    S    
C39   O10   S    
Br17  C34   S    
C51   C58   A    
C1    C85   A    
N15   Ni6   S    
C30   N28   A    
C19   C28   S    
C51   H10   S    
C5    C12   A    
C31   H19   S    
