data_mof_unit_303.cif
_audit_creation_date              2012-12-11T14:17:41-0500
_audit_creation_method            fapswitch 2.2
_symmetry_space_group_name_H-M    P1
_symmetry_Int_Tables_number       1
_space_group_crystal_system       triclinic
_cell_length_a                    11.17389
_cell_length_b                    11.179781
_cell_length_c                    18.737627
_cell_angle_alpha                 89.817542
_cell_angle_beta                  90.10916
_cell_angle_gamma                 119.966579
_cell_volume                      2027.80802839

loop_
_atom_site_label
_atom_site_type_symbol
_atom_type_description
_atom_site_fract_x
_atom_site_fract_y
_atom_site_fract_z
_atom_type_partial_charge
C1    C     C_R   0.517748 0.460541 0.149049 0.535883
C2    C     C_R   0.540107 0.059091 0.148392 0.537286
C3    C     C_R   0.935464 0.479836 0.147169 0.536161
C4    C     C_R   0.453137 0.522027 0.854841 0.528005
C5    C     C_R   0.067905 0.546096 0.853425 0.528626
C6    C     C_R   0.478772 0.933010 0.854125 0.535370
C7    C     C_R   0.399670 0.011965 0.463332 0.376442
C8    C     C_R   0.988164 0.387903 0.463675 0.375718
C9    C     C_R   0.612181 0.599909 0.463421 0.377417
C10   C     C_R   0.011933 0.399810 0.536787 0.376981
C11   C     C_R   0.387888 0.988445 0.536485 0.376125
C12   C     C_R   0.600177 0.611993 0.536489 0.377227
C13   C     C_R   0.747241 0.065787 0.567109 0.328731
C14   C     C_R   0.934469 0.681606 0.566686 0.329859
C15   C     C_R   0.318612 0.252795 0.567380 0.329594
C16   C     C_R   0.065502 0.747141 0.432805 0.328944
C17   C     C_R   0.681690 0.934607 0.433428 0.329171
C18   C     C_R   0.253000 0.318030 0.433237 0.329037
C19   C     C_R   0.838522 0.035662 0.532873 -0.001441
C20   C     C_R   0.964758 0.803026 0.532184 -0.001316
C21   C     C_R   0.197267 0.161509 0.533029 -0.001701
C22   C     C_R   0.035721 0.838522 0.467137 -0.002127
C23   C     C_R   0.803032 0.964683 0.467910 -0.001731
C24   C     C_R   0.161712 0.196926 0.467873 -0.002564
C25   C     C_R   0.519030 0.457159 0.353732 0.624926
C26   C     C_R   0.542682 0.061617 0.353713 0.625006
C27   C     C_R   0.938365 0.480947 0.353708 0.625533
C28   C     C_R   0.457337 0.519046 0.646319 0.623728
C29   C     C_R   0.061681 0.542769 0.646306 0.621005
C30   C     C_R   0.481029 0.938502 0.646317 0.624518
C31   C     C_R   0.491828 0.972922 0.929274 0.003942
C32   C     C_R   0.027191 0.517505 0.927030 0.019743
C33   C     C_R   0.477485 0.510733 0.930865 -0.006215
C34   C     C_R   0.966811 0.488405 0.071901 0.023895
C35   C     C_R   0.493086 0.990900 0.078635 0.000044
C36   C     C_R   0.493566 0.509393 0.080334 -0.000665
C37   C     C_R   0.396737 0.003127 0.963016 0.016548
C38   C     C_R   0.888476 0.449627 0.947811 0.015859
C39   C     C_R   0.603164 0.603719 0.965114 0.022404
C40   C     C_R   0.857345 0.434404 0.021392 0.031017
C41   C     C_R   0.388334 0.998728 0.038584 0.013122
C42   C     C_R   0.605360 0.613379 0.040467 0.024939
C43   C     C_R   0.582375 0.956894 0.044006 -0.148475
C44   C     C_R   0.103954 0.554463 0.049855 -0.154714
C45   C     C_R   0.368847 0.423640 0.045883 -0.161900
C46   C     C_R   0.133926 0.568725 0.977636 -0.138062
C47   C     C_R   0.581619 0.947771 0.970904 -0.144760
C48   C     C_R   0.360496 0.425727 0.972526 -0.165596
C49   C     C_R   0.314947 0.044741 0.923934 -0.093984
C50   C     C_R   0.780706 0.398354 0.897129 -0.098433
C51   C     C_R   0.727417 0.685371 0.927093 -0.086156
C52   C     C_R   0.717566 0.368203 0.042431 -0.084816
C53   C     C_R   0.281455 0.012280 0.071052 -0.074824
C54   C     C_R   0.721078 0.723970 0.073451 -0.087933
C55   C     C_R   0.220775 0.071690 0.958284 -0.140530
C56   C     C_R   0.643815 0.334833 0.919279 -0.117286
C57   C     C_R   0.844583 0.786590 0.961851 -0.119325
C58   C     C_R   0.612782 0.321069 0.991742 -0.123352
C59   C     C_R   0.203439 0.054479 0.031574 -0.136580
C60   C     C_R   0.839277 0.808869 0.034416 -0.125831
C61   C     C_R   0.501181 0.999452 0.574802 0.005746
C62   C     C_R   0.000884 0.502092 0.574829 0.005923
C63   C     C_R   0.497998 0.498861 0.574879 0.006000
C64   C     C_R   0.999093 0.501075 0.425250 0.006163
C65   C     C_R   0.502000 0.000898 0.425256 0.006076
C66   C     C_R   0.498984 0.497568 0.425247 0.006078
C67   C     C_R   0.617382 0.020949 0.535984 -0.091667
C68   C     C_R   0.979204 0.596587 0.535748 -0.091299
C69   C     C_R   0.403528 0.382556 0.536116 -0.091172
C70   C     C_R   0.020513 0.617232 0.463987 -0.091025
C71   C     C_R   0.596679 0.979460 0.464311 -0.091452
C72   C     C_R   0.382886 0.402968 0.464233 -0.091793
Cr1   Cr    Cr6+3 0.768550 0.541320 0.250660 1.112683
Cr2   Cr    Cr6+3 0.458680 0.227230 0.250660 1.108802
Cr3   Cr    Cr6+3 0.772770 0.231450 0.250660 1.123366
Cr4   Cr    Cr6+3 0.541320 0.768550 0.749340 1.118883
Cr5   Cr    Cr6+3 0.227230 0.458680 0.749340 1.121995
Cr6   Cr    Cr6+3 0.231450 0.772770 0.749340 1.117728
H1    H     H_    0.660078 0.945889 0.073196 0.149537
H2    H     H_    0.187420 0.596441 0.088427 0.134402
H3    H     H_    0.279235 0.348264 0.075338 0.152248
H4    H     H_    0.241195 0.622612 0.960904 0.124747
H5    H     H_    0.652710 0.920056 0.947148 0.160336
H6    H     H_    0.260656 0.359021 0.948536 0.150650
H7    H     H_    0.328521 0.065566 0.867318 0.156420
H8    H     H_    0.801492 0.408346 0.840357 0.151904
H9    H     H_    0.736743 0.669875 0.870943 0.157902
H10   H     H_    0.687826 0.353698 0.097936 0.142242
H11   H     H_    0.256753 0.991179 0.127012 0.162900
H12   H     H_    0.720439 0.747953 0.129259 0.155380
H13   H     H_    0.161095 0.106151 0.927885 0.122918
H14   H     H_    0.561789 0.298243 0.880130 0.135141
H15   H     H_    0.938605 0.849351 0.932107 0.137366
H16   H     H_    0.506965 0.275700 0.009032 0.148122
H17   H     H_    0.131784 0.077494 0.058326 0.108568
H18   H     H_    0.926932 0.890328 0.061419 0.119481
H19   H     H_    0.934575 0.064722 0.558537 0.156491
H20   H     H_    0.935744 0.869963 0.557699 0.155535
H21   H     H_    0.130310 0.065517 0.558750 0.157192
H22   H     H_    0.064986 0.934675 0.441487 0.157146
H23   H     H_    0.869920 0.935493 0.442436 0.155505
H24   H     H_    0.065554 0.130119 0.442384 0.155995
O1    O     O_R   0.910960 0.572410 0.171010 -0.501888
O2    O     O_R   0.427590 0.338550 0.171010 -0.511771
O3    O     O_R   0.661450 0.089040 0.171010 -0.508311
O4    O     O_R   0.572410 0.910960 0.828990 -0.506765
O5    O     O_R   0.338550 0.427590 0.828990 -0.513579
O6    O     O_R   0.089040 0.661450 0.828990 -0.503978
O7    O     O_R   0.639750 0.528530 0.175600 -0.520911
O8    O     O_R   0.471470 0.111220 0.175600 -0.523795
O9    O     O_R   0.888780 0.360250 0.175600 -0.503913
O10   O     O_R   0.528530 0.639750 0.824400 -0.514759
O11   O     O_R   0.111220 0.471470 0.824400 -0.504356
O12   O     O_R   0.360250 0.888780 0.824400 -0.514144
O13   O     O_R   0.909330 0.572400 0.331540 -0.457696
O14   O     O_R   0.427600 0.336930 0.331540 -0.456178
O15   O     O_R   0.663070 0.090670 0.331540 -0.457259
O16   O     O_R   0.572400 0.909330 0.668460 -0.456312
O17   O     O_R   0.336930 0.427600 0.668460 -0.456327
O18   O     O_R   0.090670 0.663070 0.668460 -0.458479
O19   O     O_R   0.638240 0.528520 0.324410 -0.421579
O20   O     O_R   0.471480 0.109720 0.324410 -0.420453
O21   O     O_R   0.890280 0.361760 0.324410 -0.419355
O22   O     O_R   0.528520 0.638240 0.675590 -0.421033
O23   O     O_R   0.109720 0.471480 0.675590 -0.420378
O24   O     O_R   0.361760 0.890280 0.675590 -0.421361
O25   O     O_3   0.666667 0.333333 0.250630 -0.333999
O26   O     O_3   0.333333 0.666667 0.749370 -0.328227
F1    F     F_    0.316012 0.050595 0.430990 -0.616325
F2    F     F_    0.949627 0.265746 0.431675 -0.616738
F3    F     F_    0.734425 0.683541 0.431241 -0.615802
F4    F     F_    0.050733 0.316259 0.569113 -0.615586
F5    F     F_    0.265669 0.949858 0.568623 -0.616934
F6    F     F_    0.683639 0.734268 0.568470 -0.616076
Cl1   Cl    Cl    0.800059 0.164944 0.646553 -0.509957
Cl2   Cl    Cl    0.835194 0.635254 0.646230 -0.519364
Cl3   Cl    Cl    0.365135 0.199869 0.647029 -0.518187
Cl4   Cl    Cl    0.164893 0.800172 0.353320 -0.510850
Cl5   Cl    Cl    0.635374 0.835372 0.354012 -0.512486
Cl6   Cl    Cl    0.199743 0.364447 0.353678 -0.506539

loop_
_geom_bond_atom_site_label_1
_geom_bond_atom_site_label_2
_ccdc_geom_bond_type
C2    C35   S    
C39   C51   A    
C30   O24   A    
C29   O23   A    
C19   C23   A    
Cr3   O15   S    
C26   O15   A    
Cr6   O26   S    
C53   C59   A    
C54   C60   A    
C7    C11   A    
C17   C23   A    
C34   C40   A    
C38   C40   A    
C54   H12   S    
C55   C59   A    
C32   C38   A    
C11   F5    S    
C21   H21   S    
C4    C33   S    
C43   H1    S    
Cr6   O6    S    
C9    C66   A    
C6    O12   A    
C55   H13   S    
C1    O7    A    
C46   H4    S    
C36   C42   A    
C66   C72   A    
C63   C69   A    
C3    O9    A    
Cr1   O1    S    
C16   C22   A    
C51   C57   A    
C64   C70   A    
C35   C43   A    
C24   H24   S    
C5    C32   S    
C6    C31   S    
C4    O10   A    
C57   H15   S    
C18   C72   A    
C13   Cl1   S    
C10   C62   A    
C59   H17   S    
Cr5   O11   S    
C29   O18   A    
C44   C46   A    
C39   C42   A    
C9    F3    S    
C19   H19   S    
C15   C69   A    
C4    O5    A    
C45   H3    S    
C22   H22   S    
C13   C19   A    
Cr4   O22   S    
C49   H7    S    
Cr5   O5    S    
C34   C44   A    
C18   C24   A    
C25   O14   A    
C51   H9    S    
C12   C63   A    
C27   O21   A    
C57   C60   A    
C30   O16   A    
C3    C34   S    
Cr5   O17   S    
Cr1   O25   S    
Cr4   O16   S    
C31   C37   A    
C69   C72   A    
Cr6   O18   S    
C14   C20   A    
C7    C65   A    
C37   C49   A    
C61   C67   A    
Cr2   O25   S    
C44   H2    S    
Cr4   O10   S    
Cr2   O14   S    
C6    O4    A    
C16   C70   A    
C36   C45   A    
C17   Cl5   S    
C33   C39   A    
C18   Cl6   S    
C1    O2    A    
C41   C53   A    
Cr5   O26   S    
C52   C58   A    
C8    C64   A    
C60   H18   S    
C68   C70   A    
Cr2   O20   S    
C20   C22   A    
C17   C71   A    
Cr1   O19   S    
C8    F2    S    
Cr4   O26   S    
Cr3   O21   S    
C21   C24   A    
Cr6   O24   S    
Cr5   O23   S    
Cr2   O2    S    
C13   C67   A    
C45   C48   A    
C3    O1    A    
C29   C62   S    
Cr6   O12   S    
Cr4   O4    S    
C5    O11   A    
C26   C65   S    
C32   C46   A    
C16   Cl4   S    
C25   C66   S    
C43   C47   A    
C11   C61   A    
C28   O17   A    
Cr2   O8    S    
C28   O22   A    
Cr1   O7    S    
C31   C47   A    
C38   C50   A    
C2    O3    A    
Cr3   O9    S    
Cr1   O13   S    
C62   C68   A    
C58   H16   S    
C40   C52   A    
C50   C56   A    
C42   C54   A    
C53   H11   S    
Cr3   O25   S    
C23   H23   S    
C14   Cl2   S    
C52   H10   S    
C56   C58   A    
C67   C71   A    
C65   C71   A    
C49   C55   A    
C37   C41   A    
C35   C41   A    
C9    C12   A    
C10   F4    S    
C7    F1    S    
C27   C64   S    
C50   H8    S    
C47   H5    S    
C28   C63   S    
C48   H6    S    
C15   C21   A    
C20   H20   S    
C8    C10   A    
C30   C61   S    
C33   C48   A    
C14   C68   A    
C12   F6    S    
C26   O20   A    
Cr3   O3    S    
C56   H14   S    
C25   O19   A    
C1    C36   S    
C27   O13   A    
C15   Cl3   S    
C5    O6    A    
C2    O8    A    
