data_mof_unit_1627.cif
_audit_creation_date              2013-03-05T16:25:56-0500
_audit_creation_method            fapswitch 2.2
_symmetry_space_group_name_H-M    P1
_symmetry_Int_Tables_number       1
_space_group_crystal_system       triclinic
_cell_length_a                    18.429855
_cell_length_b                    18.363014
_cell_length_c                    18.283792
_cell_angle_alpha                 120.08009
_cell_angle_beta                  90.105296
_cell_angle_gamma                 119.864583
_cell_volume                      4375.00790741

loop_
_atom_site_label
_atom_site_type_symbol
_atom_site_description
_atom_site_fract_x
_atom_site_fract_y
_atom_site_fract_z
_atom_type_partial_charge
Zn1   Zn    Zn3+2 0.956630 0.413250 0.869870 1.096153
Zn2   Zn    Zn3+2 0.130130 0.586750 0.043370 1.083238
Zn3   Zn    Zn3+2 0.956630 0.413250 0.043380 1.017457
Zn4   Zn    Zn3+2 0.956610 0.586750 0.043370 1.078774
O1    O     O_3   0.000000 0.500000 0.000000 -0.546480
O2    O     O_R   0.055050 0.731580 0.115780 -0.616436
O3    O     O_R   0.884220 0.268410 0.823490 -0.581511
O4    O     O_R   0.176520 0.560720 0.944920 -0.630825
O5    O     O_R   0.884200 0.439290 0.115800 -0.661471
O6    O     O_R   0.176530 0.560720 0.115800 -0.582660
O7    O     O_R   0.884180 0.560710 0.944910 -0.612389
O8    O     O_R   0.055100 0.439290 0.115810 -0.644542
O9    O     O_R   0.884190 0.439280 0.823480 -0.573335
O10   O     O_R   0.055090 0.439280 0.823480 -0.574346
O11   O     O_R   0.884180 0.560710 0.115790 -0.555776
O12   O     O_R   0.176500 0.731590 0.115790 -0.581827
O13   O     O_R   0.884220 0.268420 0.944930 -0.655305
C1    C     C_R   0.139659 0.779748 0.142856 0.875370
C2    C     C_R   0.860191 0.220219 0.859943 0.861702
C3    C     C_R   0.139738 0.497619 0.859738 0.909710
C4    C     C_R   0.859139 0.499312 0.138836 0.865202
C5    C     C_R   0.139813 0.500406 0.140380 0.859509
C6    C     C_R   0.860474 0.500134 0.858981 0.851039
C7    C     C_R   0.861562 0.681983 0.912235 -0.224314
H1    H     H_    0.926751 0.703378 0.938863 0.149206
C8    C     C_R   0.844093 0.757217 0.952296 0.474444
C9    C     C_R   0.758171 0.727809 0.923557 -0.218356
H2    H     H_    0.740662 0.780651 0.962609 0.223300
C10   C     C_R   0.694128 0.629667 0.846648 0.284517
C11   C     C_R   0.720240 0.564433 0.793822 -0.006071
C12   C     C_R   0.795841 0.581395 0.836409 -0.034935
C13   C     C_R   0.802639 0.497278 0.800677 -0.174701
C14   C     C_R   0.745923 0.407288 0.711985 0.436486
H3    H     H_    0.656563 0.346797 0.590192 0.237690
C15   C     C_R   0.691656 0.408890 0.660780 -0.226673
C16   C     C_R   0.679537 0.487710 0.700052 -0.112498
C17   C     C_R   0.767078 0.050542 0.712785 0.063624
C18   C     C_R   0.804258 0.109210 0.805258 -0.152740
C19   C     C_R   0.782977 0.056348 0.845739 -0.188591
H4    H     H_    0.809114 0.098224 0.917848 0.210658
C20   C     C_R   0.725124 0.948615 0.794182 0.436680
C21   C     C_R   0.690920 0.891111 0.698819 -0.159047
C22   C     C_R   0.712715 0.946679 0.662478 -0.097176
C23   C     C_3   0.696811 0.936192 0.576644 0.277716
C24   C     C_3   0.758949 0.054991 0.634054 0.152423
H5    H     H_    0.722490 0.896317 0.528852 0.250136
H6    H     H_    0.727851 0.094488 0.636745 0.183136
C25   C     C_R   0.779103 0.568713 0.226361 -0.074704
C26   C     C_R   0.802346 0.499014 0.193176 -0.005191
C27   C     C_R   0.771131 0.429441 0.217146 -0.166610
H7    H     H_    0.786598 0.373377 0.192955 0.182942
C28   C     C_R   0.718882 0.431011 0.272582 -0.160217
H8    H     H_    0.694707 0.375090 0.288197 0.184294
C29   C     C_R   0.698454 0.503851 0.307150 -0.009534
C30   C     C_R   0.732372 0.573783 0.284024 -0.069543
C31   C     C_3   0.740474 0.666890 0.300229 0.505223
C32   C     C_3   0.787107 0.654067 0.225408 0.478927
C33   C     C_R   0.162275 0.947627 0.220852 -0.004816
C34   C     C_R   0.194168 0.890504 0.211776 -0.232016
C35   C     C_R   0.277125 0.942261 0.274010 0.242220
C36   C     C_R   0.338627 0.050885 0.318162 0.329836
C37   C     C_R   0.305797 0.107159 0.316354 -0.290340
C38   C     C_R   0.214615 0.053212 0.275807 -0.042231
C39   C     C_3   0.162266 0.055896 0.214599 0.791131
C40   C     C_3   0.106237 0.938287 0.153978 -0.541105
H9    H     H_    0.036269 0.899836 0.152202 0.272070
H10   H     H_    0.115577 0.904959 0.087640 0.164079
C41   C     C_R   0.278666 0.527605 0.194800 0.086850
C42   C     C_R   0.196345 0.506438 0.201283 -0.060115
C43   C     C_R   0.173667 0.501498 0.272675 -0.229674
H11   H     H_    0.113249 0.494206 0.283273 0.195475
C44   C     C_R   0.229075 0.506407 0.330651 0.360501
C45   C     C_R   0.305173 0.509477 0.312404 -0.130913
C46   C     C_R   0.330937 0.526665 0.247665 -0.057580
C47   C     C_3   0.360562 0.477739 0.172469 0.310295
C48   C     C_3   0.302389 0.478983 0.114513 -0.479013
H12   H     H_    0.432004 0.529782 0.185283 0.174660
H13   H     H_    0.341244 0.532559 0.095763 0.225330
H14   H     H_    0.244187 0.401801 0.058269 0.238286
C49   C     C_R   0.281428 0.577904 0.835943 -0.023872
C50   C     C_R   0.196118 0.490215 0.804605 -0.228847
C51   C     C_R   0.170393 0.396616 0.723023 0.317255
C52   C     C_R   0.223174 0.400190 0.666503 0.350813
C53   C     C_R   0.305073 0.493986 0.696703 -0.149761
C54   C     C_R   0.334916 0.580020 0.783702 -0.035025
C55   C     C_3   0.376285 0.691636 0.822624 0.657212
C56   C     C_3   0.316832 0.688781 0.881628 0.635779
Zn5   Zn    Zn3+2 0.543330 0.586660 0.630080 1.057807
Zn6   Zn    Zn3+2 0.543320 0.586660 0.456570 1.127387
Zn7   Zn    Zn3+2 0.369830 0.413160 0.456580 1.141830
Zn8   Zn    Zn3+2 0.543350 0.413170 0.456590 1.053605
O14   O     O_3   0.499960 0.499910 0.499960 -0.556266
O15   O     O_R   0.615770 0.439200 0.384160 -0.663137
O16   O     O_R   0.444870 0.560630 0.676470 -0.598481
O17   O     O_R   0.615730 0.731500 0.555020 -0.576233
O18   O     O_R   0.323450 0.268330 0.384170 -0.611420
O19   O     O_R   0.444860 0.560620 0.384150 -0.631314
O20   O     O_R   0.615780 0.439200 0.555040 -0.635086
O21   O     O_R   0.323420 0.439190 0.384160 -0.548519
O22   O     O_R   0.615760 0.560630 0.676470 -0.646587
O23   O     O_R   0.615740 0.731500 0.676460 -0.653705
O24   O     O_R   0.444900 0.268330 0.384170 -0.573787
O25   O     O_R   0.615750 0.560630 0.384150 -0.544748
O26   O     O_R   0.323430 0.439200 0.555040 -0.586140
C57   C     C_R   0.641304 0.501667 0.361461 0.868174
C58   C     C_R   0.360203 0.499777 0.640260 1.009280
C59   C     C_R   0.638239 0.779791 0.640574 0.886864
C60   C     C_R   0.360448 0.219430 0.361801 0.925690
C61   C     C_R   0.360099 0.501919 0.361843 0.939782
C62   C     C_R   0.634903 0.495782 0.640876 0.875897
S1    S     S_3+6 0.738174 0.290751 0.661189 0.065776
O27   O     O_2   0.722601 0.257189 0.722966 -0.314708
O28   O     O_2   0.662535 0.206879 0.573582 -0.227330
O29   O     O_3   0.833276 0.310395 0.641722 -0.495045
H15   H     H_    0.827107 0.245550 0.620095 0.396069
O30   O     O_3   0.608209 0.895424 0.537310 -0.701268
H16   H     H_    0.588488 0.931905 0.584385 0.360847
O31   O     O_3   0.839186 0.090590 0.617098 -0.667348
H17   H     H_    0.825335 0.080654 0.559026 0.383415
S2    S     S_3+6 0.633930 0.646383 0.275634 0.110478
O32   O     O_2   0.632872 0.694133 0.229189 -0.206735
O33   O     O_2   0.561967 0.532785 0.217545 -0.279945
O34   O     O_3   0.612549 0.700717 0.370709 -0.466775
H18   H     H_    0.561618 0.700522 0.352931 0.382733
S3    S     S_3+6 0.809189 0.775420 0.415791 0.098435
O35   O     O_2   0.824578 0.871006 0.430738 -0.217355
O36   O     O_2   0.763405 0.756301 0.478341 -0.304509
O37   O     O_3   0.907053 0.793813 0.441754 -0.492185
H19   H     H_    0.942644 0.860157 0.501829 0.404193
S4    S     S_3+6 0.722772 0.602057 0.114986 0.134103
O38   O     O_2   0.762064 0.562471 0.045974 -0.274194
O39   O     O_2   0.628115 0.514360 0.085306 -0.200245
O40   O     O_3   0.725818 0.696697 0.118065 -0.430931
H20   H     H_    0.716580 0.676319 0.055623 0.395533
S5    S     S_3+6 0.901125 0.759007 0.256944 0.138376
O41   O     O_2   0.920757 0.751282 0.174596 -0.235850
O42   O     O_2   0.915874 0.861618 0.318234 -0.160980
O43   O     O_3   0.972709 0.753078 0.307033 -0.536977
H21   H     H_    0.032305 0.808268 0.316254 0.373231
S6    S     S_3+6 0.294221 0.873986 0.307036 0.127400
O44   O     O_2   0.341667 0.832150 0.252201 -0.166804
O45   O     O_2   0.348296 0.943658 0.404937 -0.193213
O46   O     O_3   0.196410 0.774698 0.290297 -0.558305
H22   H     H_    0.170444 0.806924 0.331377 0.349551
S7    S     S_3+6 0.455030 0.111478 0.364514 0.120596
O47   O     O_2   0.486889 0.193647 0.463185 -0.277820
O48   O     O_2   0.476899 0.038279 0.351995 -0.153457
O49   O     O_3   0.510837 0.164993 0.313000 -0.525290
H23   H     H_    0.573946 0.212474 0.351703 0.384277
S8    S     S_3+6 0.098891 0.104510 0.264368 0.134304
O50   O     O_2   0.028124 0.072616 0.191838 -0.189782
O51   O     O_2   0.055403 0.061182 0.315535 -0.251862
O52   O     O_3   0.164846 0.233703 0.333707 -0.452229
H24   H     H_    0.167938 0.250916 0.394867 0.402329
O53   O     O_3   0.212123 0.102735 0.174168 -0.735986
H25   H     H_    0.246754 0.074101 0.149243 0.323086
S9    S     S_3+6 0.202685 0.513141 0.425947 0.081639
O54   O     O_2   0.286432 0.580340 0.503473 -0.243956
O55   O     O_2   0.149600 0.557665 0.451868 -0.269680
O56   O     O_3   0.142677 0.394640 0.402914 -0.457772
H26   H     H_    0.091003 0.353453 0.349060 0.374957
S10   S     S_3+6 0.323692 0.349895 0.133911 0.081315
O57   O     O_2   0.328067 0.295802 0.041217 -0.205100
O58   O     O_2   0.382948 0.355449 0.195963 -0.287280
O59   O     O_3   0.218468 0.284127 0.131275 -0.533956
H27   H     H_    0.204376 0.216611 0.113075 0.424054
O60   O     O_3   0.907638 0.857609 0.022669 -0.668510
H28   H     H_    0.966403 0.869365 0.024886 0.336134
S11   S     S_3+6 0.076259 0.275887 0.692747 0.098006
O61   O     O_2   0.996550 0.254277 0.640766 -0.240355
O62   O     O_2   0.087837 0.191166 0.635423 -0.213564
O63   O     O_3   0.060707 0.278584 0.784507 -0.561466
H29   H     H_    0.005437 0.210401 0.761331 0.399679
O64   O     O_3   0.196255 0.314056 0.581853 -0.694222
H30   H     H_    0.131019 0.273708 0.555260 0.393982
O65   O     O_3   0.467002 0.753075 0.871041 -0.687976
H31   H     H_    0.487201 0.825654 0.902029 0.346841
S12   S     S_3+6 0.354183 0.714815 0.743210 0.067462
O66   O     O_2   0.369823 0.818693 0.793381 -0.257039
O67   O     O_2   0.415451 0.713588 0.689201 -0.299329
O68   O     O_3   0.248043 0.623170 0.674363 -0.497401
H32   H     H_    0.232676 0.654879 0.652317 0.432082
O69   O     O_3   0.363386 0.748295 0.973533 -0.693151
H33   H     H_    0.388271 0.820693 0.996734 0.355315
O70   O     O_3   0.252264 0.702936 0.863884 -0.739112
H34   H     H_    0.219478 0.700777 0.906539 0.333367
S13   S     S_3+6 0.581799 0.581681 0.839465 0.107336
O71   O     O_2   0.517910 0.475228 0.755407 -0.263420
O72   O     O_2   0.568984 0.577837 0.918889 -0.198509
O73   O     O_3   0.560428 0.662969 0.845219 -0.441363
H35   H     H_    0.601369 0.696659 0.820242 0.367228
O74   O     O_3   0.703695 0.903369 0.839365 -0.723258
H36   H     H_    0.638009 0.860604 0.821142 0.370282

loop_
_geom_bond_atom_site_label_1
_geom_bond_atom_site_label_2
_geom_bond_distance
_ccdc_geom_bond_type
C24   O31   1.397231 S    
O23   C59   1.267609 A    
S5    O43   1.682144 S    
C30   C31   1.506976 S    
O22   C62   1.268228 A    
S9    O54   1.501992 D    
O20   C62   1.290550 A    
C9    C10   1.397675 A    
C31   S2    1.813937 S    
C20   C21   1.428280 A    
C15   C16   1.393249 A    
S6    O46   1.683096 S    
O69   H33   0.992211 S    
O37   H19   0.990477 S    
C4    C26   1.444405 S    
Zn5   O23   1.942708 S    
S5    O41   1.502327 D    
C19   C20   1.401924 A    
O59   H27   0.990333 S    
O68   H32   0.990349 S    
O30   H16   0.993651 S    
C39   O53   1.408314 S    
C8    C9    1.391456 A    
C49   C54   1.374072 A    
O4    C3    1.277751 A    
C47   S10   1.794571 S    
Zn1   O1    1.939859 S    
C50   C51   1.421183 A    
C17   C18   1.386881 A    
C48   H13   1.111575 S    
C49   C56   1.496351 S    
C56   O69   1.405058 S    
C18   C19   1.409270 A    
C14   C15   1.389634 A    
C37   C60   1.472057 S    
C41   C46   1.375661 A    
O46   H22   0.990534 S    
O21   C61   1.283358 A    
O8    C5    1.282926 A    
C55   S12   1.801485 S    
C31   C32   1.596412 S    
O9    C6    1.273368 A    
H3    C15   1.082337 S    
C45   C46   1.397682 A    
C27   C28   1.399055 A    
C36   S7    1.797045 S    
O31   H17   0.992088 S    
S13   O73   1.680048 S    
Zn3   O8    1.941139 S    
O15   C57   1.284456 A    
O64   H30   0.990188 S    
S1    O28   1.503893 D    
S1    O27   1.503604 D    
C23   H5    1.108584 S    
C41   C42   1.387980 A    
C40   H10   1.112165 S    
S8    O52   1.679426 S    
S3    O37   1.679856 S    
C53   C58   1.454265 S    
C48   H14   1.112531 S    
O24   C60   1.278177 A    
C43   H11   1.083343 S    
C14   S1    1.779126 S    
O74   H36   0.991301 S    
Zn2   O12   1.938951 S    
C21   C59   1.446675 S    
C5    C42   1.447380 S    
C20   O74   1.375220 S    
S2    O34   1.681659 S    
C56   O70   1.407119 S    
O18   C60   1.296601 A    
C51   S11   1.779604 S    
C34   C35   1.413494 A    
S9    O55   1.503377 D    
C3    C50   1.456534 S    
Zn6   O25   1.941940 S    
S11   O62   1.503751 D    
C36   C37   1.446331 A    
O26   C58   1.277656 A    
S7    O48   1.501017 D    
C28   C29   1.408981 A    
S12   O66   1.503515 D    
S10   O58   1.502927 D    
C24   H6    1.111426 S    
S6    O44   1.503364 D    
O2    C1    1.282027 A    
Zn5   O16   1.946518 S    
C8    O60   1.375560 S    
C46   C47   1.499535 S    
C45   C61   1.457179 S    
S11   O61   1.501672 D    
O10   C3    1.280920 A    
C32   S4    1.823368 S    
O34   H18   0.990507 S    
C7    H1    1.082051 S    
S7    O47   1.503743 D    
Zn4   O2    1.942597 S    
C19   H4    1.083551 S    
C55   C56   1.539801 S    
C49   C50   1.394147 A    
C33   C34   1.383182 A    
C54   C55   1.506069 S    
C51   C52   1.423578 A    
O6    C5    1.280701 A    
C44   S9    1.770528 S    
C10   S13   1.773613 S    
Zn6   O19   1.940888 S    
C35   C36   1.430378 A    
Zn4   O7    1.934920 S    
Zn6   O17   1.937066 S    
S4    O39   1.501281 D    
C47   C48   1.522279 S    
O73   H35   0.990054 S    
C10   C11   1.419685 A    
Zn3   O5    1.941987 S    
C2    C18   1.441543 S    
Zn8   O15   1.941471 S    
S10   O59   1.682390 S    
O19   C61   1.283945 A    
C33   C40   1.483189 S    
Zn7   O14   1.959624 S    
C12   C13   1.417697 A    
O11   C4    1.272960 A    
C11   C12   1.401894 A    
C37   C38   1.398667 A    
C27   H7    1.083070 S    
O25   C57   1.274559 A    
Zn5   O14   1.939710 S    
C31   S3    1.815353 S    
C53   C54   1.393193 A    
Zn6   O14   1.951147 S    
Zn7   O18   1.938759 S    
C47   H12   1.105927 S    
Zn7   O26   1.936678 S    
Zn5   O22   1.940996 S    
O17   C59   1.283009 A    
C35   S6    1.785322 S    
C25   C26   1.399365 A    
C40   H9    1.110176 S    
S9    O56   1.678854 S    
O3    C2    1.274934 A    
C22   C23   1.491674 S    
C16   C62   1.465670 S    
O40   H20   0.989949 S    
S11   O63   1.682844 S    
S8    O51   1.504824 D    
C17   C22   1.349972 A    
C52   C53   1.415708 A    
Zn2   O1    1.959623 S    
Zn1   O9    1.941146 S    
C21   C22   1.384358 A    
Zn8   O24   1.942744 S    
C17   C24   1.493532 S    
Zn2   O6    1.936738 S    
Zn7   O21   1.936692 S    
O60   H28   0.989648 S    
S7    O49   1.683887 S    
O63   H29   0.990560 S    
S2    O33   1.502361 D    
S10   O57   1.502740 D    
C33   C38   1.371223 A    
S5    O42   1.500751 D    
C29   C30   1.401592 A    
O16   C58   1.280603 A    
C29   C57   1.448717 S    
Zn1   O3    1.942708 S    
Zn2   O4    1.936422 S    
C23   C24   1.544153 S    
C7    C8    1.406495 A    
C44   C45   1.422399 A    
Zn3   O1    1.951000 S    
S12   O67   1.502600 D    
O29   H15   0.990038 S    
S6    O45   1.504040 D    
C41   C48   1.490134 S    
S8    O50   1.502325 D    
C11   C16   1.417210 A    
C13   C14   1.428396 A    
Zn4   O11   1.941471 S    
O65   H31   0.991992 S    
S4    O38   1.501026 D    
C7    C12   1.414101 A    
C32   S5    1.819475 S    
S13   O71   1.503056 D    
C6    C13   1.469474 S    
O5    C4    1.283700 A    
O70   H34   0.991855 S    
S3    O35   1.503042 D    
C39   C40   1.527812 S    
O7    C6    1.287722 A    
O13   C2    1.273781 A    
Zn3   O13   1.936964 S    
S1    O29   1.682321 S    
C55   O65   1.402371 S    
O49   H23   0.991114 S    
Zn8   O20   1.934877 S    
C42   C43   1.403466 A    
O56   H26   0.990574 S    
S13   O72   1.502324 D    
S12   O68   1.682876 S    
O43   H21   0.990635 S    
C38   C39   1.511403 S    
S4    O40   1.682653 S    
C1    C34   1.457745 S    
Zn4   O1    1.952083 S    
C25   C32   1.508575 S    
C23   O30   1.408061 S    
O12   C1    1.283925 A    
C26   C27   1.409057 A    
C52   O64   1.380237 S    
C39   S8    1.793636 S    
O53   H25   0.993281 S    
S3    O36   1.501409 D    
S2    O32   1.501237 D    
C25   C30   1.358949 A    
C43   C44   1.408238 A    
Zn1   O10   1.946517 S    
O52   H24   0.990534 S    
Zn8   O14   1.951933 S    
C28   H8    1.083145 S    
C9    H2    1.083368 S    
