data_mof_unit_2238.cif
_audit_creation_date              2012-12-10T19:00:02-0500
_audit_creation_method            fapswitch 2.2
_symmetry_space_group_name_H-M    P1
_symmetry_Int_Tables_number       1
_space_group_crystal_system       triclinic
_cell_length_a                    10.669902
_cell_length_b                    10.566726
_cell_length_c                    9.981696
_cell_angle_alpha                 93.541921
_cell_angle_beta                  92.258858
_cell_angle_gamma                 90.067381
_cell_volume                      1122.36577927

loop_
_atom_site_label
_atom_site_type_symbol
_atom_type_description
_atom_site_fract_x
_atom_site_fract_y
_atom_site_fract_z
_atom_type_partial_charge
C1    C     C_R   0.498477 0.260380 0.496834 0.852342
C2    C     C_R   0.501718 0.739525 0.503477 0.854094
C3    C     C_R   0.874390 0.478338 0.511194 -0.175335
C4    C     C_R   0.125609 0.522128 0.488636 -0.171998
C5    C     C_R   0.941912 0.543184 0.618931 -0.057157
C6    C     C_R   0.058048 0.457532 0.380688 -0.057558
C7    C     C_R   0.591515 0.060213 0.429856 -0.222343
C8    C     C_R   0.412168 0.939767 0.576195 -0.222069
C9    C     C_R   0.595098 0.931024 0.436423 -0.197579
C10   C     C_R   0.407315 0.068811 0.567524 -0.197772
C11   C     C_R   0.505177 0.872297 0.509294 0.014358
C12   C     C_R   0.496177 0.127445 0.492864 0.016562
C13   C     C_R   0.507789 0.609935 0.081267 -0.151542
C14   C     C_R   0.496611 0.389949 0.918856 -0.144740
C15   C     C_R   0.497412 0.611766 0.939360 0.237087
C16   C     C_R   0.486376 0.389123 0.059950 0.228050
C17   C     C_R   0.260078 0.509233 0.497074 0.869470
C18   C     C_R   0.739925 0.490982 0.502919 0.870615
C19   C     C_R   0.156800 0.592213 0.057991 -0.138558
C20   C     C_R   0.839075 0.412776 0.942054 -0.127133
C21   C     C_R   0.118517 0.582394 0.189158 -0.100673
C22   C     C_R   0.880903 0.420921 0.812042 -0.105334
C23   C     C_R   0.101120 0.462786 0.240556 0.178206
C24   C     C_R   0.897919 0.539726 0.758778 0.173045
C25   C     C_R   0.123520 0.353340 0.157615 -0.182685
C26   C     C_R   0.871542 0.650107 0.838494 -0.167366
C27   C     C_R   0.156453 0.363804 0.024470 -0.168733
C28   C     C_R   0.833347 0.641483 0.970147 -0.140646
C29   C     C_R   0.174604 0.482945 0.975207 -0.095263
C30   C     C_R   0.816689 0.523028 0.021682 -0.088531
C31   C     C_R   0.934693 0.422323 0.400101 0.133656
C32   C     C_R   0.065230 0.578300 0.599623 0.134027
H1    H     H_    0.202679 0.490372 0.873024 0.143433
H2    H     H_    0.785883 0.516773 0.123040 0.147037
H3    H     H_    0.171442 0.684705 0.020396 0.106858
H4    H     H_    0.824744 0.320814 0.981019 0.116221
H5    H     H_    0.102530 0.668239 0.251107 0.111125
H6    H     H_    0.899613 0.334407 0.752293 0.111749
H7    H     H_    0.114801 0.260020 0.194437 0.135872
H8    H     H_    0.880300 0.742703 0.799852 0.132228
H9    H     H_    0.169340 0.279296 0.959681 0.120505
H10   H     H_    0.815764 0.726745 0.032100 0.123049
H11   H     H_    0.663682 0.107506 0.378641 0.145803
H12   H     H_    0.342680 0.892597 0.631676 0.142007
H13   H     H_    0.667298 0.876879 0.385413 0.134624
H14   H     H_    0.335433 0.123024 0.618976 0.133905
H15   H     H_    0.511521 0.698225 0.142029 0.161518
H16   H     H_    0.490817 0.301812 0.857944 0.161513
N1    N     N_R   0.499970 0.499970 0.857200 -0.107155
N2    N     N_R   0.500030 0.500030 0.142800 -0.110766
O1    O     O_R   0.499990 0.316750 0.614620 -0.627593
O2    O     O_R   0.500010 0.683250 0.385380 -0.627312
O3    O     O_R   0.499990 0.316780 0.385290 -0.627401
O4    O     O_R   0.500010 0.683220 0.614710 -0.626704
O5    O     O_R   0.316760 0.500000 0.614660 -0.637998
O6    O     O_R   0.683240 0.500000 0.385340 -0.630028
O7    O     O_R   0.316760 0.500020 0.385330 -0.605994
O8    O     O_R   0.683240 0.499980 0.614670 -0.594691
Zn1   Zn    Zn3+2 0.500000 0.499980 0.653120 0.931545
Zn2   Zn    Zn3+2 0.500000 0.500020 0.346880 0.928991
C33   C     C_3   0.462241 0.738882 0.889111 -0.379326
C34   C     C_3   0.576972 0.820873 0.868657 -0.825210
H17   H     H_    0.641953 0.771645 0.799208 0.281887
H18   H     H_    0.546839 0.911213 0.826548 0.249538
H19   H     H_    0.627441 0.843991 0.966507 0.226498
H20   H     H_    0.396991 0.728370 0.801694 0.219085
H21   H     H_    0.404386 0.791824 0.964072 0.159968
C35   C     C_3   0.442835 0.264608 0.107349 -0.346502
C36   C     C_3   0.551165 0.171850 0.120241 -0.886171
H22   H     H_    0.627768 0.214836 0.185309 0.264211
H23   H     H_    0.517513 0.083765 0.162253 0.260736
H24   H     H_    0.588871 0.146348 0.020010 0.238824
H25   H     H_    0.385758 0.277190 0.196510 0.244187
H26   H     H_    0.375083 0.219616 0.031423 0.160390
C37   C     C_3   0.876422 0.308459 0.319827 -0.408356
C38   C     C_3   0.927665 0.185061 0.372513 -0.928099
H27   H     H_    0.893415 0.172900 0.474650 0.259653
H28   H     H_    0.894461 0.103423 0.304938 0.247859
H29   H     H_    0.031664 0.184688 0.378800 0.262597
H30   H     H_    0.774019 0.303857 0.328746 0.216216
H31   H     H_    0.891782 0.312203 0.211351 0.202894
C39   C     C_3   0.122566 0.693333 0.678615 -0.417223
C40   C     C_3   0.072149 0.815687 0.622753 -0.919390
H32   H     H_    0.107157 0.825705 0.520534 0.259324
H33   H     H_    0.968154 0.816292 0.615875 0.261912
H34   H     H_    0.105205 0.898414 0.688808 0.245632
H35   H     H_    0.105424 0.691722 0.786961 0.200284
H36   H     H_    0.225045 0.697592 0.671031 0.207742

loop_
_geom_bond_atom_site_label_1
_geom_bond_atom_site_label_2
_ccdc_geom_bond_type
C9    H13   S    
O5    Zn1   S    
C27   C29   A    
C38   H29   S    
C20   C30   A    
C19   C21   A    
C24   C26   A    
C14   N1    A    
C35   H26   S    
C39   H35   S    
C22   H6    S    
C29   H1    S    
C3    C18   S    
C36   H23   S    
C33   H21   S    
C1    O3    A    
O2    Zn2   S    
C33   H20   S    
C18   O8    A    
C35   C36   S    
C10   H14   S    
C34   H18   S    
C16   C35   S    
C7    H11   S    
C37   H30   S    
C17   O5    A    
C18   O6    A    
C5    C32   A    
C15   N1    A    
C6    C31   A    
C36   H22   S    
C1    C12   S    
C2    C11   S    
C10   C12   A    
O3    Zn2   S    
O4    Zn1   S    
C7    C12   A    
C30   H2    S    
C38   H27   S    
C4    C6    A    
C2    O4    A    
C13   H15   S    
C37   H31   S    
O7    Zn2   S    
C14   H16   S    
O8    Zn1   S    
O6    Zn2   S    
C36   H24   S    
C37   C38   S    
C34   H17   S    
C9    C11   A    
C27   H9    S    
C31   C37   S    
C40   H32   S    
C13   C15   A    
C15   C33   S    
C3    C31   A    
C1    O1    A    
C4    C32   A    
C2    O2    A    
C4    C17   S    
C40   H33   S    
C20   C22   A    
C21   C23   A    
C14   C16   A    
O1    Zn1   S    
C19   C29   A    
C7    C9    A    
C34   H19   S    
C8    H12   S    
C38   H28   S    
C3    C5    A    
C25   C27   A    
C32   C39   S    
C26   C28   A    
N1    Zn1   S    
N2    Zn2   S    
C28   C30   A    
C35   H25   S    
C19   H3    S    
C25   H7    S    
C26   H8    S    
C5    C24   S    
C8    C11   A    
C39   H36   S    
C6    C23   S    
C28   H10   S    
C22   C24   A    
C23   C25   A    
C33   C34   S    
C16   N2    A    
C13   N2    A    
C20   H4    S    
C40   H34   S    
C21   H5    S    
C8    C10   A    
C39   C40   S    
C17   O7    A    
