data_mof_unit_3483.cif
_audit_creation_date              2012-12-10T18:56:00-0500
_audit_creation_method            fapswitch 2.2
_symmetry_space_group_name_H-M    P1
_symmetry_Int_Tables_number       1
_space_group_crystal_system       triclinic
_cell_length_a                    10.801082
_cell_length_b                    9.816626
_cell_length_c                    14.919558
_cell_angle_alpha                 90.164048
_cell_angle_beta                  90.112339
_cell_angle_gamma                 90.15746
_cell_volume                      1581.90793284

loop_
_atom_site_label
_atom_site_type_symbol
_atom_type_description
_atom_site_fract_x
_atom_site_fract_y
_atom_site_fract_z
_atom_type_partial_charge
C1    C     C_R   0.259647 0.499897 0.499726 0.987533
C2    C     C_R   0.935990 0.619819 0.476284 0.372992
C3    C     C_R   0.935546 0.382237 0.526372 0.376507
C4    C     C_R   0.063074 0.622970 0.484443 0.364694
C5    C     C_R   0.603759 0.600511 0.099187 0.565104
C6    C     C_R   0.602474 0.398815 0.901102 0.566598
C7    C     C_R   0.484525 0.611228 0.910280 0.535958
C8    C     C_R   0.483454 0.388877 0.089733 0.536447
C9    C     C_R   0.582533 0.604402 0.190994 -0.325738
C10   C     C_R   0.581666 0.395212 0.809282 -0.321711
C11   C     C_R   0.471802 0.610714 0.817845 -0.322869
C12   C     C_R   0.739955 0.500250 0.500559 0.978641
C13   C     C_R   0.470709 0.389463 0.182117 -0.317783
C14   C     C_R   0.516473 0.499053 0.231942 -0.172442
C15   C     C_R   0.516641 0.500928 0.768119 -0.173501
C16   C     C_R   0.549369 0.495538 0.048463 -0.076008
C17   C     C_R   0.549350 0.504164 0.951743 -0.075973
C18   C     C_R   0.872023 0.500900 0.501226 -0.436720
C19   C     C_R   0.126877 0.500036 0.499770 -0.438980
C20   C     C_3   0.794111 0.697068 0.081537 -0.333984
C21   C     C_3   0.793285 0.309694 0.925414 -0.336200
C22   C     C_3   0.313125 0.699683 0.976563 -0.331467
C23   C     C_R   0.501955 0.499817 0.327599 0.911316
C24   C     C_3   0.311063 0.301202 0.023251 -0.333233
C25   C     C_3   0.113408 0.179671 0.447534 -0.204705
C26   C     C_3   0.866382 0.735811 0.355221 -0.237429
C27   C     C_3   0.870042 0.271903 0.650687 -0.266107
C28   C     C_3   0.122779 0.819517 0.552387 -0.192179
C29   C     C_R   0.502119 0.500186 0.672409 0.913942
C30   C     C_R   0.561413 0.072483 0.565124 -0.020439
C31   C     C_R   0.438473 0.927516 0.434914 -0.066792
C32   C     C_R   0.438896 0.071550 0.434725 -0.074431
C33   C     C_R   0.561686 0.928446 0.565007 -0.049761
C34   C     C_R   0.062219 0.377737 0.515949 0.366088
H1    H     H_    0.610155 0.127559 0.617234 0.130851
H2    H     H_    0.808314 0.729067 0.152319 0.148222
H3    H     H_    0.847221 0.768531 0.038758 0.197929
H4    H     H_    0.827542 0.412025 0.946490 0.143853
H5    H     H_    0.814367 0.291337 0.853480 0.144314
H6    H     H_    0.844649 0.232707 0.964944 0.199240
H7    H     H_    0.299729 0.615588 0.025282 0.143179
H8    H     H_    0.259263 0.679945 0.914102 0.141410
H9    H     H_    0.275373 0.793577 0.007577 0.203911
H10   H     H_    0.298112 0.385618 0.974730 0.144822
H11   H     H_    0.257593 0.320749 0.085715 0.139267
H12   H     H_    0.388953 0.872478 0.383101 0.152930
H13   H     H_    0.272480 0.207603 0.991977 0.204726
H14   H     H_    0.016647 0.145605 0.434876 0.192702
H15   H     H_    0.148861 0.238591 0.389181 0.120728
H16   H     H_    0.171348 0.087405 0.453368 0.170958
H17   H     H_    0.813352 0.826700 0.333743 0.182660
H18   H     H_    0.959600 0.741836 0.323814 0.161854
H19   H     H_    0.815731 0.644176 0.330375 0.124778
H20   H     H_    0.822079 0.179267 0.675230 0.169270
H21   H     H_    0.964644 0.272508 0.680449 0.170161
H22   H     H_    0.816741 0.361905 0.674465 0.128355
H23   H     H_    0.390108 0.125883 0.382572 0.123200
H24   H     H_    0.193122 0.901629 0.548699 0.176021
H25   H     H_    0.030824 0.867500 0.562831 0.193108
H26   H     H_    0.147785 0.755711 0.611423 0.125361
H27   H     H_    0.611072 0.874137 0.616882 0.137802
H28   H     H_    0.618888 0.688507 0.230270 0.176226
H29   H     H_    0.617898 0.311099 0.770228 0.170134
H30   H     H_    0.424121 0.694236 0.785420 0.183422
H31   H     H_    0.422228 0.306211 0.214422 0.177353
H32   H     H_    0.832567 0.593244 0.070276 0.138109
N1    N     N_R   0.500000 0.857200 0.500000 -0.086117
N2    N     N_R   0.500000 0.142800 0.500000 -0.078505
O1    O     O_R   0.316770 0.614620 0.499990 -0.582369
O2    O     O_3   0.665770 0.294212 0.942785 -0.548001
O3    O     O_3   0.440023 0.720410 0.959328 -0.543994
O4    O     O_3   0.437869 0.279982 0.040537 -0.544011
O5    O     O_3   0.122451 0.254879 0.528140 -0.561809
O6    O     O_3   0.875018 0.736799 0.449553 -0.552554
O7    O     O_3   0.874397 0.266891 0.556260 -0.552759
O8    O     O_3   0.124495 0.745215 0.471141 -0.577340
O9    O     O_R   0.683230 0.385380 0.500010 -0.574708
O10   O     O_R   0.683230 0.614620 0.500010 -0.576191
O11   O     O_R   0.316770 0.385380 0.499990 -0.578792
O12   O     O_R   0.499990 0.614660 0.369060 -0.628124
O13   O     O_R   0.500010 0.385340 0.630940 -0.626268
O14   O     O_R   0.500010 0.614660 0.630940 -0.639264
O15   O     O_R   0.499990 0.385340 0.369060 -0.633825
O16   O     O_3   0.668070 0.704466 0.057185 -0.548744
Zn1   Zn    Zn3+2 0.500000 0.653120 0.500000 0.969845
Zn2   Zn    Zn3+2 0.500000 0.346880 0.500000 0.979308

loop_
_geom_bond_atom_site_label_1
_geom_bond_atom_site_label_2
_ccdc_geom_bond_type
C8    C13   A    
C2    C18   A    
N2    Zn2   S    
C10   H29   S    
C27   H20   S    
C13   H31   S    
C7    C11   A    
C24   O4    S    
C23   O15   A    
C30   H1    S    
C24   H11   S    
C20   H32   S    
C10   C15   A    
C7    O3    S    
C27   H21   S    
C22   H7    S    
C3    C18   A    
C25   H16   S    
C5    C16   A    
C4    C19   A    
C11   C15   A    
C21   H4    S    
C22   H9    S    
C16   C17   S    
C7    C17   A    
C31   H12   S    
C12   O10   A    
C23   O12   A    
C3    O7    S    
O13   Zn2   S    
C2    O6    S    
C32   N2    A    
C8    C16   A    
C13   C14   A    
C32   H23   S    
C27   O7    S    
C29   O13   A    
C15   C29   S    
C28   H26   S    
N1    Zn1   S    
C8    O4    S    
C9    H28   S    
C11   H30   S    
C5    O16   S    
C27   H22   S    
C3    C34   A    
C1    C19   S    
C1    O1    A    
C14   C23   S    
C2    C4    A    
C9    C14   A    
C5    C9    A    
O12   Zn1   S    
C26   H18   S    
C31   C32   A    
C21   H5    S    
C12   O9    A    
C25   H14   S    
O10   Zn1   S    
O9    Zn2   S    
C20   O16   S    
C1    O11   A    
C28   O8    S    
C26   H19   S    
C22   O3    S    
O1    Zn1   S    
C33   N1    A    
C28   H25   S    
C6    O2    S    
C6    C17   A    
C30   C33   A    
C24   H13   S    
C19   C34   A    
C6    C10   A    
C28   H24   S    
O14   Zn1   S    
C21   O2    S    
C29   O14   A    
C26   H17   S    
C20   H3    S    
C22   H8    S    
C21   H6    S    
C24   H10   S    
C26   O6    S    
C25   O5    S    
C25   H15   S    
C4    O8    S    
C31   N1    A    
C34   O5    S    
C20   H2    S    
O15   Zn2   S    
C33   H27   S    
C12   C18   S    
O11   Zn2   S    
C30   N2    A    
