data_mof_unit_2689.cif
_audit_creation_date              2012-12-11T15:23:29-0500
_audit_creation_method            fapswitch 2.2
_symmetry_space_group_name_H-M    P1
_symmetry_Int_Tables_number       1
_space_group_crystal_system       triclinic
_cell_length_a                    6.942616
_cell_length_b                    17.469793
_cell_length_c                    19.461022
_cell_angle_alpha                 109.551201
_cell_angle_beta                  89.733681
_cell_angle_gamma                 90.421997
_cell_volume                      2224.19329005

loop_
_atom_site_label
_atom_site_type_symbol
_atom_type_description
_atom_site_fract_x
_atom_site_fract_y
_atom_site_fract_z
_atom_type_partial_charge
O1    O     O_R   0.505810 0.439670 0.562310 -0.528142
O2    O     O_R   0.169070 0.404920 0.411210 -0.534951
O3    O     O_R   0.005550 0.560330 0.437690 -0.533785
C1    C     C_R   0.339154 0.381559 0.383126 0.818808
O4    O     O_R   0.175650 0.430000 0.560110 -0.530797
O5    O     O_R   0.012170 0.585580 0.587650 -0.526264
C2    C     C_R   0.344109 0.416088 0.582500 0.842669
O6    O     O_R   0.499180 0.414420 0.412350 -0.539683
O7    O     O_3   0.341430 0.551020 0.508860 -0.361465
V1    V     V_3+5 0.063930 0.490540 0.498360 1.632258
O8    O     O_R   0.682850 0.595080 0.588790 -0.533345
C3    C     C_R   0.852365 0.619289 0.616232 0.783485
O9    O     O_R   0.676280 0.570000 0.439890 -0.526564
C4    C     C_R   0.845267 0.584642 0.417869 0.794316
V2    V     V_3+5 0.564760 0.509460 0.501640 1.618262
O10   O     O_3   0.837130 0.448980 0.491140 -0.376418
C5    C     C_R   0.017539 0.890236 0.196814 0.325530
C6    C     C_R   0.916178 0.865515 0.130590 -0.216270
C7    C     C_R   0.803793 0.793595 0.110888 -0.119225
C8    C     C_R   0.805598 0.742198 0.154404 -0.031161
C9    C     C_R   0.896648 0.770636 0.223512 -0.005173
C10   C     C_R   0.001650 0.844786 0.244512 0.073869
C11   C     C_R   0.729033 0.661792 0.129978 0.339126
C12   C     C_R   0.711679 0.617500 0.178428 -0.147401
C13   C     C_R   0.776576 0.651357 0.251597 -0.071796
C14   C     C_R   0.884549 0.724759 0.271652 0.045243
C15   C     C_R   0.980686 0.752428 0.339903 0.043194
C16   C     C_R   0.069633 0.830641 0.362506 -0.169922
C17   C     C_R   0.084524 0.873683 0.313980 -0.175946
C18   C     C_R   0.742071 0.613371 0.304966 0.375375
C19   C     C_R   0.856299 0.634401 0.368528 -0.192186
C20   C     C_R   0.987053 0.700489 0.382583 -0.108633
H1    H     H_    0.153662 0.932736 0.333038 0.196031
C21   C     C_3   0.863060 0.820142 0.742070 0.355966
C22   C     C_3   0.019224 0.757826 0.705398 -0.055849
C23   C     C_3   0.867007 0.689302 0.687020 -0.182773
C24   C     C_3   0.709310 0.751951 0.723204 -0.240533
C25   C     C_3   0.751403 0.739667 0.796484 0.450668
C26   C     C_3   0.908229 0.676446 0.760332 -0.075238
C27   C     C_3   0.061916 0.745893 0.778914 -0.256312
C28   C     C_3   0.903371 0.808256 0.815227 -0.191947
H2    H     H_    0.564272 0.758898 0.703712 0.175998
H3    H     H_    0.925431 0.616910 0.768425 0.198234
H4    H     H_    0.206712 0.743850 0.801406 0.227594
C29   C     C_3   0.558181 0.278727 0.279065 -0.225825
C30   C     C_3   0.484310 0.190950 0.264183 -0.048999
H5    H     H_    0.701631 0.302450 0.301731 0.180357
C31   C     C_3   0.412365 0.187316 0.188505 -0.204530
C32   C     C_3   0.482638 0.274905 0.203262 0.375942
C33   C     C_3   0.286228 0.307671 0.237194 0.398939
C34   C     C_3   0.213122 0.219788 0.222359 -0.199326
C35   C     C_3   0.286793 0.223201 0.298769 -0.160787
C36   C     C_3   0.358607 0.310975 0.312676 -0.168143
H6    H     H_    0.069859 0.196277 0.199343 0.182882
H7    H     H_    0.205577 0.201486 0.338032 0.211537
C37   C     C_R   0.350441 0.094165 0.792956 -0.055825
C38   C     C_R   0.417507 0.130369 0.865507 -0.167200
C39   C     C_R   0.479975 0.211374 0.888777 -0.122270
C40   C     C_R   0.473679 0.258129 0.842139 0.034213
C41   C     C_R   0.389098 0.224806 0.772190 0.000070
C42   C     C_R   0.318954 0.143446 0.748366 -0.019820
C43   C     C_R   0.548302 0.338007 0.864136 0.371625
C44   C     C_R   0.538192 0.383967 0.817664 -0.098702
C45   C     C_R   0.452543 0.352781 0.748351 -0.027502
C46   C     C_R   0.376180 0.272871 0.725720 -0.042569
C47   C     C_R   0.287168 0.240857 0.656670 -0.020924
C48   C     C_R   0.207009 0.162702 0.636163 -0.104281
C49   C     C_R   0.218364 0.115099 0.680885 0.388849
C50   C     C_R   0.441603 0.399700 0.701357 0.309099
C51   C     C_R   0.353501 0.367262 0.632141 -0.214188
C52   C     C_R   0.276273 0.287910 0.609993 0.314223
H8    H     H_    0.536034 0.237080 0.943604 0.194381
H9    H     H_    0.598632 0.444663 0.836847 0.238727
H10   H     H_    0.129381 0.137911 0.585373 0.225679
O11   O     O_R   0.271890 0.085690 0.087580 -0.541172
O12   O     O_R   0.595690 0.070020 0.939870 -0.539027
O13   O     O_R   0.758900 0.914390 0.912370 -0.529447
C53   C     C_R   0.427421 0.083901 0.917271 0.744904
O14   O     O_R   0.602020 0.095100 0.088770 -0.530376
O15   O     O_R   0.765280 0.939660 0.062330 -0.543805
C54   C     C_R   0.431927 0.117840 0.117243 0.822219
O16   O     O_R   0.265520 0.060430 0.937620 -0.526109
O17   O     O_3   0.429560 0.949050 0.991100 -0.367502
V3    V     V_3+5 0.707160 0.009450 0.001650 1.614870
O18   O     O_R   0.094540 0.929890 0.060190 -0.519232
C55   C     C_R   0.925774 0.916078 0.082472 0.804284
O19   O     O_R   0.088200 0.904800 0.911290 -0.531877
C56   C     C_R   0.918304 0.879335 0.885022 0.837873
V4    V     V_3+5 0.206300 0.990390 0.998440 1.627932
O20   O     O_3   0.934030 0.050940 0.008900 -0.379766
Cl1   Cl    Cl    0.154207 0.981903 0.221568 -0.668363
Cl2   Cl    Cl    0.834262 0.917587 0.733946 -0.523771
Cl3   Cl    Cl    0.560749 0.721772 0.850240 -0.563303
C57   C     C_2   0.595351 0.126940 0.282118 0.870720
O21   O     O_2   0.648291 0.139400 0.344744 -0.515743
O22   O     O_R   0.636406 0.053287 0.227653 -0.649507
H11   H     H_    0.708622 0.014598 0.246997 0.314937
Cl4   Cl    Cl    0.614549 0.307509 0.139437 -0.514682
Cl5   Cl    Cl    0.151666 0.385083 0.218860 -0.473033
C58   C     C_2   0.678627 0.775866 0.046439 0.935310
O23   O     O_2   0.751007 0.767228 0.987094 -0.524505
O24   O     O_R   0.479295 0.769273 0.053738 -0.627833
H12   H     H_    0.408906 0.757646 0.005777 0.344042
C59   C     C_2   0.357728 0.004394 0.759396 0.926801
O25   O     O_2   0.288016 0.960138 0.790220 -0.550143
O26   O     O_R   0.451546 0.970860 0.692375 -0.577687
H13   H     H_    0.461083 0.909642 0.676478 0.356822
Cl6   Cl    Cl    0.661307 0.383165 0.949275 -0.508800
Cl7   Cl    Cl    0.532567 0.500587 0.729340 -0.616127
Cl8   Cl    Cl    0.174301 0.246673 0.521606 -0.627006
Cl9   Cl    Cl    0.078530 0.025474 0.651887 -0.419343
Cl10  Cl    Cl    0.689686 0.607646 0.035662 -0.472639
C60   C     C_2   0.653873 0.530997 0.147589 1.092552
O27   O     O_2   0.767666 0.478174 0.148215 -0.448368
O28   O     O_R   0.470619 0.510258 0.117267 -0.585849
H14   H     H_    0.447391 0.449424 0.098501 0.381105
Cl11  Cl    Cl    0.549900 0.542646 0.295332 -0.568320
C61   C     C_2   0.138256 0.711946 0.438412 0.831897
O29   O     O_2   0.093272 0.717754 0.500528 -0.546475
O30   O     O_R   0.331555 0.717254 0.419871 -0.643668
H15   H     H_    0.421588 0.725512 0.462628 0.301227
C62   C     C_2   0.124874 0.875555 0.439310 0.926342
O31   O     O_2   0.009748 0.881009 0.488320 -0.451383
O32   O     O_R   0.304257 0.914012 0.456570 -0.596743
H16   H     H_    0.392298 0.902912 0.412684 0.284317
C63   C     C_2   0.168381 0.767830 0.653676 0.884760
O33   O     O_2   0.169913 0.828758 0.636253 -0.467548
O34   O     O_R   0.300759 0.705899 0.623394 -0.650635
H17   H     H_    0.394669 0.719420 0.589021 0.286398

loop_
_geom_bond_atom_site_label_1
_geom_bond_atom_site_label_2
_ccdc_geom_bond_type
C9    C14   A    
C63   O33   D    
C10   C17   A    
C30   C35   S    
C1    C36   S    
C21   C24   S    
C7    C8    A    
C5    Cl1   S    
C4    C19   S    
O15   V3    S    
O34   H17   S    
O12   V3    S    
C2    C51   S    
C59   O26   S    
C19   C20   A    
C29   C30   S    
C37   C38   A    
C11   Cl10  S    
C16   C17   A    
C33   Cl5   S    
C43   C44   A    
O16   V4    S    
C23   C24   S    
O12   C53   A    
C6    C7    A    
O5    C3    A    
O14   V3    S    
C16   C62   S    
C43   Cl6   S    
O26   H13   S    
V2    O10   S    
C52   Cl8   S    
C17   H1    S    
C31   C54   S    
C21   C22   S    
C24   H2    S    
C61   O29   D    
O15   C55   A    
C32   Cl4   S    
C50   Cl7   S    
C31   C34   S    
C47   C52   A    
O13   C56   A    
C11   C12   A    
C51   C52   A    
O1    V2    S    
C3    C23   S    
O7    V1    S    
C27   H4    S    
C35   H7    S    
C1    O6    A    
C47   C48   A    
C29   C36   S    
C40   C41   A    
O9    C4    A    
O24   H12   S    
C21   C28   S    
V3    O20   S    
C59   O25   D    
C5    C6    A    
C61   O30   S    
C29   H5    S    
O17   V4    S    
C30   C31   S    
C33   C36   S    
C34   C35   S    
C12   C13   A    
C37   C59   S    
C25   C28   S    
V4    O20   S    
C26   C27   S    
O4    C2    A    
O18   V4    S    
O11   C54   A    
C26   H3    S    
C44   H9    S    
O13   V3    S    
C13   C14   A    
O18   C55   A    
C48   C49   A    
C41   C42   A    
C49   Cl9   S    
C22   C63   S    
O2    C1    A    
C24   C25   S    
C53   O16   A    
O17   V3    S    
C30   C57   S    
C8    C11   A    
C29   C32   S    
C18   C19   A    
C7    C58   S    
O22   H11   S    
C58   O24   S    
C33   C34   S    
C14   C15   A    
C57   O21   D    
C48   H10   S    
C6    C55   S    
C45   C50   A    
C57   O22   S    
O3    C4    A    
C27   C28   S    
C41   C46   A    
C32   C33   S    
O6    V2    S    
O8    V2    S    
O19   V4    S    
C62   O32   S    
O2    V1    S    
O30   H15   S    
O14   C54   A    
C60   O27   D    
C13   C18   A    
C28   C56   S    
C31   C32   S    
C40   C43   A    
C63   O34   S    
C15   C20   A    
O1    C2    A    
C38   C53   S    
C23   C26   S    
C20   C61   S    
O5    V1    S    
O8    C3    A    
C18   Cl11  S    
C5    C10   A    
C34   H6    S    
C45   C46   A    
O9    V2    S    
C22   C27   S    
C39   C40   A    
O4    V1    S    
O3    V1    S    
V1    O10   S    
C42   C49   A    
C39   H8    S    
C38   C39   A    
C25   C26   S    
C25   Cl3   S    
C58   O23   D    
O7    V2    S    
C50   C51   A    
C21   Cl2   S    
O11   V4    S    
C44   C45   A    
C12   C60   S    
C8    C9    A    
O19   C56   A    
C46   C47   A    
C15   C16   A    
C37   C42   A    
C22   C23   S    
C62   O31   D    
C9    C10   A    
O28   H14   S    
C35   C36   S    
O32   H16   S    
C60   O28   S    
