data_mof_unit_3126.cif
_audit_creation_date              2012-12-11T17:10:34-0500
_audit_creation_method            fapswitch 2.2
_symmetry_space_group_name_H-M    P1
_symmetry_Int_Tables_number       1
_space_group_crystal_system       triclinic
_cell_length_a                    14.878543
_cell_length_b                    14.830713
_cell_length_c                    14.914201
_cell_angle_alpha                 109.342508
_cell_angle_beta                  110.090617
_cell_angle_gamma                 109.101775
_cell_volume                      2529.4296295

loop_
_atom_site_label
_atom_site_type_symbol
_atom_type_description
_atom_site_fract_x
_atom_site_fract_y
_atom_site_fract_z
_atom_type_partial_charge
C1    C     C_R   0.186084 0.278014 0.255235 -0.122789
C2    C     C_R   0.404961 0.495843 0.194924 -0.144090
C3    C     C_R   0.565162 0.815515 0.591800 -0.126135
C4    C     C_R   0.526154 0.432663 0.747082 -0.123387
C5    C     C_R   0.726303 0.473396 0.411320 -0.119524
C6    C     C_R   0.551169 0.825759 0.499208 0.069298
C7    C     C_R   0.830915 0.549749 0.506450 0.057907
C8    C     C_R   0.435878 0.434274 0.132456 0.072140
C9    C     C_R   0.799424 0.802789 0.868862 0.050248
C10   C     C_R   0.110687 0.641723 0.204737 -0.133344
C11   C     C_R   0.115008 0.651580 0.302900 -0.138792
C12   C     C_R   0.452609 0.450094 0.777253 0.071380
C13   C     C_R   0.029187 0.571792 0.300400 0.112230
C14   C     C_R   0.939367 0.481952 0.197825 -0.159488
C15   C     C_R   0.935652 0.472382 0.099960 -0.065671
C16   C     C_R   0.509386 0.202971 0.410104 -0.132515
C17   C     C_R   0.021095 0.552296 0.103403 -0.091285
C18   C     C_R   0.936396 0.575839 0.410948 -0.224171
C19   C     C_R   0.937623 0.598997 0.510874 0.060566
C20   C     C_R   0.041763 0.659138 0.609624 0.032917
C21   C     C_R   0.134799 0.671141 0.602396 -0.229831
C22   C     C_R   0.126074 0.618933 0.500567 0.043795
C23   C     C_R   0.569418 0.199045 0.500904 0.059930
C24   C     C_R   0.030777 0.586683 0.404540 0.030273
C25   C     C_R   0.065096 0.800444 0.777824 -0.167367
C26   C     C_R   0.088861 0.841358 0.887088 -0.086092
C27   C     C_R   0.108043 0.782659 0.941130 -0.088189
C28   C     C_R   0.294705 0.601463 0.590163 -0.134976
C29   C     C_R   0.103788 0.683307 0.886514 -0.147790
C30   C     C_R   0.080704 0.642409 0.777696 -0.163789
C31   C     C_R   0.060072 0.700198 0.722357 0.101344
C32   C     C_R   0.455190 0.348524 0.880186 0.149584
C33   C     C_R   0.408948 0.401933 0.834158 0.039145
C34   C     C_R   0.203710 0.577764 0.498426 0.068484
C35   C     C_R   0.334893 0.425705 0.861992 -0.196850
C36   C     C_R   0.331430 0.423028 0.953750 -0.202061
C37   C     C_R   0.401299 0.395577 0.016398 0.043302
C38   C     C_R   0.451018 0.345097 0.969926 0.172647
C39   C     C_3   0.564386 0.359620 0.021196 -0.517648
C40   C     C_R   0.596537 0.291071 0.591995 -0.138488
C41   C     C_3   0.569421 0.363950 0.923526 -0.504676
C42   C     C_R   0.557584 0.929045 0.397736 0.180040
C43   C     C_R   0.598797 0.927676 0.496762 0.038343
C44   C     C_R   0.670405 0.029756 0.595526 -0.201619
C45   C     C_R   0.476587 0.721655 0.407796 -0.145902
C46   C     C_R   0.674202 0.125758 0.596530 -0.195613
C47   C     C_R   0.607329 0.119275 0.498519 0.039247
C48   C     C_R   0.561922 0.023829 0.398804 0.123029
C49   C     C_3   0.450595 0.960851 0.297312 -0.447981
C50   C     C_3   0.445853 0.857498 0.295482 -0.559597
C51   C     C_R   0.059307 0.969675 0.138398 0.232309
C52   C     C_R   0.202019 0.509003 0.407890 -0.147949
C53   C     C_R   0.066037 0.072592 0.168644 0.043086
C54   C     C_R   0.968774 0.076300 0.121159 -0.162589
C55   C     C_R   0.874660 0.982993 0.029195 -0.128566
C56   C     C_R   0.815314 0.563691 0.595454 -0.141820
C57   C     C_R   0.875768 0.884113 0.984861 0.068500
C58   C     C_R   0.964353 0.875121 0.045482 -0.023362
C59   C     C_3   0.962998 0.810799 0.104844 -0.298170
C60   C     C_3   0.063304 0.914093 0.206323 -0.514546
C61   C     C_R   0.436233 0.527472 0.751247 -0.117582
C62   C     C_R   0.276006 0.183525 0.243183 -0.025551
C63   C     C_R   0.172837 0.172970 0.224083 -0.043756
C64   C     C_2   0.862714 0.771248 0.116732 1.091637
C65   C     C_2   0.298604 0.099528 0.185624 0.922001
C66   C     C_R   0.496367 0.404081 0.196921 -0.120968
C67   C     C_R   0.706663 0.800011 0.803020 -0.134874
C68   C     C_R   0.799729 0.709892 0.806587 -0.131702
H1    H     H_    0.124766 0.302245 0.251837 0.105100
H2    H     H_    0.176264 0.703920 0.207080 0.111296
H3    H     H_    0.184360 0.722209 0.380705 0.115447
H4    H     H_    0.553704 0.374633 0.750454 0.105894
H5    H     H_    0.872288 0.419290 0.193495 0.106332
H6    H     H_    0.866175 0.403223 0.021365 0.100642
H7    H     H_    0.861213 0.545901 0.336907 0.128053
H8    H     H_    0.211734 0.710813 0.678377 0.126885
H9    H     H_    0.051108 0.846649 0.736715 0.123871
H10   H     H_    0.092711 0.918623 0.929934 0.123487
H11   H     H_    0.126520 0.813866 0.025440 0.160699
H12   H     H_    0.872893 0.614877 0.681803 0.129932
H13   H     H_    0.119077 0.638378 0.928767 0.110090
H14   H     H_    0.078731 0.565806 0.736329 0.118168
H15   H     H_    0.290782 0.459611 0.822935 0.126481
H16   H     H_    0.497317 0.159399 0.329399 0.131501
H17   H     H_    0.284818 0.455009 0.982151 0.124597
H18   H     H_    0.625177 0.439067 0.099671 0.211132
H19   H     H_    0.563294 0.285349 0.024124 0.191768
H20   H     H_    0.633149 0.446067 0.947140 0.239341
H21   H     H_    0.571820 0.292461 0.870733 0.184252
H22   H     H_    0.711491 0.034135 0.673635 0.125910
H23   H     H_    0.516578 0.340327 0.169553 0.129388
H24   H     H_    0.717818 0.200270 0.675298 0.121945
H25   H     H_    0.388212 0.975972 0.314126 0.234358
H26   H     H_    0.454128 0.967300 0.226287 0.201784
H27   H     H_    0.379383 0.814788 0.309173 0.196921
H28   H     H_    0.331036 0.663176 0.674733 0.087372
H29   H     H_    0.447459 0.804395 0.223780 0.199953
H30   H     H_    0.967160 0.152593 0.145146 0.115327
H31   H     H_    0.806184 0.992762 0.987519 0.105057
H32   H     H_    0.981255 0.744330 0.071188 0.135103
H33   H     H_    0.049681 0.951860 0.274927 0.207374
H34   H     H_    0.670555 0.848547 0.828812 0.088064
H35   H     H_    0.137535 0.904648 0.232811 0.215936
H36   H     H_    0.657520 0.323739 0.676470 0.087473
H37   H     H_    0.150016 0.482473 0.322737 0.110985
H38   H     H_    0.383186 0.559867 0.762301 0.094494
H39   H     H_    0.450780 0.697412 0.322854 0.114492
H40   H     H_    0.760937 0.807793 0.163002 0.315722
H41   H     H_    0.372658 0.060536 0.100118 0.315287
H42   H     H_    0.852181 0.678678 0.837860 0.106298
H43   H     H_    0.343745 0.518852 0.165282 0.089789
H44   H     H_    0.618012 0.879801 0.677057 0.092863
H45   H     H_    0.706014 0.441795 0.326448 0.091100
H46   H     H_    0.017718 0.545131 0.027543 0.091639
N1    N     N_R   0.291070 0.347930 0.293870 -0.048037
N2    N     N_R   0.497240 0.291100 0.443210 -0.048043
N3    N     N_R   0.347890 0.554050 0.556810 -0.040240
N4    N     N_R   0.554050 0.347900 0.556830 -0.042760
N5    N     N_R   0.291070 0.497250 0.443190 -0.040380
N6    N     N_R   0.497240 0.554030 0.706140 -0.041302
N7    N     N_R   0.347890 0.291110 0.293870 -0.056638
N8    N     N_R   0.445950 0.652100 0.443170 -0.040327
N9    N     N_R   0.708930 0.502750 0.556810 -0.044230
N10   N     N_R   0.502760 0.445970 0.293860 -0.039411
N11   N     N_R   0.652110 0.708890 0.706130 -0.038662
N12   N     N_R   0.708930 0.652070 0.706130 -0.041695
N13   N     N_R   0.445950 0.502780 0.293850 -0.040951
N14   N     N_R   0.502760 0.708900 0.556790 -0.040819
N15   N     N_R   0.652110 0.445950 0.443190 -0.040092
N16   N     N_R   0.554050 0.497220 0.706150 -0.040913
Ni1   Ni    Ni4+2 0.369690 0.500010 0.369700 0.211298
Ni2   Ni    Ni4+2 0.630310 0.499990 0.630300 0.212173
Ni3   Ni    Ni4+2 0.500000 0.369720 0.369720 0.242275
Ni4   Ni    Ni4+2 0.500000 0.630280 0.630280 0.210256
O1    O     O_2   0.810623 0.674146 0.088354 -0.676689
O2    O     O_R   0.829503 0.844886 0.159884 -0.798374
O3    O     O_2   0.266703 0.011615 0.183386 -0.715892
O4    O     O_R   0.361155 0.123488 0.136497 -0.822442

loop_
_geom_bond_atom_site_label_1
_geom_bond_atom_site_label_2
_ccdc_geom_bond_type
N11   Ni4   S    
C25   C31   A    
C40   N4    A    
C64   O2    S    
C8    C66   A    
C18   H7    S    
N1    N7    A    
C6    C45   A    
N9    Ni2   S    
C27   C29   A    
C53   C63   S    
C41   H21   S    
C35   C36   A    
C39   H19   S    
C3    C6    A    
C39   C41   S    
N1    Ni1   S    
C53   C54   A    
C21   H8    S    
C59   C64   S    
C26   H10   S    
N10   Ni3   S    
C25   H9    S    
C36   C37   A    
C37   C38   A    
H40   O2    S    
C27   H11   S    
C28   N3    A    
C67   N11   A    
C30   C31   A    
C11   H3    S    
C50   H27   S    
C46   H24   S    
C10   C17   A    
C23   C40   A    
C1    C63   A    
C16   H16   S    
C18   C19   A    
C46   C47   A    
C19   C20   A    
N5    Ni1   S    
C32   C41   S    
C18   C24   A    
C32   C38   A    
C49   H26   S    
C4    C12   A    
C60   H35   S    
C9    C57   S    
C65   O3    D    
C2    N13   A    
C5    N15   A    
C64   O1    D    
C28   C34   A    
C59   C60   S    
C13   C14   A    
N9    N15   A    
C61   N6    A    
C59   H32   S    
C7    C56   A    
N3    Ni4   S    
C16   N2    A    
C44   C46   A    
C17   H46   S    
C22   C34   S    
C2    H43   S    
C23   C47   S    
C14   H5    S    
C5    C7    A    
C35   H15   S    
C3    N14   A    
C4    N16   A    
N2    Ni3   S    
C58   C59   S    
C1    H1    S    
C13   C24   S    
H41   O4    S    
C51   C53   A    
C30   H14   S    
C42   C48   A    
N16   Ni2   S    
C43   C44   A    
C9    C67   A    
C29   H13   S    
C62   C63   A    
N14   Ni4   S    
C40   H36   S    
C47   C48   A    
N12   Ni2   S    
C3    H44   S    
C56   N9    A    
C26   C27   A    
C51   C58   A    
C68   H42   S    
C61   H38   S    
C42   C50   S    
N10   N13   A    
N15   Ni3   S    
C65   O4    S    
C10   H2    S    
C48   C49   S    
C52   H37   S    
C16   C23   A    
C7    C19   S    
C6    C43   S    
C55   C57   A    
N11   N12   A    
C36   H17   S    
C66   N10   A    
C22   C24   A    
C8    C37   S    
C60   H33   S    
C68   N12   A    
N8    Ni1   S    
C4    H4    S    
C44   H22   S    
C15   C17   A    
C41   H20   S    
C54   C55   A    
C50   H29   S    
C62   C65   S    
C5    H45   S    
C2    C8    A    
C66   H23   S    
C45   N8    A    
C34   C52   A    
C56   H12   S    
C28   H28   S    
C49   H25   S    
C32   C33   A    
N3    N5    A    
C25   C26   A    
C9    C68   A    
N6    N16   A    
C12   C61   A    
C11   C13   A    
C57   C58   A    
C38   C39   S    
C33   C35   A    
N2    N4    A    
N6    Ni4   S    
N8    N14   A    
N13   Ni1   S    
N4    Ni2   S    
C10   C11   A    
C29   C30   A    
C52   N5    A    
C15   H6    S    
C20   C21   A    
C49   C50   S    
C42   C43   A    
C55   H31   S    
C14   C15   A    
C54   H30   S    
C51   C60   S    
C1    N1    A    
C39   H18   S    
N7    Ni3   S    
C12   C33   S    
C21   C22   A    
C62   N7    A    
C45   H39   S    
C67   H34   S    
C20   C31   S    
