data_mof_unit_306.cif
_audit_creation_date              2012-12-10T16:50:08-0500
_audit_creation_method            fapswitch 2.2
_symmetry_space_group_name_H-M    P1
_symmetry_Int_Tables_number       1
_space_group_crystal_system       triclinic
_cell_length_a                    23.502209
_cell_length_b                    8.787904
_cell_length_c                    7.535043
_cell_angle_alpha                 101.750001
_cell_angle_beta                  95.643313
_cell_angle_gamma                 94.586721
_cell_volume                      1508.24967372

loop_
_atom_site_label
_atom_site_type_symbol
_atom_type_description
_atom_site_fract_x
_atom_site_fract_y
_atom_site_fract_z
_atom_type_partial_charge
C1    C     C_R   0.497305 0.200650 0.454357 0.790136
C2    C     C_R   0.500189 0.798520 0.544310 0.773766
C3    C     C_R   0.237704 0.588642 0.381167 0.551033
C4    C     C_R   0.765788 0.435285 0.621045 0.501472
C5    C     C_R   0.298424 0.601635 0.391971 -0.125941
C6    C     C_R   0.705716 0.429866 0.627911 -0.147797
C7    C     C_R   0.328994 0.510791 0.496819 -0.212467
C8    C     C_R   0.671447 0.491388 0.499035 -0.166471
C9    C     C_R   0.299577 0.419435 0.596827 -0.183760
C10   C     C_R   0.697362 0.554212 0.366753 -0.266705
C11   C     C_R   0.240036 0.414245 0.596147 -0.014042
C12   C     C_R   0.756379 0.558680 0.357629 -0.047216
C13   C     C_R   0.208920 0.497276 0.485177 0.130631
C14   C     C_R   0.790851 0.499659 0.486939 0.207113
C15   C     C_2   0.499337 0.034268 0.427661 0.160126
C16   C     C_2   0.489794 0.960288 0.563027 0.207981
C17   C     C_R   0.391416 0.504342 0.499855 0.760055
C18   C     C_R   0.608755 0.495909 0.499805 0.786250
C19   C     C_R   0.886956 0.630973 0.562185 0.691918
C20   C     C_R   0.112969 0.365634 0.386404 0.528624
C21   C     C_R   0.872190 0.370481 0.385285 0.632813
C22   C     C_R   0.125566 0.625603 0.565310 0.600733
C23   C     C_R   0.931727 0.366667 0.376094 -0.089540
C24   C     C_R   0.065919 0.634949 0.548036 -0.119530
C25   C     C_R   0.968876 0.503213 0.455816 -0.108476
C26   C     C_R   0.029002 0.501215 0.456269 -0.089597
C27   C     C_R   0.945924 0.640960 0.539178 -0.061621
C28   C     C_R   0.052250 0.364986 0.369386 -0.073355
C29   C     C_R   0.954517 0.231607 0.286578 0.421964
C30   C     C_R   0.042668 0.776476 0.613448 0.393253
C31   C     C_R   0.014062 0.232661 0.275204 -0.136614
C32   C     C_R   0.982850 0.781777 0.600476 -0.084346
Cu1   Cu    Cu3+1 0.506340 0.517380 0.684380 1.026235
Cu2   Cu    Cu3+1 0.493660 0.482620 0.315620 1.037876
H1    H     H_    0.323469 0.350788 0.674743 0.182910
H2    H     H_    0.671182 0.602173 0.270234 0.158005
N1    N     N_R   0.851639 0.499874 0.479735 -0.440223
N2    N     N_R   0.147519 0.494949 0.480725 -0.470777
N3    N     N_2   0.484110 0.456420 0.038520 0.148812
N4    N     N_2   0.515890 0.543580 0.961480 0.136413
O1    O     O_R   0.504120 0.286130 0.619770 -0.514829
O2    O     O_R   0.495880 0.713870 0.380230 -0.526906
O3    O     O_R   0.493410 0.256770 0.308360 -0.590889
O4    O     O_R   0.506590 0.743230 0.691640 -0.601782
O5    O     O_R   0.423230 0.514630 0.655730 -0.557866
O6    O     O_R   0.576770 0.485370 0.344270 -0.531164
O7    O     O_R   0.412530 0.485280 0.344320 -0.638773
O8    O     O_R   0.587470 0.514720 0.655680 -0.642042
O9    O     O_2   0.864982 0.748298 0.670213 -0.531475
O10   O     O_2   0.137918 0.238072 0.314385 -0.501433
O11   O     O_2   0.834652 0.246751 0.300954 -0.502662
O12   O     O_2   0.161901 0.745331 0.666898 -0.460179
O13   O     O_3   0.919009 0.093258 0.224187 -0.529211
C33   C     C_3   0.903443 0.067965 0.033881 -0.123069
H3    H     H_    0.911514 0.172829 0.974015 0.117389
H4    H     H_    0.856884 0.027995 0.003873 0.219219
H5    H     H_    0.926435 0.971577 0.965845 0.158852
O14   O     O_3   0.078573 0.911469 0.689758 -0.526101
C34   C     C_3   0.093361 0.987473 0.550250 -0.084390
H6    H     H_    0.096783 0.906439 0.417787 0.148488
H7    H     H_    0.136088 0.053964 0.594654 0.233306
H8    H     H_    0.062021 0.071879 0.530354 0.102050
C35   C     C_2   0.033785 0.093084 0.161123 0.435552
H9    H     H_    0.019071 0.977041 0.177527 0.078599
O15   O     O_2   0.063213 0.106397 0.039362 -0.469669
C36   C     C_2   0.961259 0.938376 0.634507 0.388109
H10   H     H_    0.985077 0.034505 0.734337 0.103641
O16   O     O_2   0.918849 0.964591 0.542899 -0.483667
O17   O     O_3   0.206005 0.675883 0.282056 -0.530574
C37   C     C_3   0.189889 0.586274 0.103875 -0.180328
H11   H     H_    0.162773 0.476705 0.104124 0.159088
H12   H     H_    0.228255 0.558870 0.032669 0.178808
H13   H     H_    0.164034 0.655582 0.024870 0.212862
O18   O     O_3   0.800998 0.383077 0.749624 -0.545968
C38   C     C_3   0.802668 0.219696 0.696297 -0.150813
H14   H     H_    0.769385 0.158868 0.582519 0.142139
H15   H     H_    0.796338 0.166997 0.815555 0.194158
H16   H     H_    0.845802 0.195851 0.656463 0.198166
C39   C     C_2   0.329873 0.714863 0.303054 0.354178
H17   H     H_    0.376313 0.732235 0.321106 0.060286
O19   O     O_2   0.304619 0.794097 0.211898 -0.493756
C40   C     C_2   0.678978 0.351803 0.761527 0.364094
H18   H     H_    0.635616 0.293760 0.728664 0.091195
O20   O     O_2   0.704909 0.351288 0.909904 -0.521023
C41   C     C_2   0.210771 0.324705 0.714100 0.381937
H19   H     H_    0.165429 0.331228 0.726969 0.068985
O21   O     O_2   0.237056 0.243746 0.800551 -0.529813
C42   C     C_2   0.779617 0.626161 0.210408 0.554294
H20   H     H_    0.750944 0.675707 0.120539 0.047124
O22   O     O_2   0.830115 0.626494 0.185141 -0.503930
O23   O     O_3   0.514522 0.954898 0.262856 -0.564649
C43   C     C_3   0.467184 0.937165 0.126244 -0.143820
H21   H     H_    0.470966 0.034043 0.053439 0.228564
H22   H     H_    0.424472 0.930529 0.178558 0.100043
H23   H     H_    0.468139 0.827570 0.024461 0.221230
O24   O     O_3   0.465138 0.031245 0.714122 -0.562548
C44   C     C_3   0.406828 0.968940 0.694035 -0.296347
H24   H     H_    0.400727 0.839238 0.656517 0.128600
H25   H     H_    0.380934 0.018829 0.592416 0.175679
H26   H     H_    0.389601 0.998902 0.826591 0.182125
O25   O     O_3   0.451290 0.340013 0.919343 -0.451157
C45   C     C_3   0.398451 0.318721 0.986886 -0.069771
H27   H     H_    0.367871 0.242770 0.878662 0.132655
H28   H     H_    0.379003 0.430834 0.021558 0.143288
H29   H     H_    0.402548 0.256605 0.100770 0.159966
O26   O     O_3   0.547447 0.661593 0.082777 -0.460182
C46   C     C_3   0.598412 0.700953 0.013162 -0.075165
H30   H     H_    0.590607 0.758886 0.897415 0.176681
H31   H     H_    0.622692 0.597709 0.978799 0.139941
H32   H     H_    0.625963 0.787710 0.121436 0.125023

loop_
_geom_bond_atom_site_label_1
_geom_bond_atom_site_label_2
_ccdc_geom_bond_type
C36   O16   D    
C35   O15   D    
O25   C45   S    
C6    C40   S    
Cu1   O5    S    
Cu2   O2    S    
C44   H24   S    
C41   H19   S    
C23   C29   A    
C32   C36   S    
C3    O17   S    
C17   O5    A    
O26   C46   S    
C15   C16   D    
C22   N2    A    
C45   H29   S    
C20   O10   S    
C19   N1    A    
C1    O3    A    
C2    O4    A    
C7    C17   S    
C46   H30   S    
C37   H11   S    
C1    C15   S    
C5    C39   S    
C2    C16   S    
C4    O18   S    
C3    C13   A    
C36   H10   S    
C34   H6    S    
C46   H31   S    
O17   C37   S    
C18   O6    A    
C44   H25   S    
N3    O25   S    
C41   O21   D    
C33   H4    S    
C34   H7    S    
Cu1   N4    S    
C16   O24   S    
O18   C38   S    
C12   C42   S    
Cu2   N3    S    
C31   C35   S    
C4    C6    A    
O23   C43   S    
C5    C7    A    
C6    C8    A    
C20   C28   A    
O14   C34   S    
O13   C33   S    
C43   H23   S    
C8    C18   S    
C39   H17   S    
C38   H14   S    
C20   N2    A    
C19   O9    S    
C2    O2    A    
O24   C44   S    
C37   H13   S    
C43   H22   S    
Cu1   Cu2   S    
C45   H28   S    
C38   H15   S    
C13   N2    S    
C10   C12   A    
Cu2   O6    S    
C1    O1    A    
C12   C14   A    
C40   O20   D    
C9    C11   A    
C46   H32   S    
C22   C24   A    
C21   O11   S    
C44   H26   S    
C19   C27   A    
N4    O26   S    
C7    C9    A    
C33   H3    S    
C34   H8    S    
C27   C32   A    
Cu1   O4    S    
C26   C28   A    
C28   C31   A    
Cu2   O3    S    
C17   O7    A    
C42   O22   D    
C3    C5    A    
C18   O8    A    
C10   H2    S    
C25   C27   A    
C39   O19   D    
Cu1   O1    S    
C21   C23   A    
C25   C26   A    
C29   C31   A    
C14   N1    S    
C30   C32   A    
C11   C13   A    
C24   C26   A    
C29   O13   S    
C11   C41   S    
C30   O14   S    
C43   H21   S    
C22   O12   S    
C23   C25   A    
C4    C14   A    
C45   H27   S    
C38   H16   S    
C24   C30   A    
C15   O23   S    
C35   H9    S    
N3    N4    D    
C21   N1    A    
C42   H20   S    
C8    C10   A    
C40   H18   S    
C9    H1    S    
Cu1   O8    S    
C37   H12   S    
Cu2   O7    S    
C33   H5    S    
