data_mof_unit_4073.cif
_audit_creation_date              2012-12-10T17:34:57-0500
_audit_creation_method            fapswitch 2.2
_symmetry_space_group_name_H-M    P1
_symmetry_Int_Tables_number       1
_space_group_crystal_system       triclinic
_cell_length_a                    12.387293
_cell_length_b                    13.110407
_cell_length_c                    13.862556
_cell_angle_alpha                 106.014761
_cell_angle_beta                  73.47694
_cell_angle_gamma                 116.510425
_cell_volume                      1902.07355965

loop_
_atom_site_label
_atom_site_type_symbol
_atom_type_description
_atom_site_fract_x
_atom_site_fract_y
_atom_site_fract_z
_atom_type_partial_charge
C1    C     C_R   0.143811 0.714239 0.510900 0.769104
C2    C     C_1   0.976654 0.510479 0.792192 -0.192435
C3    C     C_R   0.726214 0.964667 0.374389 -0.214142
C4    C     C_R   0.774745 0.159419 0.471431 -0.090337
C5    C     C_R   0.178868 0.915954 0.594693 -0.203337
C6    C     C_R   0.256848 0.030187 0.621916 -0.150053
C7    C     C_R   0.381942 0.067867 0.581823 -0.180364
C8    C     C_R   0.431240 0.992296 0.509090 0.090136
C9    C     C_R   0.348692 0.878939 0.473851 0.078938
C10   C     C_R   0.559685 0.023366 0.472532 0.069046
C11   C     C_R   0.601370 0.942008 0.401302 0.133488
C12   C     C_R   0.984469 0.505231 0.686573 0.818711
C13   C     C_R   0.518030 0.837525 0.358200 -0.234994
C14   C     C_R   0.393324 0.807866 0.391782 -0.199272
C15   C     C_R   0.648295 0.132369 0.504229 -0.284746
C16   C     C_R   0.813764 0.068726 0.415388 0.098878
C17   C     C_R   0.223740 0.838628 0.522600 -0.124479
C18   C     C_R   0.641916 0.680176 0.662580 -0.377501
C19   C     C_R   0.259642 0.349878 0.361550 0.273531
C20   C     C_R   0.346736 0.304636 0.351165 -0.240599
C21   C     C_R   0.436689 0.357813 0.409447 -0.229099
C22   C     C_R   0.444075 0.458945 0.479781 0.003784
C23   C     C_R   0.856304 0.284717 0.486921 0.782767
C24   C     C_R   0.344010 0.493641 0.500773 0.221833
C25   C     C_R   0.546266 0.524059 0.531356 -0.045389
C26   C     C_R   0.543028 0.618968 0.610002 0.091622
C27   C     C_R   0.441582 0.650757 0.635125 0.046620
C28   C     C_R   0.344697 0.586710 0.580808 -0.189239
C29   C     C_R   0.654082 0.500150 0.505624 -0.022628
C30   C     C_R   0.743059 0.650678 0.636070 0.388665
C31   C     C_R   0.015915 0.495165 0.313363 0.817310
C32   C     C_1   0.024323 0.488913 0.207300 -0.197024
C33   C     C_2   0.036909 0.474484 0.011102 0.112458
C34   C     C_2   0.970380 0.517049 0.985296 -0.189999
C35   C     C_1   0.972352 0.514333 0.880619 -0.008163
C36   C     C_1   0.030953 0.482474 0.117853 -0.044743
Cu1   Cu    Cu3+1 0.899780 0.525060 0.522890 0.953002
Cu2   Cu    Cu3+1 0.100220 0.474940 0.477110 0.904305
H1    H     H_    0.913062 0.555223 0.044068 0.139825
H2    H     H_    0.332598 0.727761 0.353220 0.169152
H3    H     H_    0.642865 0.751320 0.724927 0.134018
H4    H     H_    0.665858 0.433314 0.443427 0.132454
H5    H     H_    0.500649 0.318282 0.396310 0.142999
H6    H     H_    0.350951 0.230515 0.294487 0.145387
H7    H     H_    0.269675 0.611042 0.602988 0.209073
H8    H     H_    0.549356 0.777473 0.299252 0.142071
H9    H     H_    0.755493 0.899069 0.322570 0.131554
H10   H     H_    0.621063 0.199693 0.552809 0.158918
H11   H     H_    0.083804 0.887273 0.632656 0.159426
H12   H     H_    0.436881 0.156217 0.610355 0.126131
H13   H     H_    0.220882 0.088873 0.677894 0.139185
N1    N     N_R   0.748810 0.563010 0.557590 -0.172054
N2    N     N_R   0.250540 0.437620 0.443020 -0.212846
O1    O     O_R   0.025040 0.682470 0.528790 -0.548608
O2    O     O_R   0.194310 0.640150 0.490130 -0.604712
O3    O     O_R   0.903380 0.524130 0.659910 -0.543647
O4    O     O_R   0.072660 0.481800 0.621240 -0.595485
O5    O     O_R   0.805690 0.359850 0.509870 -0.581159
O6    O     O_R   0.974960 0.317530 0.471210 -0.607024
O7    O     O_R   0.927340 0.518200 0.378760 -0.570344
O8    O     O_R   0.096620 0.475870 0.340090 -0.605315
N3    N     N_3   0.841069 0.713370 0.691873 -0.533654
H14   H     H_    0.805312 0.702544 0.768096 0.191224
H15   H     H_    0.871730 0.801210 0.689884 0.172972
C37   C     C_3   0.439760 0.755081 0.718734 -0.407614
C38   C     C_3   0.329428 0.787430 0.737694 -0.361578
C39   C     C_3   0.342046 0.895404 0.819315 -0.836916
H16   H     H_    0.346767 0.880484 0.892818 0.247822
H17   H     H_    0.426097 0.970347 0.794833 0.255514
H18   H     H_    0.261097 0.916247 0.831126 0.244381
H19   H     H_    0.323811 0.805568 0.666096 0.235148
H20   H     H_    0.243100 0.715116 0.763607 0.212004
H21   H     H_    0.443162 0.738052 0.791831 0.197284
H22   H     H_    0.523966 0.831845 0.697755 0.208018
C40   C     C_3   0.187484 0.309621 0.275709 -0.361853
C41   C     C_3   0.202705 0.209810 0.190777 -0.455143
C42   C     C_3   0.120969 0.176055 0.113262 -0.850479
H23   H     H_    0.022741 0.146515 0.151076 0.249344
H24   H     H_    0.145557 0.251041 0.076907 0.253267
H25   H     H_    0.134086 0.104466 0.052894 0.245519
H26   H     H_    0.299641 0.237095 0.149408 0.229849
H27   H     H_    0.177984 0.132539 0.223943 0.224251
H28   H     H_    0.088589 0.282675 0.307377 0.235171
H29   H     H_    0.221115 0.384266 0.236336 0.218642
C43   C     C_3   0.119762 0.421402 0.933201 -0.362685
C44   C     C_3   0.247791 0.514570 0.904083 -0.344386
C45   C     C_3   0.330879 0.462121 0.823759 -0.845592
H30   H     H_    0.337984 0.394173 0.851851 0.249315
H31   H     H_    0.294139 0.423779 0.751707 0.260688
H32   H     H_    0.424256 0.530661 0.807592 0.247076
H33   H     H_    0.240326 0.580323 0.873044 0.229088
H34   H     H_    0.290266 0.558563 0.973121 0.215768
H35   H     H_    0.127849 0.357008 0.965609 0.180599
H36   H     H_    0.078979 0.373412 0.863767 0.201619
C46   C     C_3   0.943553 0.074616 0.394736 -0.431371
C47   C     C_3   0.948731 0.980844 0.437767 -0.351934
C48   C     C_3   0.078781 0.985109 0.412369 -0.837268
H37   H     H_    0.113083 0.976083 0.328539 0.243967
H38   H     H_    0.141841 0.067984 0.450828 0.263147
H39   H     H_    0.077934 0.912238 0.438770 0.257304
H40   H     H_    0.918109 0.993963 0.522148 0.222583
H41   H     H_    0.887375 0.893090 0.405288 0.223040
H42   H     H_    0.975924 0.062034 0.310804 0.200880
H43   H     H_    0.009265 0.156947 0.428709 0.240337

loop_
_geom_bond_atom_site_label_1
_geom_bond_atom_site_label_2
_ccdc_geom_bond_type
C2    C35   T    
C23   O5    A    
C45   H30   S    
C47   H41   S    
C29   H4    S    
C46   C47   S    
C31   O8    A    
C19   C20   A    
C18   C26   A    
C1    O1    A    
C2    C12   S    
C48   H37   S    
C7    C8    A    
C42   H23   S    
C23   O6    A    
C26   C27   A    
N3    H14   S    
C32   C36   T    
C10   C15   A    
C5    C6    A    
C40   H29   S    
C5    C17   A    
C33   C36   S    
C37   H21   S    
C34   C35   S    
C3    H9    S    
C33   C43   S    
N3    H15   S    
C48   H38   S    
C21   H5    S    
Cu1   O3    S    
C43   H35   S    
C38   H20   S    
Cu2   O2    S    
C31   C32   S    
C8    C9    A    
C22   C25   A    
C18   C30   A    
C13   C14   A    
C6    H13   S    
Cu1   O5    S    
Cu2   O8    S    
C19   N2    A    
C38   C39   S    
C47   H40   S    
C5    H11   S    
C15   H10   S    
C20   H6    S    
C46   H42   S    
C42   H24   S    
C25   C29   A    
C28   H7    S    
Cu1   N1    S    
C39   H16   S    
C41   C42   S    
C18   H3    S    
C41   H27   S    
C9    C14   A    
C44   C45   S    
C25   C26   A    
C43   C44   S    
C37   H22   S    
C34   H1    S    
C39   H17   S    
C31   O7    A    
C4    C16   A    
C40   C41   S    
Cu1   Cu2   S    
C27   C37   S    
Cu2   O4    S    
C43   H36   S    
C38   H19   S    
C47   C48   S    
C33   C34   D    
C12   O3    A    
Cu1   O1    S    
C9    C17   A    
C30   N3    S    
C22   C24   A    
C12   O4    A    
C48   H39   S    
C46   H43   S    
C42   H25   S    
C4    C23   S    
C30   N1    A    
C16   C46   S    
C24   C28   A    
C7    H12   S    
C41   H26   S    
C6    C7    A    
C1    C17   S    
C44   H33   S    
C39   H18   S    
C4    C15   A    
C45   H31   S    
C24   N2    A    
C44   H34   S    
C11   C13   A    
C40   H28   S    
C13   H8    S    
Cu2   N2    S    
C19   C40   S    
C1    O2    A    
Cu1   O7    S    
C3    C11   A    
C10   C11   A    
C14   H2    S    
Cu2   O6    S    
C20   C21   A    
C8    C10   A    
C37   C38   S    
C45   H32   S    
C27   C28   A    
C21   C22   A    
C3    C16   A    
C29   N1    A    
