data_mof_unit_581.cif
_audit_creation_date              2012-12-10T17:23:40-0500
_audit_creation_method            fapswitch 2.2
_symmetry_space_group_name_H-M    P1
_symmetry_Int_Tables_number       1
_space_group_crystal_system       triclinic
_cell_length_a                    9.649412
_cell_length_b                    10.951063
_cell_length_c                    17.345331
_cell_angle_alpha                 94.79604
_cell_angle_beta                  85.448024
_cell_angle_gamma                 90.452911
_cell_volume                      1820.72366202

loop_
_atom_site_label
_atom_site_type_symbol
_atom_type_description
_atom_site_fract_x
_atom_site_fract_y
_atom_site_fract_z
_atom_type_partial_charge
C1    C     C_R   0.500124 0.736576 0.496758 0.842855
C2    C     C_R   0.347485 0.502540 0.782501 0.471055
C3    C     C_R   0.412719 0.522078 0.147348 0.521802
C4    C     C_R   0.407301 0.518501 0.228116 -0.332186
C5    C     C_R   0.658659 0.510261 0.223799 -0.134444
C6    C     C_R   0.665965 0.515004 0.143740 -0.214615
C7    C     C_R   0.544322 0.521189 0.105206 0.085580
C8    C     C_2   0.471436 0.582080 0.981342 -0.143017
C9    C     C_2   0.558400 0.520331 0.020221 -0.184001
C10   C     C_R   0.529111 0.510919 0.266339 -0.083198
C11   C     C_R   0.263364 0.874864 0.446657 -0.115741
C12   C     C_R   0.481408 0.501035 0.650203 0.826375
C13   C     C_R   0.132970 0.928083 0.455482 0.274975
C14   C     C_R   0.114351 0.041652 0.497634 -0.238178
C15   C     C_R   0.229214 0.107310 0.524171 0.486687
C16   C     C_R   0.366023 0.059159 0.505353 -0.085928
C17   C     C_R   0.376224 0.933207 0.481036 -0.023146
C18   C     C_R   0.497748 0.869665 0.494270 -0.158808
C19   C     C_R   0.615794 0.935721 0.511779 -0.238836
C20   C     C_R   0.618644 0.061437 0.506947 0.472373
C21   C     C_R   0.492842 0.127615 0.508862 -0.206284
C22   C     C_R   0.873960 0.354391 0.384681 -0.234106
C23   C     C_R   0.498119 0.262351 0.503463 0.807514
C24   C     C_R   0.954732 0.291151 0.324307 0.142846
C25   C     C_R   0.096129 0.277608 0.329895 0.429000
C26   C     C_R   0.158134 0.341192 0.391518 -0.255063
C27   C     C_R   0.081779 0.422336 0.446581 0.076703
C28   C     C_R   0.933368 0.425134 0.445109 0.132414
C29   C     C_R   0.920551 0.579318 0.548814 0.267860
C30   C     C_R   0.069631 0.580812 0.547878 0.564339
C31   C     C_R   0.518803 0.502494 0.350404 0.772262
C32   C     C_R   0.474011 0.513167 0.735987 -0.132011
C33   C     C_R   0.597967 0.541509 0.771455 -0.234572
C34   C     C_R   0.597571 0.565003 0.850992 -0.165567
C35   C     C_R   0.473022 0.561760 0.897051 0.102266
C36   C     C_R   0.348897 0.531935 0.863631 -0.248208
Cu1   Cu    Cu3+1 0.359340 0.500010 0.500010 1.016672
Cu2   Cu    Cu3+1 0.640660 0.499990 0.499990 1.010780
H1    H     H_    0.696654 0.547173 0.737725 0.204926
H2    H     H_    0.767015 0.513233 0.111569 0.157583
H3    H     H_    0.712233 0.889430 0.518309 0.245023
H4    H     H_    0.274397 0.786954 0.413489 0.181866
H5    H     H_    0.010777 0.077297 0.512636 0.216530
H6    H     H_    0.765252 0.340768 0.383798 0.225745
H7    H     H_    0.307363 0.515806 0.260871 0.168708
H8    H     H_    0.265927 0.324557 0.393772 0.211746
H9    H     H_    0.754227 0.504860 0.252133 0.186346
H10   H     H_    0.641216 0.465354 0.988739 0.149673
H11   H     H_    0.255657 0.528898 0.902374 0.146559
H12   H     H_    0.389609 0.639186 0.011577 0.184541
H13   H     H_    0.694443 0.587419 0.876533 0.142467
N1    N     N_R   0.852190 0.498790 0.499250 -0.214122
N2    N     N_R   0.148060 0.498710 0.499220 -0.221197
O1    O     O_R   0.381190 0.680360 0.500010 -0.549960
O2    O     O_R   0.618760 0.680340 0.500000 -0.528828
O3    O     O_R   0.367440 0.500030 0.613600 -0.511131
O4    O     O_R   0.605010 0.500010 0.613590 -0.564049
O5    O     O_R   0.381240 0.319660 0.500000 -0.560137
O6    O     O_R   0.618810 0.319640 0.499990 -0.550963
O7    O     O_R   0.394990 0.499990 0.386410 -0.619950
O8    O     O_R   0.632560 0.499970 0.386400 -0.599544
Br1   Br    Br    0.981144 0.833014 0.419326 -0.557145
O9    O     O_3   0.201775 0.206621 0.577724 -0.550292
C37   C     C_3   0.237154 0.175979 0.651185 -0.227845
H14   H     H_    0.350175 0.189803 0.656895 0.154218
H15   H     H_    0.206262 0.080682 0.663456 0.136910
H16   H     H_    0.180070 0.237483 0.696279 0.216529
O10   O     O_3   0.745762 0.114506 0.489818 -0.577329
C38   C     C_3   0.781706 0.083806 0.409951 -0.227802
H17   H     H_    0.718002 0.137601 0.374515 0.172149
H18   H     H_    0.766062 0.985614 0.390754 0.198578
H19   H     H_    0.893593 0.101779 0.397548 0.219966
Br2   Br    Br    0.817310 0.701383 0.615527 -0.533972
Br3   Br    Br    0.868305 0.213720 0.236973 -0.534874
O11   O     O_3   0.167384 0.187471 0.282104 -0.544923
C39   C     C_3   0.268840 0.241554 0.232969 -0.223228
H20   H     H_    0.223130 0.313721 0.201248 0.193174
H21   H     H_    0.311873 0.169877 0.188784 0.201892
H22   H     H_    0.356617 0.277786 0.265787 0.138448
O12   O     O_3   0.137964 0.678020 0.584940 -0.547960
C40   C     C_3   0.118985 0.678742 0.666492 -0.181603
H23   H     H_    0.222247 0.678404 0.690146 0.189858
H24   H     H_    0.055908 0.601132 0.687809 0.166298
H25   H     H_    0.068231 0.765865 0.690350 0.179560
O13   O     O_3   0.293060 0.508442 0.107588 -0.596993
C41   C     C_3   0.186433 0.588484 0.140949 -0.345184
H26   H     H_    0.226676 0.680402 0.161081 0.173044
H27   H     H_    0.125620 0.546526 0.189051 0.183425
H28   H     H_    0.113809 0.602656 0.096039 0.193766
O14   O     O_3   0.229404 0.463066 0.745639 -0.586108
C42   C     C_3   0.111691 0.441742 0.796482 -0.410083
H29   H     H_    0.072502 0.528790 0.827983 0.166629
H30   H     H_    0.133751 0.371895 0.836886 0.182886
H31   H     H_    0.027189 0.404679 0.761460 0.199729

loop_
_geom_bond_atom_site_label_1
_geom_bond_atom_site_label_2
_ccdc_geom_bond_type
C8    C9    D    
C23   O5    A    
C16   C21   A    
C3    O13   S    
C28   N1    A    
C31   O8    A    
C35   C36   A    
C39   H22   S    
C1    O1    A    
C40   H23   S    
O13   C41   S    
C23   O6    A    
C5    H9    S    
C34   H13   S    
C33   H1    S    
Cu1   Cu2   S    
C39   H21   S    
C18   C19   A    
C3    C7    A    
C5    C6    A    
C41   H27   S    
Cu2   N1    S    
C15   C16   A    
C11   H4    S    
C2    C32   A    
C34   C35   A    
C38   H18   S    
Cu1   O3    S    
C10   C31   S    
C22   H6    S    
Cu2   O2    S    
C19   C20   A    
C16   C17   A    
Cu1   O5    S    
Cu2   O8    S    
C30   O12   S    
C22   C28   A    
C13   C14   A    
C12   C32   S    
C40   H24   S    
C33   C34   A    
C4    H7    S    
C30   N2    A    
C13   Br1   S    
C37   H16   S    
C39   H20   S    
C42   H29   S    
C41   H26   S    
O10   C38   S    
C25   C26   A    
Cu2   O6    S    
C25   O11   S    
C8    C35   S    
C37   H15   S    
C31   O7    A    
C38   H19   S    
O11   C39   S    
C29   C30   A    
C42   H30   S    
Cu2   O4    S    
C17   C18   A    
C1    C18   S    
C24   C25   A    
C12   O3    A    
C12   O4    A    
C21   C23   S    
C26   C27   A    
C22   C24   A    
Cu1   O1    S    
C4    C10   A    
C3    C4    A    
C8    H12   S    
C40   H25   S    
C2    C36   A    
C7    C9    S    
C11   C17   A    
C20   O10   S    
O12   C40   S    
C41   H28   S    
C27   N2    A    
C6    C7    A    
C37   H14   S    
C1    O2    A    
Cu1   N2    S    
C5    C10   A    
C32   C33   A    
C42   H31   S    
C11   C13   A    
C24   Br3   S    
O14   C42   S    
C6    H2    S    
C38   H17   S    
Cu1   O7    S    
C26   H8    S    
O9    C37   S    
C29   Br2   S    
C20   C21   A    
C9    H10   S    
C2    O14   S    
C27   C28   A    
C15   O9    S    
C14   C15   A    
C36   H11   S    
C19   H3    S    
C14   H5    S    
C29   N1    A    
