data_mof_unit_4981.cif
_audit_creation_date              2012-12-11T15:29:39-0500
_audit_creation_method            fapswitch 2.2
_symmetry_space_group_name_H-M    P1
_symmetry_Int_Tables_number       1
_space_group_crystal_system       triclinic
_cell_length_a                    8.548526
_cell_length_b                    15.362027
_cell_length_c                    19.147332
_cell_angle_alpha                 98.185235
_cell_angle_beta                  94.047603
_cell_angle_gamma                 98.872471
_cell_volume                      2448.04753603

loop_
_atom_site_label
_atom_site_type_symbol
_atom_type_description
_atom_site_fract_x
_atom_site_fract_y
_atom_site_fract_z
_atom_type_partial_charge
Ba1   Ba    Ba6+2 0.161760 0.544680 0.467770 1.646605
Ba2   Ba    Ba6+2 0.648420 0.455310 0.532170 1.676956
C1    C     C_3   0.325220 0.814622 0.225590 -0.202070
C2    C     C_R   0.100572 0.074157 0.527028 -0.024860
C3    C     C_R   0.959307 0.889714 0.524264 -0.054249
C4    C     C_3   0.892309 0.782914 0.307632 0.204013
C5    C     C_R   0.102446 0.929221 0.564581 -0.086619
C6    C     C_R   0.183820 0.011064 0.553209 -0.097815
C7    C     C_R   0.893790 0.794989 0.517850 -0.045796
C8    C     C_R   0.741403 0.766517 0.480783 -0.118439
C9    C     C_R   0.919168 0.198913 0.473633 -0.060911
C10   C     C_R   0.857683 0.103141 0.461507 0.024644
C11   C     C_R   0.944564 0.042781 0.493417 0.079890
C12   C     C_3   0.384841 0.773269 0.288407 0.140198
C13   C     C_R   0.716587 0.062078 0.417889 -0.002212
C14   C     C_R   0.655731 0.971634 0.414441 -0.026549
C15   C     C_R   0.728556 0.915327 0.451897 -0.072151
C16   C     C_3   0.861223 0.856994 0.266361 -0.318239
C17   C     C_R   0.878669 0.948737 0.488784 0.061126
C18   C     C_R   0.656300 0.825678 0.451034 -0.005244
C19   C     C_R   0.071229 0.226698 0.511257 -0.258552
C20   C     C_R   0.609897 0.538625 0.302260 -0.292503
C21   C     C_R   0.454660 0.496849 0.279526 0.067411
C22   C     C_R   0.397763 0.493783 0.208200 -0.181629
C23   C     C_3   0.561274 0.729852 0.652799 0.218597
C24   C     C_R   0.498084 0.529319 0.159613 0.082221
C25   C     C_R   0.658766 0.563059 0.183091 -0.076992
C26   C     C_R   0.714013 0.569547 0.254417 -0.020212
C27   C     C_R   0.465089 0.594758 0.043276 -0.006938
C28   C     C_3   0.711887 0.325423 0.310972 0.171359
C29   C     C_R   0.412260 0.580132 0.970447 -0.157616
C30   C     C_R   0.333211 0.496650 0.935455 0.092141
C31   C     C_R   0.307171 0.425806 0.975642 0.085075
C32   C     C_R   0.360337 0.439624 0.047805 -0.023997
C33   C     C_R   0.439477 0.522811 0.083034 -0.067340
C34   C     C_3   0.580824 0.832403 0.677318 -0.044292
C35   C     C_R   0.131539 0.441725 0.828158 -0.186397
C36   C     C_R   0.092332 0.424036 0.754478 -0.055385
C37   C     C_R   0.354158 0.502708 0.737148 0.029258
C38   C     C_R   0.393828 0.519406 0.810827 -0.087752
C39   C     C_R   0.286234 0.484409 0.857112 0.039083
C40   C     C_3   0.635468 0.280063 0.236562 -0.291957
C41   C     C_R   0.211807 0.446177 0.710737 -0.258807
C42   C     C_3   0.985575 0.669868 0.694304 0.181915
C43   C     C_3   0.981632 0.703301 0.776332 0.024594
C44   C     C_3   0.251353 0.255362 0.340304 0.296175
C45   C     C_3   0.882649 0.212425 0.709200 0.032991
C46   C     C_3   0.253016 0.160077 0.303237 -0.214613
C47   C     C_2   0.747830 0.234768 0.192488 0.575486
C48   C     C_2   0.112973 0.618306 0.681078 0.429300
C49   C     C_2   0.100793 0.788102 0.801405 0.641731
C50   C     C_2   0.182660 0.093023 0.346772 0.412554
C51   C     C_2   0.421536 0.904285 0.223818 0.494686
C52   C     C_2   0.749095 0.879557 0.683037 0.536025
C53   C     C_2   0.807330 0.168071 0.636684 0.470738
C54   C     C_2   0.904050 0.187509 0.837306 0.624460
C55   C     C_2   0.452423 0.304047 0.744496 0.483118
C56   C     C_3   0.881911 0.144179 0.761150 -0.234147
C57   C     C_2   0.364675 0.167863 0.843222 0.491408
C58   C     C_2   0.409561 0.050776 0.746615 0.476540
C59   C     C_2   0.145563 0.903869 0.632571 0.485576
C60   C     C_2   0.352957 0.011343 0.544690 0.568596
C61   C     C_2   0.631512 0.105216 0.368043 0.520268
C62   C     C_2   0.130615 0.322269 0.525873 0.403386
C63   C     C_2   0.542549 0.686952 0.073881 0.446933
C64   C     C_2   0.833220 0.401576 0.302634 0.400827
C65   C     C_3   0.389530 0.206236 0.717974 0.188369
C66   C     C_3   0.438363 0.149092 0.774511 -0.107070
C67   C     C_R   0.165242 0.166982 0.535964 -0.096627
H1    H     H_    0.324613 0.702680 0.282081 0.105620
H2    H     H_    0.676669 0.711484 0.638691 -0.060863
H3    H     H_    0.474663 0.712929 0.604792 0.066088
H4    H     H_    0.523405 0.861045 0.634493 0.100127
H5    H     H_    0.200041 0.823263 0.229431 0.106569
H6    H     H_    0.800736 0.905164 0.298515 0.113063
H7    H     H_    0.009231 0.239590 0.704538 0.162368
H8    H     H_    0.767531 0.097256 0.753206 0.151025
H9    H     H_    0.977674 0.104112 0.750379 0.151484
H10   H     H_    0.257808 0.195435 0.708398 0.028358
H11   H     H_    0.568312 0.167928 0.788047 0.048886
H12   H     H_    0.531765 0.230213 0.241521 0.170271
H13   H     H_    0.966457 0.812522 0.357891 0.089955
H14   H     H_    0.549154 0.945227 0.380029 0.097023
H15   H     H_    0.507242 0.559606 0.831752 0.087824
H16   H     H_    0.430984 0.635204 0.940636 0.060373
H17   H     H_    0.775099 0.749675 0.320536 -0.026836
H18   H     H_    0.277083 0.461528 0.190169 0.104781
H19   H     H_    0.342013 0.383476 0.076488 0.098616
H20   H     H_    0.040438 0.425018 0.862660 0.091206
H21   H     H_    0.740698 0.585005 0.146031 0.093638
H22   H     H_    0.188545 0.429028 0.655061 0.081641
H23   H     H_    0.590480 0.330241 0.207423 0.001874
H24   H     H_    0.653396 0.538909 0.356114 0.097902
H25   H     H_    0.974756 0.892456 0.252213 0.176693
H26   H     H_    0.784092 0.828603 0.216874 0.191605
H27   H     H_    0.618832 0.349185 0.342469 0.057860
H28   H     H_    0.854478 0.273145 0.177789 -0.046156
H29   H     H_    0.223431 0.640038 0.713105 -0.073506
H30   H     H_    0.224059 0.783412 0.814785 -0.046064
H31   H     H_    0.949322 0.575640 0.800459 0.214159
H32   H     H_    0.138882 0.629471 0.820377 0.126393
H33   H     H_    0.795605 0.771408 0.765715 0.216672
H34   H     H_    0.873253 0.627320 0.674000 0.121479
H35   H     H_    0.815311 0.736627 0.844033 0.210898
H36   H     H_    0.039373 0.267548 0.292006 0.190645
H37   H     H_    0.083491 0.325214 0.373806 0.213072
H38   H     H_    0.246177 0.086024 0.395983 0.060149
H39   H     H_    0.414210 0.959611 0.264775 0.047042
H40   H     H_    0.816401 0.870087 0.638342 -0.092860
H41   H     H_    0.392793 0.820876 0.738335 0.242479
H42   H     H_    0.569583 0.833654 0.785285 0.218189
H43   H     H_    0.786361 0.208910 0.596609 0.038018
H44   H     H_    0.935319 0.259200 0.851202 -0.021006
H45   H     H_    0.315843 0.264673 0.393919 0.092095
H46   H     H_    0.453382 0.351528 0.708655 0.037278
H47   H     H_    0.439233 0.200800 0.890770 0.065447
H48   H     H_    0.477165 0.025725 0.704828 0.057993
H49   H     H_    0.078111 0.918904 0.677091 0.118390
H50   H     H_    0.434170 0.000486 0.587176 0.047026
H51   H     H_    0.539889 0.141645 0.385635 0.010968
H52   H     H_    0.645444 0.656936 0.522015 0.171767
H53   H     H_    0.736866 0.636317 0.445357 0.197981
H54   H     H_    0.072543 0.363049 0.561810 0.033907
H55   H     H_    0.576109 0.734991 0.038874 0.048984
H56   H     H_    0.328307 0.769241 0.175431 0.139693
H57   H     H_    0.264581 0.322632 0.893826 0.205587
H58   H     H_    0.108603 0.337025 0.942385 0.180937
H59   H     H_    0.884624 0.407238 0.252996 -0.026671
H60   H     H_    0.185150 0.148837 0.250053 0.156428
H61   H     H_    0.374038 0.148603 0.294664 0.058263
H62   H     H_    0.515337 0.774949 0.288062 0.022482
N1    N     N_3   0.019439 0.636836 0.820137 -0.513517
N2    N     N_3   0.820593 0.718225 0.789570 -0.448355
N3    N     N_3   0.086738 0.264413 0.343342 -0.452982
N4    N     N_3   0.508826 0.855265 0.743418 -0.398497
N5    N     N_3   0.666723 0.675682 0.472986 -0.470235
N6    N     N_3   0.231057 0.337866 0.944869 -0.454691
O1    O     O_2   0.165020 0.721890 0.541560 -0.391672
O2    O     O_2   0.771246 0.445182 0.747219 -0.442323
O3    O     O_3   0.796047 0.279458 0.734947 -0.585417
O4    O     O_3   0.893030 0.608480 0.539180 -0.461109
O5    O     O_3   0.426670 0.454500 0.415370 -0.438935
O6    O     O_2   0.638230 0.542350 0.670940 -0.463636
O7    O     O_3   0.504509 0.682268 0.706072 -0.640350
O8    O     O_2   0.482520 0.184819 0.524327 -0.429119
O9    O     O_3   0.456940 0.178927 0.654645 -0.617146
O10   O     O_3   0.389120 0.667500 0.413900 -0.450036
O11   O     O_2   0.350793 0.820519 0.485715 -0.432599
O12   O     O_3   0.323728 0.316753 0.300043 -0.661492
O13   O     O_3   0.009509 0.740872 0.655670 -0.657318
O14   O     O_3   0.346826 0.820861 0.351389 -0.577422
O15   O     O_2   0.172060 0.457600 0.329040 -0.436942
O16   O     O_3   0.964390 0.622060 0.377370 -0.431978
O17   O     O_2   0.043028 0.564303 0.249267 -0.478715
O18   O     O_2   0.718619 0.154562 0.171773 -0.449647
O19   O     O_2   0.095612 0.558172 0.630925 -0.561837
O20   O     O_2   0.060487 0.861462 0.809121 -0.473716
O21   O     O_2   0.053336 0.046982 0.327549 -0.549376
O22   O     O_2   0.506056 0.915932 0.176080 -0.477570
O23   O     O_3   0.975331 0.725168 0.266655 -0.571229
O24   O     O_2   0.809056 0.930249 0.736421 -0.516685
O25   O     O_2   0.766056 0.087332 0.622262 -0.610015
O26   O     O_2   0.888110 0.141834 0.884330 -0.486401
O27   O     O_2   0.507424 0.331360 0.805725 -0.601662
O28   O     O_2   0.222502 0.146176 0.846387 -0.528812
O29   O     O_2   0.317365 0.998093 0.772368 -0.489037
O30   O     O_2   0.260058 0.867670 0.640070 -0.584772
O31   O     O_2   0.399443 0.015198 0.486474 -0.587217
O32   O     O_2   0.654050 0.093060 0.305446 -0.510841
O33   O     O_2   0.229001 0.357430 0.491249 -0.515154
O34   O     O_2   0.645270 0.278050 0.458420 -0.473809
O35   O     O_2   0.566510 0.711754 0.137572 -0.595836
O36   O     O_2   0.879248 0.457906 0.353642 -0.507774
O37   O     O_3   0.917270 0.391510 0.460760 -0.421198
O38   O     O_3   0.421180 0.332490 0.586040 -0.455585
O39   O     O_3   0.786309 0.265507 0.344493 -0.600831
O40   O     O_3   0.383630 0.545490 0.584580 -0.411138
O41   O     O_3   0.845910 0.377930 0.622570 -0.487990
P1    P     P_3+3 0.990700 0.707490 0.561920 1.072223
P2    P     P_3+3 0.340130 0.430100 0.338870 1.034359
P3    P     P_3+3 0.923556 0.617538 0.285997 1.035528
P4    P     P_3+3 0.819590 0.292500 0.438020 1.035229
P5    P     P_3+3 0.881913 0.383000 0.714665 0.947249
P6    P     P_3+3 0.439404 0.784097 0.423573 1.016446
P7    P     P_3+3 0.467280 0.567071 0.674937 1.012698
P8    P     P_3+3 0.372602 0.215983 0.579391 0.937299

loop_
_geom_bond_atom_site_label_1
_geom_bond_atom_site_label_2
_ccdc_geom_bond_type
O10   P6    S    
C66   H11   S    
C60   O31   D    
H57   N6    S    
C16   H6    S    
C29   H16   S    
C53   H43   S    
C12   H1    S    
C38   H15   S    
O34   P4    D    
C2    C6    A    
O37   P4    S    
O14   P6    S    
C55   H46   S    
O39   P4    S    
C9    P4    S    
C54   O26   D    
C24   C25   A    
C25   H21   S    
C4    H13   S    
C8    N5    S    
C45   H7    S    
C32   C33   A    
C57   C66   S    
Ba1   P2    S    
C61   O32   D    
C43   C49   S    
C13   C14   A    
O17   P3    D    
C15   C18   A    
O40   P7    S    
Ba1   O15   S    
Ba1   Ba2   S    
Ba2   P4    S    
C63   H55   S    
C2    C11   A    
C1    H5    S    
C5    C59   S    
C19   C62   S    
C28   H27   S    
Ba1   O5    S    
C56   H8    S    
Ba1   O40   S    
O5    P2    S    
C50   H38   S    
C8    C18   A    
C57   H47   S    
C45   O3    S    
C54   H44   S    
C64   O36   D    
C23   H2    S    
Ba2   O40   S    
C7    C8    A    
O41   P5    S    
C7    P1    S    
O11   P6    D    
Ba2   O34   S    
C18   P6    S    
Ba2   O6    S    
H52   N5    S    
C34   C52   S    
C20   C26   A    
C1    C51   S    
C50   O21   D    
C16   H26   S    
O6    P7    D    
C46   H61   S    
H41   N4    S    
C40   H12   S    
C55   C65   S    
C62   O33   D    
O1    P1    D    
C28   O39   S    
C2    C67   A    
C42   H34   S    
C47   O18   D    
C12   H62   S    
C54   C56   S    
C49   H30   S    
C4    C16   S    
C44   C46   S    
Ba1   O37   S    
C48   H29   S    
O3    P5    S    
C51   O22   D    
H35   N2    S    
C11   C17   A    
C63   O35   D    
C65   C66   S    
C5    C6    A    
C65   H10   S    
C48   O19   D    
C37   C38   A    
C3    C5    A    
C44   H45   S    
C14   C15   A    
C37   C41   A    
C40   C47   S    
O7    P7    S    
C31   N6    S    
C49   O20   D    
C14   H14   S    
C42   O13   S    
C36   P5    S    
C52   H40   S    
C19   C67   A    
C59   O30   D    
O15   P2    D    
C26   P3    S    
C3    C7    A    
C35   C36   A    
Ba2   O38   S    
C44   N3    S    
C29   C30   A    
C10   C13   A    
H37   N3    S    
C21   C22   A    
O13   P1    S    
C65   O9    S    
C1    H56   S    
C31   C32   A    
C21   P2    S    
C58   H48   S    
C23   H3    S    
C32   H19   S    
Ba1   O16   S    
H53   N5    S    
C60   H50   S    
C28   C64   S    
C1    C12   S    
C27   C63   S    
C38   C39   A    
O16   P3    S    
Ba2   O5    S    
C20   H24   S    
C46   H60   S    
Ba1   O10   S    
C23   O7    S    
C30   C39   S    
C34   N4    S    
O23   P3    S    
O2    P5    D    
C42   C43   S    
C45   C53   S    
C42   C48   S    
C59   H49   S    
O4    P1    S    
O9    P8    S    
C53   O25   D    
C22   C24   A    
C57   O28   D    
C4    O23   S    
C9    C10   A    
H31   N1    S    
C3    C17   A    
C62   H54   S    
Ba2   O41   S    
C27   C33   A    
C43   N2    S    
C4    H17   S    
C35   H20   S    
O8    P8    D    
C30   C31   A    
H33   N2    S    
C36   C41   A    
C27   C29   A    
Ba2   O37   S    
C45   C56   S    
C61   H51   S    
Ba1   P1    S    
C51   H39   S    
H42   N4    S    
C55   O27   D    
C12   O14   S    
C16   H25   S    
C15   C17   A    
C9    C19   A    
C40   H23   S    
O12   P2    S    
C52   O24   D    
C35   C39   A    
C22   H18   S    
C41   H22   S    
Ba1   O4    S    
C34   H4    S    
C56   H9    S    
C23   C34   S    
C47   H28   S    
C37   P7    S    
H32   N1    S    
C24   C33   S    
C46   C50   S    
C44   O12   S    
C10   C11   A    
C58   C66   S    
C43   N1    S    
C58   O29   D    
C25   C26   A    
Ba2   O4    S    
C13   C61   S    
C20   C21   A    
C28   C40   S    
H58   N6    S    
C64   H59   S    
C67   P8    S    
Ba1   O1    S    
C6    C60   S    
H36   N3    S    
O38   P8    S    
