data_mof_unit_333.cif
_audit_creation_date              2013-03-05T16:04:29-0500
_audit_creation_method            fapswitch 2.2
_symmetry_space_group_name_H-M    P1
_symmetry_Int_Tables_number       1
_space_group_crystal_system       triclinic
_cell_length_a                    10.820995
_cell_length_b                    9.697753
_cell_length_c                    15.046585
_cell_angle_alpha                 90.25879
_cell_angle_beta                  95.037599
_cell_angle_gamma                 89.967381
_cell_volume                      1572.86344507

loop_
_atom_site_label
_atom_site_type_symbol
_atom_site_description
_atom_site_fract_x
_atom_site_fract_y
_atom_site_fract_z
_atom_type_partial_charge
O1    O     O_R   0.319640 0.618740 0.499990 -0.592490
O2    O     O_R   0.680360 0.381260 0.500010 -0.593388
O3    O     O_R   0.680360 0.618740 0.500010 -0.586660
O4    O     O_R   0.319640 0.381260 0.499990 -0.585576
C1    C     C_R   0.262512 0.500021 0.499215 0.749433
C2    C     C_R   0.737463 0.499982 0.500547 0.754862
O5    O     O_R   0.499970 0.618800 0.370260 -0.573649
O6    O     O_R   0.500030 0.381200 0.629740 -0.567007
O7    O     O_R   0.500030 0.618800 0.629740 -0.579974
O8    O     O_R   0.499970 0.381200 0.370260 -0.578442
C3    C     C_R   0.498118 0.499743 0.329411 0.799498
C4    C     C_R   0.501119 0.500311 0.670578 0.799454
Cu1   Cu    Cu3+1 0.500000 0.640660 0.500000 0.937145
Cu2   Cu    Cu3+1 0.500000 0.359340 0.500000 0.941555
C5    C     C_R   0.605261 0.536193 0.821164 0.094682
C6    C     C_R   0.385562 0.470608 0.180284 0.089980
C7    C     C_R   0.497147 0.502059 0.767017 -0.161786
C8    C     C_R   0.496860 0.499438 0.232655 -0.158075
C9    C     C_R   0.386340 0.467701 0.804749 0.354519
C10   C     C_R   0.604519 0.537965 0.192639 0.324821
C11   C     C_R   0.386465 0.461793 0.898529 -0.024935
C12   C     C_R   0.596203 0.560594 0.100012 -0.047403
C13   C     C_R   0.491428 0.511234 0.952589 -0.122717
C14   C     C_R   0.491605 0.509788 0.046456 -0.110212
C15   C     C_R   0.596729 0.561481 0.912919 0.052116
C16   C     C_R   0.388759 0.454834 0.086911 0.057945
C17   C     C_R   0.285858 0.403897 0.939764 0.405573
C18   C     C_R   0.690393 0.632106 0.059426 0.430000
C19   C     C_R   0.292610 0.388316 0.032549 0.087870
C20   C     C_R   0.688928 0.635962 0.966246 0.106235
C21   C     C_R   0.064020 0.374746 0.500038 -0.156576
C22   C     C_R   0.935930 0.625259 0.499488 -0.161336
C23   C     C_R   0.936225 0.374726 0.500627 -0.173621
C24   C     C_R   0.063725 0.625278 0.498893 -0.174394
H1    H     H_    0.112074 0.276727 0.500376 0.157748
H2    H     H_    0.887878 0.723281 0.499173 0.156221
H3    H     H_    0.888409 0.276700 0.501229 0.154740
H4    H     H_    0.111544 0.723302 0.498297 0.155476
C25   C     C_R   0.871573 0.499980 0.500359 -0.012326
C26   C     C_R   0.128381 0.500024 0.499217 -0.012899
C27   C     C_R   0.419187 0.073633 0.441781 0.243910
C28   C     C_R   0.580811 0.926401 0.558232 0.243842
C29   C     C_R   0.580912 0.074472 0.558217 0.240505
C30   C     C_R   0.419112 0.925586 0.441788 0.237699
N1    N     N_R   0.500000 0.852070 0.500000 -0.190236
N2    N     N_R   0.500000 0.147930 0.500000 -0.189960
C31   C     C_3   0.730043 0.520656 0.783118 -0.845416
H5    H     H_    0.806867 0.507386 0.836139 0.251931
H6    H     H_    0.730991 0.425688 0.741791 0.218943
H7    H     H_    0.749123 0.609963 0.740920 0.219524
C32   C     C_3   0.263588 0.480330 0.222817 -0.836221
H8    H     H_    0.185460 0.506592 0.173148 0.256230
H9    H     H_    0.243761 0.383219 0.257195 0.222885
H10   H     H_    0.266504 0.565561 0.272296 0.213284
O9    O     O_3   0.279804 0.432197 0.751823 -0.699000
H11   H     H_    0.282357 0.469474 0.691008 0.315978
O10   O     O_3   0.718204 0.553860 0.241700 -0.704821
H12   H     H_    0.716952 0.509946 0.300800 0.319724
O11   O     O_3   0.182875 0.352759 0.890332 -0.672422
H13   H     H_    0.135967 0.434881 0.867086 0.346122
O12   O     O_3   0.780888 0.707066 0.108803 -0.686070
H14   H     H_    0.740459 0.756812 0.156154 0.351853
C33   C     C_3   0.204705 0.285820 0.069316 -0.759592
H15   H     H_    0.192249 0.194645 0.024422 0.258714
H16   H     H_    0.242553 0.243554 0.134405 0.221952
H17   H     H_    0.112416 0.333684 0.074639 0.239662
C34   C     C_3   0.774551 0.738214 0.926608 -0.768359
H18   H     H_    0.776335 0.836979 0.964384 0.249133
H19   H     H_    0.870387 0.696538 0.929710 0.241335
H20   H     H_    0.741941 0.766453 0.857246 0.221715
C35   C     C_3   0.327109 0.144701 0.375198 -0.783902
H21   H     H_    0.328158 0.255883 0.376671 0.275562
H22   H     H_    0.345388 0.115937 0.306109 0.204992
H23   H     H_    0.230920 0.115818 0.387434 0.195323
C36   C     C_3   0.672810 0.855368 0.624874 -0.785390
H24   H     H_    0.671883 0.744202 0.623289 0.274742
H25   H     H_    0.769019 0.884398 0.612796 0.194847
H26   H     H_    0.654290 0.883993 0.693936 0.206050
C37   C     C_3   0.673466 0.146306 0.624732 -0.761900
H27   H     H_    0.673358 0.257725 0.623922 0.269746
H28   H     H_    0.655456 0.118138 0.693800 0.209953
H29   H     H_    0.769439 0.116615 0.612241 0.193622
C38   C     C_3   0.326646 0.853838 0.375247 -0.765844
H30   H     H_    0.326806 0.742532 0.376331 0.270489
H31   H     H_    0.230637 0.883605 0.387588 0.195190
H32   H     H_    0.344877 0.881741 0.306177 0.207267

loop_
_geom_bond_atom_site_label_1
_geom_bond_atom_site_label_2
_geom_bond_distance
_ccdc_geom_bond_type
O9    H11   0.988026 S    
C19   C33   1.515698 S    
C3    C8    1.454711 S    
C17   C19   1.400449 A    
C6    C32   1.519279 S    
C5    C31   1.519331 S    
C30   C38   1.518646 S    
C33   H16   1.108110 S    
Cu2   N2    2.050203 S    
O5    C3    1.304876 A    
C28   C36   1.516974 S    
C23   C25   1.401249 A    
C24   C26   1.401233 A    
C22   H2    1.083074 S    
C12   C14   1.417768 A    
C9    C11   1.412380 A    
C14   C16   1.419734 A    
C5    C15   1.412092 A    
C29   C37   1.519359 S    
C21   C26   1.401372 A    
C22   C25   1.401395 A    
O7    Cu1   1.964544 S    
C38   H30   1.079607 S    
C4    C7    1.455502 S    
C27   N2    1.382648 A    
C21   C23   1.383675 A    
C20   C34   1.516875 S    
O3    Cu1   1.963083 S    
C27   C35   1.517103 S    
C18   O12   1.381128 S    
O3    C2    1.306388 A    
C11   C17   1.416983 A    
C33   H17   1.110121 S    
O11   H13   0.992534 S    
C12   C18   1.416562 A    
Cu1   Cu2   2.728172 S    
O2    C2    1.306640 A    
C29   N2    1.382612 A    
C31   H7    1.106368 S    
C6    C16   1.416000 A    
C34   H18   1.110859 S    
C31   H6    1.109470 S    
O8    Cu2   1.964544 S    
C35   H22   1.109519 S    
C33   H15   1.111322 S    
C23   H3    1.083032 S    
C32   H8    1.108445 S    
C34   H19   1.110027 S    
C28   N1    1.382919 A    
C22   C24   1.383686 A    
C36   H24   1.078252 S    
O7    C4    1.305058 A    
C37   H29   1.109155 S    
C31   H5    1.108351 S    
O6    C4    1.305496 A    
C36   H25   1.109127 S    
C38   H31   1.109147 S    
C10   C12   1.406925 A    
C11   C13   1.420014 A    
C27   C30   1.435725 A    
C21   H1    1.083058 S    
O1    Cu1   1.963324 S    
C28   C29   1.435961 A    
O1    C1    1.306607 A    
C30   N1    1.382707 A    
C37   H28   1.109413 S    
C9    O9    1.385090 S    
C15   C20   1.419822 A    
C5    C7    1.404513 A    
O6    Cu2   1.962640 S    
C24   H4    1.083030 S    
O4    C1    1.306432 A    
C35   H23   1.109137 S    
C32   H10   1.108505 S    
C34   H20   1.107502 S    
C18   C20   1.401413 A    
C35   H21   1.078393 S    
C17   O11   1.375758 S    
Cu1   N1    2.050202 S    
O10   H12   0.988855 S    
C7    C9    1.411655 A    
C8    C10   1.408892 A    
C13   C15   1.419443 A    
O4    Cu2   1.963084 S    
O12   H14   0.991529 S    
O2    Cu2   1.963323 S    
C36   H26   1.109486 S    
O8    C3    1.305354 A    
C13   C14   1.412353 A    
C37   H27   1.080646 S    
O5    Cu1   1.962640 S    
C38   H32   1.109431 S    
C16   C19   1.419223 A    
C6    C8    1.407598 A    
C1    C26   1.451436 S    
C2    C25   1.451458 S    
C32   H9    1.106623 S    
C10   O10   1.386280 S    
