data_mof_unit_4116.cif
_audit_creation_date              2012-12-10T17:17:50-0500
_audit_creation_method            fapswitch 2.2
_symmetry_space_group_name_H-M    P1
_symmetry_Int_Tables_number       1
_space_group_crystal_system       triclinic
_cell_length_a                    14.987318
_cell_length_b                    15.635457
_cell_length_c                    9.582334
_cell_angle_alpha                 89.568427
_cell_angle_beta                  90.609448
_cell_angle_gamma                 90.680627
_cell_volume                      2245.11545838

loop_
_atom_site_label
_atom_site_type_symbol
_atom_type_description
_atom_site_fract_x
_atom_site_fract_y
_atom_site_fract_z
_atom_type_partial_charge
C1    C     C_R   0.380714 0.882077 0.499883 0.846818
C2    C     C_R   0.384538 0.122125 0.499883 0.796118
C3    C     C_R   0.880714 0.382077 0.499883 0.846817
C4    C     C_R   0.884538 0.622125 0.499883 0.796118
C5    C     C_R   0.274793 0.215030 0.376958 0.487996
C6    C     C_R   0.332346 0.735720 0.451545 0.497170
C7    C     C_R   0.774793 0.715029 0.376958 0.487996
C8    C     C_R   0.832346 0.235720 0.451545 0.497170
C9    C     C_R   0.709145 0.776658 0.380517 -0.301629
C10   C     C_R   0.766759 0.172362 0.449547 -0.295604
C11   C     C_R   0.209145 0.276658 0.380517 -0.301629
C12   C     C_R   0.266759 0.672362 0.449547 -0.295604
C13   C     C_R   0.677332 0.806509 0.507197 -0.194002
C14   C     C_R   0.681828 0.188991 0.499820 -0.152805
C15   C     C_R   0.177332 0.306509 0.507197 -0.194002
C16   C     C_R   0.181828 0.688990 0.499820 -0.152804
C17   C     C_R   0.664417 0.001205 0.146505 -0.146306
C18   C     C_R   0.164416 0.501205 0.146505 -0.146306
C19   C     C_R   0.744563 0.000944 0.075301 -0.204089
C20   C     C_R   0.244562 0.500944 0.075301 -0.204089
C21   C     C_R   0.744423 0.000707 0.931538 -0.192342
C22   C     C_R   0.244423 0.500707 0.931538 -0.192342
C23   C     C_R   0.664126 0.000762 0.858144 -0.134797
C24   C     C_R   0.164126 0.500762 0.858144 -0.134797
C25   C     C_R   0.580737 0.000598 0.926345 0.192207
C26   C     C_R   0.080737 0.500598 0.926345 0.192207
C27   C     C_R   0.580768 0.000765 0.076036 0.206142
C28   C     C_R   0.080768 0.500765 0.076036 0.206142
C29   C     C_R   0.423285 0.998136 0.072693 -0.025054
C30   C     C_R   0.923285 0.498136 0.072693 -0.025054
C31   C     C_R   0.617964 0.119306 0.499994 0.790527
C32   C     C_R   0.614640 0.877540 0.501814 0.831520
C33   C     C_R   0.117964 0.619306 0.499994 0.790527
C34   C     C_R   0.114639 0.377540 0.501814 0.831519
C35   C     C_R   0.423253 0.998701 0.924691 -0.069140
C36   C     C_R   0.923253 0.498701 0.924691 -0.069140
C37   C     C_R   0.346205 0.225111 0.755551 -0.153931
C38   C     C_R   0.201896 0.919421 0.591772 -0.161234
C39   C     C_R   0.846205 0.725111 0.755551 -0.153931
C40   C     C_R   0.701896 0.419421 0.591771 -0.161234
C41   C     C_R   0.310007 0.246861 0.883550 -0.146104
C42   C     C_R   0.115421 0.936754 0.634951 -0.144074
C43   C     C_R   0.810006 0.746861 0.883550 -0.146104
C44   C     C_R   0.615421 0.436754 0.634951 -0.144074
C45   C     C_R   0.722233 0.773458 0.889797 -0.138299
C46   C     C_R   0.550459 0.372401 0.633808 -0.144028
C47   C     C_R   0.222233 0.273458 0.889797 -0.138298
C48   C     C_R   0.050459 0.872401 0.633808 -0.144027
C49   C     C_R   0.674003 0.786986 0.766802 -0.157972
C50   C     C_R   0.571751 0.290401 0.589755 -0.140649
C51   C     C_R   0.174003 0.286986 0.766802 -0.157972
C52   C     C_R   0.071751 0.790401 0.589755 -0.140649
C53   C     C_R   0.713767 0.774887 0.634737 0.080545
C54   C     C_R   0.659105 0.271138 0.547180 0.103523
C55   C     C_R   0.213767 0.274887 0.634738 0.080546
C56   C     C_R   0.159105 0.771138 0.547180 0.103522
C57   C     C_R   0.294810 0.230330 0.630334 0.029962
C58   C     C_R   0.224940 0.836457 0.547504 0.022562
C59   C     C_R   0.794810 0.730330 0.630334 0.029962
C60   C     C_R   0.724940 0.336457 0.547504 0.022563
C61   C     C_R   0.320311 0.192572 0.501666 -0.229948
C62   C     C_R   0.311354 0.817482 0.499799 -0.209422
C63   C     C_R   0.820311 0.692572 0.501666 -0.229948
C64   C     C_R   0.811354 0.317482 0.499799 -0.209422
Cu1   Cu    Cu3+1 0.499990 0.000000 0.640660 0.913277
Cu2   Cu    Cu3+1 0.999990 0.500000 0.640660 0.913276
Cu3   Cu    Cu3+1 0.500010 0.000000 0.359340 0.967422
Cu4   Cu    Cu3+1 0.000010 0.500000 0.359340 0.967422
H1    H     H_    0.807029 0.000324 0.876126 0.147782
H2    H     H_    0.307029 0.500324 0.876126 0.147782
H3    H     H_    0.671738 0.000357 0.748286 0.201482
H4    H     H_    0.171738 0.500357 0.748286 0.201482
H5    H     H_    0.360322 0.997649 0.868319 0.142207
H6    H     H_    0.860322 0.497649 0.868319 0.142207
H7    H     H_    0.415223 0.206541 0.757307 0.166260
H8    H     H_    0.249836 0.971704 0.591889 0.129250
H9    H     H_    0.915223 0.706541 0.757308 0.166260
H10   H     H_    0.749836 0.471704 0.591889 0.129250
H11   H     H_    0.349455 0.240756 0.978297 0.184053
H12   H     H_    0.098567 0.000557 0.668111 0.126189
H13   H     H_    0.849455 0.740756 0.978297 0.184053
H14   H     H_    0.598567 0.500557 0.668110 0.126189
H15   H     H_    0.692113 0.785754 0.989761 0.151060
H16   H     H_    0.483124 0.386208 0.665916 0.132567
H17   H     H_    0.192113 0.285754 0.989761 0.151060
H18   H     H_    0.983124 0.886208 0.665916 0.132567
H19   H     H_    0.605049 0.804430 0.778007 0.164259
H20   H     H_    0.519123 0.242816 0.586773 0.118407
H21   H     H_    0.105049 0.304430 0.778007 0.164259
H22   H     H_    0.019123 0.742816 0.586773 0.118407
H23   H     H_    0.681942 0.799832 0.282247 0.184172
H24   H     H_    0.782661 0.109453 0.410620 0.144868
H25   H     H_    0.181942 0.299832 0.282247 0.184173
H26   H     H_    0.282662 0.609453 0.410620 0.144867
H27   H     H_    0.360598 0.995518 0.127194 0.137700
H28   H     H_    0.860598 0.495518 0.127194 0.137700
H29   H     H_    0.672568 0.001540 0.256525 0.195087
H30   H     H_    0.172568 0.501540 0.256525 0.195087
H31   H     H_    0.807301 0.000947 0.132458 0.157053
H32   H     H_    0.307301 0.500947 0.132458 0.157053
N1    N     N_R   0.501200 0.000000 0.147910 -0.197744
N2    N     N_R   0.001200 0.500000 0.147910 -0.197744
N3    N     N_R   0.501270 0.000000 0.852040 -0.204892
N4    N     N_R   0.001270 0.500000 0.852040 -0.204892
O1    O     O_R   0.409820 0.909830 0.618810 -0.594705
O2    O     O_R   0.409820 0.090170 0.618810 -0.606535
O3    O     O_R   0.909820 0.409830 0.618810 -0.594705
O4    O     O_R   0.909820 0.590170 0.618810 -0.606534
O5    O     O_R   0.409840 0.909830 0.381240 -0.555693
O6    O     O_R   0.409840 0.090170 0.381240 -0.521076
O7    O     O_R   0.909840 0.409830 0.381240 -0.555693
O8    O     O_R   0.909840 0.590170 0.381240 -0.521076
O9    O     O_R   0.590170 0.090170 0.618760 -0.602904
O10   O     O_R   0.590170 0.909830 0.618760 -0.619595
O11   O     O_R   0.090170 0.590170 0.618760 -0.602904
O12   O     O_R   0.090170 0.409830 0.618760 -0.619595
O13   O     O_R   0.590190 0.090180 0.381190 -0.589644
O14   O     O_R   0.590190 0.909820 0.381190 -0.596114
O15   O     O_R   0.090190 0.590180 0.381190 -0.589644
O16   O     O_R   0.090190 0.409820 0.381190 -0.596114
O17   O     O_3   0.299614 0.182817 0.249073 -0.566516
C65   C     C_3   0.231369 0.127547 0.199369 -0.339067
H33   H     H_    0.166976 0.161132 0.183889 0.161079
H34   H     H_    0.222372 0.071619 0.270659 0.162403
H35   H     H_    0.250829 0.103246 0.095807 0.178454
O18   O     O_3   0.416102 0.719017 0.399543 -0.568620
C66   C     C_3   0.466887 0.678227 0.504804 -0.349888
H36   H     H_    0.436926 0.615343 0.534791 0.156214
H37   H     H_    0.475109 0.719680 0.598168 0.155282
H38   H     H_    0.534436 0.665942 0.463733 0.192805
O19   O     O_3   0.799614 0.682817 0.249073 -0.566516
C67   C     C_3   0.731369 0.627546 0.199369 -0.339068
H39   H     H_    0.666976 0.661131 0.183889 0.161079
H40   H     H_    0.722372 0.571619 0.270659 0.162403
H41   H     H_    0.750829 0.603246 0.095807 0.178455
O20   O     O_3   0.916102 0.219017 0.399543 -0.568620
C68   C     C_3   0.966888 0.178230 0.504805 -0.349890
H42   H     H_    0.936927 0.115348 0.534799 0.156214
H43   H     H_    0.975112 0.219685 0.598164 0.155284
H44   H     H_    0.034436 0.165942 0.463734 0.192805

loop_
_geom_bond_atom_site_label_1
_geom_bond_atom_site_label_2
_ccdc_geom_bond_type
C58   C62   A    
Cu2   Cu4   S    
C42   H12   S    
O18   C66   S    
C40   C60   A    
C8    O20   S    
Cu1   O10   S    
C49   H19   S    
C13   C32   S    
C52   H22   S    
C14   C31   S    
C1    C62   S    
C9    H23   S    
C66   H37   S    
C53   C59   A    
C54   C60   A    
C3    C64   S    
C4    O4    A    
C4    C63   S    
C24   H4    S    
C50   C54   A    
Cu2   O12   S    
C47   H17   S    
C22   C24   A    
C19   C21   A    
C24   C26   A    
C5    C11   A    
C35   N3    A    
Cu4   O15   S    
C6    C12   A    
C34   O12   A    
C5    O17   S    
Cu4   O8    S    
C9    C13   A    
C31   O13   A    
C30   H28   S    
C1    O5    A    
C38   C58   A    
C11   C15   A    
Cu3   O5    S    
C35   H5    S    
C12   C16   A    
C3    O7    A    
C67   H39   S    
Cu1   Cu3   S    
C44   H14   S    
C40   C44   A    
Cu4   N2    S    
Cu2   O3    S    
C15   C34   S    
C51   C55   A    
C2    C61   S    
C50   H20   S    
C26   N4    A    
C11   H25   S    
C4    O8    A    
C10   H24   S    
C38   H8    S    
C37   C41   A    
C12   H26   S    
C45   H15   S    
Cu1   O1    S    
C44   C46   A    
C13   C53   A    
C56   C58   A    
C34   O16   A    
C68   H44   S    
C33   O11   A    
Cu2   O11   S    
C29   N1    A    
C17   C27   A    
Cu2   N4    S    
C18   C28   A    
C6    O18   S    
C10   C14   A    
C32   O14   A    
C29   H27   S    
C19   H31   S    
C25   N3    A    
C39   C43   A    
C3    O3    A    
C2    O2    A    
C21   H1    S    
Cu4   O7    S    
C15   C55   A    
C16   C56   A    
C23   H3    S    
C16   C33   S    
C68   H43   S    
Cu3   O6    S    
C20   H32   S    
C45   C49   A    
C39   C59   A    
C30   N2    A    
C41   C47   A    
C5    C61   A    
C42   C48   A    
Cu3   O13   S    
C7    C63   A    
O17   C65   S    
C36   H6    S    
C8    C64   A    
C46   H16   S    
C40   H10   S    
C67   H40   S    
C14   C54   A    
C20   C22   A    
C33   O15   A    
C21   C23   A    
C43   H13   S    
C48   H18   S    
C59   C63   A    
Cu1   N3    S    
C65   H34   S    
O19   C67   S    
C39   H9    S    
Cu1   O2    S    
Cu3   N1    S    
C7    C9    A    
C46   C50   A    
C2    O6    A    
Cu1   O9    S    
Cu2   O4    S    
O20   C68   S    
C41   H11   S    
C47   C51   A    
C57   C61   A    
C66   H36   S    
C25   C27   A    
C68   H42   S    
C29   C35   A    
C26   C28   A    
C30   C36   A    
C60   C64   A    
C6    C62   A    
C65   H35   S    
C55   C57   A    
C66   H38   S    
C7    O19   S    
C43   C45   A    
Cu4   O16   S    
C36   N4    A    
C67   H41   S    
C49   C53   A    
C17   C19   A    
C27   N1    A    
C18   C20   A    
C23   C25   A    
C37   H7    S    
Cu3   O14   S    
C37   C57   A    
C38   C42   A    
C28   N2    A    
C31   O9    A    
C48   C52   A    
C8    C10   A    
C18   H30   S    
C32   O10   A    
C65   H33   S    
C17   H29   S    
C22   H2    S    
C51   H21   S    
C52   C56   A    
C1    O1    A    
