data_mof_unit_1389.cif
_audit_creation_date              2012-10-26T20:07:05-0400
_audit_creation_method            fapswitch 2.2
_symmetry_space_group_name_H-M    P1
_symmetry_Int_Tables_number       1
_space_group_crystal_system       triclinic
_cell_length_a                    10.827054
_cell_length_b                    9.507489
_cell_length_c                    27.82858
_cell_angle_alpha                 89.999227
_cell_angle_beta                  90.234077
_cell_angle_gamma                 90.000391
_cell_volume                      2864.59715562

loop_
_atom_site_label
_atom_site_type_symbol
_atom_type_description
_atom_site_fract_x
_atom_site_fract_y
_atom_site_fract_z
_atom_type_partial_charge
C1    C     C_R   0.262032 0.500013 0.499985 0.570822
C2    C     C_R   0.387880 0.475812 0.872419 0.026264
C3    C     C_R   0.508322 0.499537 0.354586 -0.014432
C4    C     C_R   0.491746 0.499529 0.645409 -0.014361
C5    C     C_R   0.386026 0.478440 0.974351 0.019521
C6    C     C_R   0.614206 0.479295 0.025634 0.019526
C7    C     C_R   0.614101 0.486487 0.974618 0.019596
C8    C     C_R   0.386089 0.485624 0.025368 0.019602
C9    C     C_R   0.499998 0.482948 0.949249 0.034783
C10   C     C_R   0.500210 0.482940 0.050737 0.034776
C11   C     C_R   0.275539 0.466234 0.947305 -0.138427
C12   C     C_R   0.737968 0.500013 0.500014 0.570681
C13   C     C_R   0.724761 0.467915 0.052680 -0.138406
C14   C     C_R   0.276724 0.465050 0.897408 -0.107432
C15   C     C_R   0.723582 0.466704 0.102577 -0.107415
C16   C     C_R   0.503687 0.500066 0.407504 0.579691
C17   C     C_R   0.496335 0.500063 0.592494 0.579801
C18   C     C_R   0.275620 0.497121 0.052133 -0.138388
C19   C     C_R   0.724500 0.498818 0.947852 -0.138409
C20   C     C_R   0.063864 0.372232 0.500005 -0.127208
C21   C     C_R   0.936128 0.627911 0.499968 -0.121880
C22   C     C_R   0.936135 0.372232 0.500012 -0.127249
C23   C     C_R   0.500371 0.484308 0.101830 -0.026635
C24   C     C_R   0.063873 0.627911 0.500015 -0.121963
C25   C     C_R   0.871786 0.500060 0.499988 0.034596
C26   C     C_R   0.128214 0.500060 0.500012 0.034645
C27   C     C_R   0.423236 0.074451 0.470045 0.025081
C28   C     C_R   0.576756 0.925532 0.529956 0.028190
C29   C     C_R   0.576765 0.074449 0.529955 0.025057
C30   C     C_R   0.423245 0.925534 0.470043 0.028261
C31   C     C_R   0.390945 0.497245 0.177758 0.403623
C32   C     C_R   0.609180 0.498072 0.822228 0.403633
C33   C     C_R   0.610541 0.478185 0.177994 0.403685
C34   C     C_R   0.499829 0.484325 0.898155 -0.026629
C35   C     C_R   0.389695 0.477415 0.821991 0.403704
C36   C     C_R   0.560506 0.604963 0.277638 -0.055595
C37   C     C_R   0.439262 0.604742 0.722357 -0.055576
C38   C     C_R   0.567161 0.607828 0.327977 0.026028
C39   C     C_R   0.432599 0.607594 0.672018 0.026020
C40   C     C_R   0.449510 0.388959 0.329991 -0.155260
C41   C     C_R   0.550927 0.389197 0.670000 -0.155296
C42   C     C_R   0.446656 0.386001 0.280003 -0.050564
C43   C     C_R   0.553835 0.386269 0.719987 -0.050578
C44   C     C_R   0.501611 0.494135 0.253625 0.208717
C45   C     C_R   0.388576 0.493696 0.127309 0.026037
C46   C     C_R   0.498531 0.494165 0.746365 0.208809
C47   C     C_2   0.356908 0.719253 0.649024 0.591496
C48   C     C_2   0.642559 0.719748 0.350967 0.591533
C49   C     C_R   0.611569 0.494547 0.872676 0.026020
C50   C     C_R   0.277126 0.501045 0.102026 -0.108361
C51   C     C_R   0.722973 0.502732 0.897959 -0.108379
C52   C     C_R   0.612366 0.476621 0.127566 0.026281
Cu1   Cu    Cu3+1 0.500000 0.640660 0.500000 0.998453
Cu2   Cu    Cu3+1 0.500000 0.359340 0.500000 0.970290
H1    H     H_    0.404300 0.305054 0.349538 0.136458
H2    H     H_    0.810117 0.512500 0.879244 0.169249
H3    H     H_    0.394862 0.686381 0.743282 0.166614
H4    H     H_    0.604645 0.686797 0.256717 0.166692
H5    H     H_    0.189460 0.456032 0.878458 0.169787
H6    H     H_    0.810897 0.458337 0.121527 0.169774
H7    H     H_    0.186045 0.454580 0.963548 0.107600
H8    H     H_    0.814322 0.456943 0.036437 0.107536
H9    H     H_    0.185884 0.506731 0.035654 0.107494
H10   H     H_    0.814179 0.509102 0.964332 0.107558
H11   H     H_    0.111922 0.272296 0.499993 0.131618
H12   H     H_    0.596389 0.305482 0.650447 0.136282
H13   H     H_    0.888047 0.727837 0.499928 0.127755
H14   H     H_    0.888077 0.272295 0.500038 0.131600
H15   H     H_    0.111954 0.727838 0.500040 0.127693
H16   H     H_    0.233633 0.771956 0.597457 0.336617
H17   H     H_    0.765793 0.772848 0.402500 0.336613
H18   H     H_    0.361769 0.130660 0.446064 0.108788
H19   H     H_    0.638212 0.869311 0.553935 0.113318
H20   H     H_    0.638233 0.130657 0.553936 0.108776
H21   H     H_    0.361791 0.869314 0.446064 0.113337
H22   H     H_    0.401734 0.299372 0.261689 0.152108
H23   H     H_    0.599062 0.299843 0.738302 0.151966
H24   H     H_    0.189927 0.510157 0.120740 0.169227
N1    N     N_R   0.500922 0.489552 0.202028 -0.396275
N2    N     N_R   0.499248 0.489581 0.797959 -0.396306
N3    N     N_R   0.500000 0.852070 0.500000 -0.226385
N4    N     N_R   0.500000 0.147930 0.500000 -0.227657
O1    O     O_R   0.319640 0.618740 0.500000 -0.500010
O2    O     O_2   0.715732 0.511272 0.797629 -0.485156
O3    O     O_2   0.282837 0.466061 0.797134 -0.480296
O4    O     O_2   0.717462 0.467572 0.202849 -0.480356
O5    O     O_2   0.357437 0.838451 0.665562 -0.514101
O6    O     O_R   0.280996 0.687187 0.609742 -0.670114
O7    O     O_2   0.641633 0.838970 0.334449 -0.514292
O8    O     O_R   0.718660 0.687912 0.390216 -0.670017
O9    O     O_R   0.680360 0.381260 0.500000 -0.513244
O10   O     O_R   0.680360 0.618740 0.500000 -0.500007
O11   O     O_R   0.319640 0.381260 0.500000 -0.513194
O12   O     O_R   0.500020 0.618770 0.430260 -0.475006
O13   O     O_R   0.499980 0.381230 0.569740 -0.504233
O14   O     O_R   0.499980 0.618770 0.569740 -0.475070
O15   O     O_R   0.500020 0.381230 0.430260 -0.504316
O16   O     O_2   0.284317 0.509691 0.202353 -0.485207

loop_
_geom_bond_atom_site_label_1
_geom_bond_atom_site_label_2
_ccdc_geom_bond_type
C2    C35   A    
C23   C45   A    
C15   H6    S    
C12   O9    A    
H16   O6    S    
Cu1   Cu2   S    
C33   C52   A    
C14   H5    S    
C28   C29   A    
C24   C26   A    
C5    C11   A    
C36   H4    S    
C11   C14   A    
C18   H9    S    
C4    C41   A    
C35   N2    A    
Cu1   N3    S    
C51   H2    S    
C31   O16   S    
Cu2   O11   S    
C13   H8    S    
C3    C38   A    
C49   C51   A    
C22   C25   A    
Cu2   O15   S    
C17   O13   A    
C38   C48   S    
C2    C34   A    
C40   C42   A    
Cu1   O12   S    
C48   O8    S    
C21   H13   S    
C27   C30   A    
C41   C43   A    
C42   C44   A    
C2    C14   A    
C28   H19   S    
C50   H24   S    
C24   H15   S    
C27   N4    A    
C32   O2    S    
C20   H11   S    
C33   N1    A    
C29   H20   S    
C8    C18   A    
C47   O5    D    
C33   O4    S    
C5    C9    A    
C32   N2    A    
C4    C39   A    
C19   H10   S    
C40   H1    S    
Cu1   O10   S    
C17   O14   A    
C15   C52   A    
C22   H14   S    
Cu2   O13   S    
C6    C7    A    
C4    C17   S    
C8    C10   A    
C20   C22   A    
C3    C40   A    
C7    C19   A    
C48   O7    D    
C13   C15   A    
C9    C34   A    
C36   C44   A    
C1    O1    A    
Cu2   N4    S    
C18   C50   A    
C39   C47   S    
C7    C9    A    
C21   C25   A    
C34   C49   A    
C28   N3    A    
C16   O12   A    
C12   O10   A    
C44   N1    S    
C11   H7    S    
C6    C10   A    
C5    C8    A    
C31   N1    A    
C41   H12   S    
C10   C23   A    
C43   H23   S    
C42   H22   S    
C12   C25   S    
Cu1   O1    S    
C47   O6    S    
C30   N3    A    
C36   C38   A    
Cu2   O9    S    
C37   C39   A    
C6    C13   A    
C46   N2    S    
C30   H21   S    
C35   O3    S    
C23   C52   A    
C1    C26   S    
H17   O8    S    
C20   C26   A    
C45   C50   A    
C16   O15   A    
C43   C46   A    
C32   C49   A    
C27   H18   S    
C19   C51   A    
C29   N4    A    
C1    O11   A    
C31   C45   A    
C21   C24   A    
C37   C46   A    
C37   H3    S    
C3    C16   S    
Cu1   O14   S    
