data_mof_unit_1502.cif
_audit_creation_date              2012-12-11T16:53:37-0500
_audit_creation_method            fapswitch 2.2
_symmetry_space_group_name_H-M    P1
_symmetry_Int_Tables_number       1
_space_group_crystal_system       triclinic
_cell_length_a                    14.92527
_cell_length_b                    14.781931
_cell_length_c                    16.932505
_cell_angle_alpha                 109.084174
_cell_angle_beta                  106.221258
_cell_angle_gamma                 108.080431
_cell_volume                      3039.63474698

loop_
_atom_site_label
_atom_site_type_symbol
_atom_type_description
_atom_site_fract_x
_atom_site_fract_y
_atom_site_fract_z
_atom_type_partial_charge
C1    C     C_R   0.089524 0.274798 0.049604 -0.125877
C2    C     C_R   0.025237 0.583367 0.746158 0.061722
C3    C     C_R   0.753309 0.195446 0.723332 0.025470
C4    C     C_R   0.288179 0.460295 0.962081 0.066142
C5    C     C_R   0.274829 0.687395 0.251268 0.674101
C6    C     C_R   0.704351 0.498057 0.915515 0.586311
C7    C     C_R   0.889868 0.464369 0.187908 -0.115397
C8    C     C_R   0.079780 0.808730 0.047960 -0.119927
C9    C     C_R   0.907457 0.724322 0.971582 -0.111906
C10   C     C_R   0.063327 0.549101 0.265247 -0.108005
C11   C     C_R   0.280610 0.783524 0.175001 -0.262307
C12   C     C_R   0.935036 0.521462 0.747689 -0.127972
C13   C     C_R   0.697425 0.405450 0.994535 0.606567
C14   C     C_R   0.338429 0.779503 0.252515 -0.096755
C15   C     C_R   0.637849 0.435897 0.939368 -0.282949
C16   C     C_R   0.970850 0.534876 0.274760 0.005643
C17   C     C_R   0.990579 0.825044 0.031295 0.032399
C18   C     C_R   0.398039 0.470585 0.876940 0.122665
C19   C     C_R   0.349780 0.420033 0.920818 0.055140
C20   C     C_R   0.374519 0.340903 0.935260 -0.257245
C21   C     C_R   0.462109 0.331957 0.926475 -0.148796
C22   C     C_R   0.526264 0.404604 0.905942 0.090801
C23   C     C_R   0.769098 0.200334 0.809875 -0.103400
C24   C     C_R   0.485465 0.463293 0.869813 0.229161
C25   C     C_3   0.535237 0.577672 0.888286 -0.364204
C26   C     C_3   0.439682 0.585346 0.895955 -0.614118
C27   C     C_R   0.960970 0.579502 0.361523 0.134596
C28   C     C_R   0.032031 0.625571 0.679432 0.128604
C29   C     C_R   0.135509 0.698191 0.607829 -0.215701
C30   C     C_R   0.129367 0.682272 0.683022 -0.174804
C31   C     C_R   0.940863 0.598000 0.604968 -0.277450
C32   C     C_R   0.946465 0.608470 0.527604 0.185124
C33   C     C_R   0.044653 0.654401 0.527601 0.184454
C34   C     C_R   0.254190 0.531298 0.945233 -0.139777
C35   C     C_R   0.050879 0.643679 0.444859 -0.268690
C36   C     C_R   0.862878 0.546064 0.363495 -0.164770
C37   C     C_R   0.855706 0.561947 0.446651 -0.218653
C38   C     C_R   0.712920 0.100098 0.635914 0.132752
C39   C     C_R   0.447682 0.853466 0.317307 0.155745
C40   C     C_R   0.585986 0.033261 0.391127 -0.224534
C41   C     C_R   0.496115 0.950594 0.315650 -0.164362
C42   C     C_R   0.499329 0.835136 0.389242 -0.251045
C43   C     C_R   0.584488 0.919564 0.467680 0.145513
C44   C     C_R   0.624960 0.020602 0.469986 0.194430
C45   C     C_R   0.779802 0.298541 0.734356 -0.077091
C46   C     C_R   0.693248 0.109675 0.553730 -0.264902
C47   C     C_R   0.683127 0.998288 0.632150 -0.162583
C48   C     C_R   0.620503 0.907850 0.547707 -0.207715
C49   C     C_R   0.100006 0.060415 0.978199 0.156414
C50   C     C_R   0.006642 0.068526 0.968374 0.041878
C51   C     C_R   0.913307 0.972449 0.913907 -0.205859
C52   C     C_R   0.914250 0.877110 0.860648 -0.184919
C53   C     C_R   0.008009 0.875414 0.861908 0.044557
C54   C     C_R   0.100387 0.965536 0.926723 0.149424
C55   C     C_3   0.192776 0.021029 0.913631 -0.471715
C56   C     C_R   0.257225 0.440685 0.027519 -0.105618
C57   C     C_3   0.192020 0.124879 0.968660 -0.536552
C58   C     C_R   0.107005 0.605968 0.824416 -0.146926
C59   C     C_R   0.917263 0.191598 0.974261 -0.112851
C60   C     C_R   0.004667 0.174037 0.999564 0.047377
H1    H     H_    0.168104 0.291753 0.089714 0.107611
H2    H     H_    0.807671 0.436385 0.169371 0.158050
H3    H     H_    0.158788 0.869725 0.091497 0.106582
H4    H     H_    0.826164 0.706865 0.944251 0.144986
H5    H     H_    0.141557 0.598883 0.318168 0.154670
H6    H     H_    0.309561 0.835160 0.146078 0.132973
H7    H     H_    0.335155 0.295527 0.964035 0.145736
H8    H     H_    0.484998 0.277874 0.947070 0.213489
H9    H     H_    0.606146 0.628887 0.954629 0.176054
H10   H     H_    0.856309 0.502383 0.705415 0.105646
H11   H     H_    0.543626 0.585845 0.827437 0.231719
H12   H     H_    0.456209 0.640851 0.966772 0.215388
H13   H     H_    0.393745 0.597334 0.839453 0.204799
H14   H     H_    0.126935 0.675136 0.445390 0.124861
H15   H     H_    0.791633 0.500755 0.300867 0.126695
H16   H     H_    0.211410 0.735477 0.609334 0.134818
H17   H     H_    0.779664 0.528626 0.446099 0.133451
H18   H     H_    0.201270 0.707944 0.740627 0.117014
H19   H     H_    0.865019 0.557928 0.602045 0.120484
H20   H     H_    0.720241 0.186868 0.554470 0.117060
H21   H     H_    0.749663 0.133504 0.824782 0.093516
H22   H     H_    0.702029 0.988071 0.694138 0.116528
H23   H     H_    0.617839 0.110099 0.391471 0.132421
H24   H     H_    0.591868 0.830208 0.546453 0.136912
H25   H     H_    0.460968 0.966569 0.259918 0.121934
H26   H     H_    0.468351 0.759757 0.390482 0.208048
H27   H     H_    0.838709 0.971915 0.905959 0.127802
H28   H     H_    0.841645 0.806291 0.814133 0.141654
H29   H     H_    0.261660 0.012164 0.949956 0.191652
H30   H     H_    0.174726 0.002654 0.840252 0.202904
H31   H     H_    0.261348 0.176601 0.036026 0.192374
H32   H     H_    0.261083 0.561814 0.896517 0.117921
H33   H     H_    0.171847 0.165721 0.926602 0.203009
H34   H     H_    0.776708 0.326340 0.682740 0.094976
H35   H     H_    0.276079 0.393009 0.059452 0.095993
H36   H     H_    0.186430 0.665382 0.852828 0.088331
H37   H     H_    0.837774 0.133317 0.946184 0.094513
N1    N     N_R   0.055640 0.348550 0.045600 -0.041759
N2    N     N_R   0.798340 0.505430 0.954400 -0.137805
N3    N     N_R   0.931580 0.439470 0.128350 -0.039232
N4    N     N_R   0.051950 0.704140 0.002340 -0.043468
N5    N     N_R   0.944360 0.651450 0.954400 -0.037075
N6    N     N_R   0.039170 0.492150 0.176290 -0.041330
N7    N     N_R   0.188710 0.696600 0.128350 -0.071189
N8    N     N_R   0.794820 0.447010 0.002340 -0.141189
N9    N     N_R   0.960830 0.507850 0.823710 -0.040239
N10   N     N_R   0.811290 0.303400 0.871650 -0.046051
N11   N     N_R   0.205180 0.552990 0.997660 -0.045221
N12   N     N_R   0.814810 0.361830 0.823710 -0.040539
N13   N     N_R   0.201660 0.494570 0.045600 -0.039876
N14   N     N_R   0.068420 0.560530 0.871650 -0.042103
N15   N     N_R   0.948050 0.295860 0.997660 -0.042542
N16   N     N_R   0.185190 0.638170 0.176290 -0.100918
Ni1   Ni    Ni4+2 0.119330 0.493420 0.109950 0.267510
Ni2   Ni    Ni4+2 0.880670 0.506580 0.890050 0.259441
Ni3   Ni    Ni4+2 0.872590 0.372590 0.000000 0.260886
Ni4   Ni    Ni4+2 0.127410 0.627410 0.000000 0.195703
F1    F     F_    0.675013 0.513522 0.839588 -0.725984
F2    F     F_    0.660787 0.324231 0.015121 -0.729564
F3    F     F_    0.304752 0.636204 0.298982 -0.751646

loop_
_geom_bond_atom_site_label_1
_geom_bond_atom_site_label_2
_ccdc_geom_bond_type
C56   H35   S    
C12   N9    A    
C35   H14   S    
N4    N5    A    
C9    H4    S    
C26   H12   S    
N8    Ni3   S    
C3    C23   A    
C19   C20   A    
N3    Ni3   S    
C2    C12   A    
C39   C41   A    
C29   H16   S    
C53   C54   A    
C18   C24   A    
C36   C37   A    
N16   Ni1   S    
C55   H30   S    
N2    Ni2   S    
C11   C14   A    
C45   N12   A    
N1    Ni1   S    
C49   C54   A    
C29   C33   A    
C26   H13   S    
C49   C57   S    
C18   C19   A    
C47   H22   S    
C58   H36   S    
N5    Ni2   S    
C20   H7    S    
C14   C39   S    
C4    C19   S    
C15   C22   S    
C47   C48   A    
C3    C38   S    
C9    N5    A    
C18   C26   S    
C11   N7    A    
C25   H11   S    
C23   H21   S    
C43   C48   A    
N13   Ni1   S    
C11   H6    S    
C16   C27   S    
C6    C15   A    
C59   C60   A    
C57   H33   S    
C21   C22   A    
C4    C56   A    
C34   N11   A    
N10   N12   A    
C40   H23   S    
C45   H34   S    
C56   N13   A    
C13   F2    S    
C44   C46   A    
C59   N15   A    
C39   C42   A    
N9    N14   A    
N2    N8    A    
C4    C34   A    
N1    N15   A    
C7    N3    A    
C5    F3    S    
C58   N14   A    
C52   H28   S    
N6    Ni1   S    
C24   C25   S    
C13   N8    A    
C1    C60   A    
C51   H27   S    
C27   C35   A    
C25   C26   S    
C37   H17   S    
C3    C45   A    
N3    N6    A    
C51   C52   A    
C43   C44   A    
C7    H2    S    
C29   C30   A    
C36   H15   S    
C31   C32   A    
C23   N10   A    
C50   C51   A    
C5    C14   A    
C32   C37   A    
C10   N6    A    
C38   C47   A    
C42   H26   S    
C9    C17   A    
C40   C41   A    
C55   C57   S    
C21   H8    S    
C59   H37   S    
C22   C24   A    
C25   H9    S    
C42   C43   A    
N15   Ni3   S    
C52   C53   A    
N7    Ni4   S    
C8    N4    A    
C10   H5    S    
C12   H10   S    
C54   C55   S    
C7    C16   A    
C57   H31   S    
C5    N16   A    
N11   Ni4   S    
C28   C31   A    
C1    H1    S    
C1    N1    A    
C2    C58   A    
C31   H19   S    
C27   C36   A    
C41   H25   S    
C8    C17   A    
N9    Ni2   S    
N14   Ni4   S    
N4    Ni4   S    
C32   C33   A    
C13   C15   A    
C50   C60   S    
C55   H29   S    
C10   C16   A    
C6    N2    A    
C46   H20   S    
C28   C30   A    
C33   C35   A    
N11   N13   A    
C34   H32   S    
N10   Ni3   S    
C38   C46   A    
N12   Ni2   S    
C8    H3    S    
N7    N16   A    
C30   H18   S    
C48   H24   S    
C40   C44   A    
C20   C21   A    
C49   C50   A    
C2    C28   S    
C6    F1    S    
