data_mof_unit_417.cif
_audit_creation_date              2012-12-11T19:42:19-0500
_audit_creation_method            fapswitch 2.2
_symmetry_space_group_name_H-M    P1
_symmetry_Int_Tables_number       1
_space_group_crystal_system       triclinic
_cell_length_a                    8.275827
_cell_length_b                    15.130018
_cell_length_c                    26.889936
_cell_angle_alpha                 98.025275
_cell_angle_beta                  92.862714
_cell_angle_gamma                 80.470012
_cell_volume                      3286.75293354

loop_
_atom_site_label
_atom_site_type_symbol
_atom_type_description
_atom_site_fract_x
_atom_site_fract_y
_atom_site_fract_z
_atom_type_partial_charge
Ba1   Ba    Ba6+2 0.860050 0.456430 0.522530 1.707797
Ba2   Ba    Ba6+2 0.329780 0.543490 0.477460 1.663655
C1    C     C_3   0.650932 0.166167 0.626500 -0.202019
C2    C     C_R   0.923509 0.605713 0.183904 0.588255
C3    C     C_2   0.761119 0.571337 0.274885 -0.099033
C4    C     C_3   0.180223 0.166313 0.652852 0.733338
C5    C     C_3   0.733671 0.594299 0.330548 -0.064972
C6    C     C_1   0.984743 0.487287 0.343363 0.032143
C7    C     C_2   0.028183 0.485774 0.296084 -0.090587
C8    C     C_2   0.909363 0.528025 0.258402 0.202698
C9    C     C_R   0.035878 0.525110 0.105126 -0.081729
C10   C     C_R   0.072009 0.445752 0.128180 -0.033661
C11   C     C_R   0.147738 0.366138 0.099803 -0.057179
C12   C     C_3   0.596416 0.252175 0.662601 0.885403
C13   C     C_R   0.957206 0.604939 0.132826 -0.026485
C14   C     C_2   0.845283 0.533208 0.361564 -0.270331
C15   C     C_2   0.351173 0.475591 0.641809 -0.225962
C16   C     C_3   0.238825 0.063851 0.649110 -0.300309
C17   C     C_R   0.234376 0.450895 0.979960 0.001634
C18   C     C_R   0.052350 0.596839 0.977170 0.026951
C19   C     C_R   0.161895 0.522886 0.953004 0.037127
C20   C     C_R   0.368373 0.388436 0.957618 0.120087
C21   C     C_R   0.407907 0.390509 0.907970 -0.003805
C22   C     C_R   0.323612 0.455006 0.879270 -0.079736
C23   C     C_3   0.479953 0.686451 0.631727 0.330607
C24   C     C_R   0.201906 0.522041 0.901822 -0.082837
C25   C     C_R   0.123162 0.589444 0.873582 -0.021953
C26   C     C_R   0.161853 0.585966 0.822366 0.589292
C27   C     C_R   0.364709 0.455427 0.828981 0.660258
C28   C     C_3   0.217637 0.264927 0.412950 0.315589
C29   C     C_2   0.469963 0.494648 0.729412 -0.056114
C30   C     C_3   0.502541 0.488188 0.673923 -0.128409
C31   C     C_1   0.209013 0.518929 0.658396 0.028384
C32   C     C_2   0.175799 0.523389 0.706857 -0.033088
C33   C     C_2   0.313350 0.511858 0.746029 0.233013
C34   C     C_3   0.426673 0.726280 0.684622 -0.294407
C35   C     C_R   0.173121 0.446795 0.028300 0.020055
C36   C     C_R   0.078305 0.524626 0.054202 0.055043
C37   C     C_R   0.024358 0.601613 0.029489 0.020239
C38   C     C_R   0.195863 0.366564 0.050826 -0.107670
C39   C     C_R   0.914581 0.682728 0.108967 -0.058702
C40   C     C_3   0.239825 0.162960 0.397975 -0.382185
C41   C     C_R   0.974680 0.663531 0.948031 -0.098856
C42   C     C_R   0.007967 0.659216 0.897264 -0.049722
C43   C     C_R   0.944499 0.680743 0.058177 -0.103454
C44   C     C_R   0.843975 0.831030 0.465058 -0.008018
C45   C     C_3   0.953017 0.762566 0.345398 0.344464
C46   C     C_R   0.777489 0.924091 0.468620 -0.030377
C47   C     C_R   0.644244 0.111697 0.479971 -0.037449
C48   C     C_R   0.788074 0.077571 0.452936 -0.049614
C49   C     C_R   0.855356 0.986026 0.448389 -0.112324
C50   C     C_R   0.579789 0.205434 0.488209 0.042258
C51   C     C_R   0.439778 0.234915 0.517335 -0.267843
C52   C     C_3   0.977511 0.735321 0.585808 0.297512
C53   C     C_R   0.612460 0.803000 0.509410 0.031371
C54   C     C_R   0.542781 0.894779 0.512596 0.006880
C55   C     C_R   0.626551 0.955944 0.492876 0.026990
C56   C     C_3   0.870550 0.830748 0.311800 -0.357540
C57   C     C_R   0.389869 0.926990 0.534082 0.006224
C58   C     C_R   0.318804 0.016341 0.534907 -0.126897
C59   C     C_R   0.409127 0.080154 0.522853 -0.030111
C60   C     C_R   0.561011 0.049567 0.499007 0.028365
C61   C     C_R   0.351605 0.173373 0.534060 -0.052256
C62   C     C_R   0.757725 0.771782 0.484022 -0.308098
C63   C     C_3   0.972811 0.837256 0.599070 0.360328
C64   C     C_3   0.699240 0.344223 0.372185 0.299287
C65   C     C_3   0.707177 0.322954 0.315298 -0.353762
C66   C     C_3   0.446826 0.779950 0.354390 0.376968
C67   C     C_3   0.383904 0.860778 0.326927 -0.349170
C68   C     C_R   0.026913 0.447014 0.178483 0.595752
H1    H     H_    0.486481 0.290419 0.645208 -0.357947
H2    H     H_    0.602015 0.403358 0.381574 0.085070
H3    H     H_    0.694955 0.184179 0.591519 0.059124
H4    H     H_    0.808226 0.266227 0.304835 0.129585
H5    H     H_    0.729492 0.383035 0.298947 0.074286
H6    H     H_    0.589330 0.303850 0.299451 0.135974
H7    H     H_    0.547286 0.129056 0.616814 0.031058
H8    H     H_    0.373539 0.660695 0.611350 -0.009187
H9    H     H_    0.582903 0.629738 0.633729 0.019173
H10   H     H_    0.330366 0.786526 0.683110 0.152378
H11   H     H_    0.375597 0.675935 0.702734 0.042649
H12   H     H_    0.326828 0.142504 0.366744 0.124145
H13   H     H_    0.532830 0.746437 0.707708 0.165880
H14   H     H_    0.750965 0.120034 0.642639 0.214104
H15   H     H_    0.353894 0.044694 0.628580 0.076700
H16   H     H_    0.017337 0.702286 0.321651 0.084324
H17   H     H_    0.855547 0.740841 0.365388 -0.073768
H18   H     H_    0.962478 0.848908 0.287953 0.134671
H19   H     H_    0.775663 0.801405 0.287243 0.129817
H20   H     H_    0.810528 0.892728 0.335192 0.091420
H21   H     H_    0.582227 0.773580 0.356583 -0.092811
H22   H     H_    0.399953 0.793515 0.393151 0.082219
H23   H     H_    0.288784 0.127607 0.430179 0.066052
H24   H     H_    0.422700 0.922625 0.348050 0.059273
H25   H     H_    0.248306 0.871339 0.323418 0.151538
H26   H     H_    0.435245 0.849396 0.288760 0.115408
H27   H     H_    0.151457 0.455895 0.284770 0.129026
H28   H     H_    0.170381 0.302809 0.115388 0.123521
H29   H     H_    0.573999 0.491954 0.755642 0.123823
H30   H     H_    0.509810 0.341820 0.892231 0.139798
H31   H     H_    0.244456 0.302175 0.030319 0.082595
H32   H     H_    0.669725 0.600982 0.249047 0.111105
H33   H     H_    0.854935 0.745544 0.129365 0.120474
H34   H     H_    0.120032 0.142060 0.385685 0.120159
H35   H     H_    0.883165 0.718662 0.963277 0.073689
H36   H     H_    0.284744 0.202650 0.652012 -0.046037
H37   H     H_    0.943793 0.711729 0.876670 0.130218
H38   H     H_    0.049494 0.533797 0.718203 0.136191
H39   H     H_    0.908888 0.743338 0.042650 0.073400
H40   H     H_    0.822316 0.541259 0.401445 0.078300
H41   H     H_    0.359786 0.435296 0.605022 0.069005
H42   H     H_    0.852484 0.120631 0.435265 0.110117
H43   H     H_    0.968409 0.964514 0.428477 0.101957
H44   H     H_    0.195718 0.035175 0.548334 0.088996
H45   H     H_    0.853009 0.720395 0.576273 -0.010272
H46   H     H_    0.320585 0.884198 0.550085 0.097717
H47   H     H_    0.391925 0.306424 0.523717 0.067606
H48   H     H_    0.269165 0.041033 0.686418 0.191787
H49   H     H_    0.809290 0.700808 0.481678 0.060687
H50   H     H_    0.142818 0.025844 0.631046 0.119217
H51   H     H_    0.338151 0.285094 0.423670 -0.004435
H52   H     H_    0.135116 0.283100 0.445350 0.075499
H53   H     H_    0.848649 0.973867 0.717568 0.382758
H54   H     H_    0.654376 0.225565 0.795958 0.366995
H55   H     H_    0.935881 0.122300 0.746897 0.372519
H56   H     H_    0.056563 0.712025 0.552875 -0.003712
H57   H     H_    0.453956 0.267538 0.982600 0.183688
H58   H     H_    0.495092 0.361177 0.023186 0.187153
H59   H     H_    0.936421 0.871514 0.565469 -0.082482
H60   H     H_    0.097604 0.850761 0.611356 0.005413
H61   H     H_    0.818800 0.360602 0.387377 0.007074
N1    N     N_R   0.954180 0.526709 0.206184 -0.421612
N2    N     N_R   0.279413 0.517798 0.799792 -0.426831
N3    N     N_3   0.484970 0.332288 0.985763 -0.504430
O1    O     O_2   0.906480 0.548660 0.619050 -0.458083
O2    O     O_2   0.185780 0.822595 0.468922 -0.505516
O3    O     O_3   0.068928 0.801756 0.377463 -0.598442
O4    O     O_3   0.138490 0.548590 0.558870 -0.500252
O5    O     O_3   0.572560 0.389960 0.472890 -0.492540
O6    O     O_2   0.345660 0.723580 0.528500 -0.488445
O7    O     O_3   0.532847 0.753961 0.608809 -0.575494
O8    O     O_2   0.436737 0.525312 0.325287 -0.486895
O9    O     O_3   0.393419 0.701917 0.328487 -0.573101
O10   O     O_2   0.050953 0.376874 0.197334 -0.597154
O11   O     O_2   0.477718 0.399711 0.811375 -0.523444
O12   O     O_3   0.664384 0.268443 0.391526 -0.640671
O13   O     O_2   0.868358 0.677325 0.208706 -0.623207
O14   O     O_2   0.093078 0.644894 0.798333 -0.582929
O15   O     O_3   0.686300 0.382310 0.585700 -0.484047
O16   O     O_2   0.844811 0.440603 0.668212 -0.429527
O17   O     O_3   0.039408 0.693453 0.627472 -0.608549
O18   O     O_3   0.727634 0.299694 0.672409 -0.503089
O19   O     O_2   0.844040 0.276390 0.471470 -0.461017
O20   O     O_3   0.101510 0.335500 0.560330 -0.458604
O21   O     O_2   0.030730 0.180886 0.519694 -0.475317
O22   O     O_2   0.679250 0.933966 0.626026 -0.313442
O23   O     O_3   0.062987 0.187180 0.614347 -0.596553
O24   O     O_2   0.790736 0.812997 0.676083 -0.262461
O25   O     O_3   0.922086 0.958563 0.688575 -0.506034
O26   O     O_2   0.383659 0.289735 0.735447 -0.240295
O27   O     O_2   0.519997 0.131017 0.719381 -0.312604
O28   O     O_3   0.683705 0.251376 0.766382 -0.415542
O29   O     O_2   0.201219 0.175396 0.754887 -0.243347
O30   O     O_2   0.028620 0.301103 0.720352 -0.200994
O31   O     O_3   0.924976 0.146263 0.714241 -0.475923
O32   O     O_2   0.283210 0.451310 0.380920 -0.454258
O33   O     O_3   0.051220 0.451340 0.441120 -0.504238
O34   O     O_3   0.503410 0.617620 0.414290 -0.477155
O35   O     O_3   0.151194 0.306541 0.371632 -0.627250
O36   O     O_3   0.617150 0.609960 0.527100 -0.483945
O37   O     O_3   0.088210 0.664420 0.439670 -0.468521
P1    P     P_3+3 0.071950 0.575820 0.612140 1.016959
P2    P     P_3+3 0.664370 0.290050 0.457240 0.974166
P3    P     P_3+3 0.146420 0.218309 0.560985 0.945756
P4    P     P_3+3 0.117760 0.424110 0.387850 0.987656
P5    P     P_3+3 0.046607 0.781273 0.438902 0.949909
P6    P     P_3+3 0.684987 0.404523 0.651046 1.086947
P7    P     P_3+3 0.530951 0.723574 0.543666 0.974126
P8    P     P_3+3 0.516194 0.607417 0.348952 0.964341
S1    S     S_3+6 0.833093 0.885096 0.648134 -0.048851
S2    S     S_3+6 0.540951 0.228352 0.721888 0.000324
S3    S     S_3+6 0.084507 0.200697 0.712604 0.044431

loop_
_geom_bond_atom_site_label_1
_geom_bond_atom_site_label_2
_ccdc_geom_bond_type
C27   N2    Am   
C53   C54   A    
O2    P5    D    
C16   H50   S    
C40   H23   S    
C51   C61   A    
C12   H1    S    
C58   H44   S    
C40   H12   S    
H57   N3    S    
O25   S1    S    
C19   C24   A    
C67   H26   S    
C33   N2    S    
C63   H60   S    
C6    P4    S    
C14   H40   S    
C55   C60   A    
C2    N1    Am   
C52   C63   S    
Ba2   O32   S    
C52   H56   S    
Ba1   P2    S    
O32   P4    D    
C49   H43   S    
C62   H49   S    
C4    S3    S    
O31   S3    S    
C17   C19   A    
C22   C24   A    
C32   C33   S    
C35   C38   A    
C27   O11   D    
C36   C37   A    
C43   H39   S    
Ba1   O33   S    
C34   H13   S    
O12   P2    S    
O19   P2    D    
Ba1   O36   S    
C11   H28   S    
C66   H21   S    
C54   C55   A    
C66   O9    S    
Ba1   Ba2   S    
C41   H35   S    
O18   P6    S    
C59   C61   A    
O24   S1    D    
C22   C27   A    
C11   C38   A    
C17   C35   A    
C38   H31   S    
C9    C13   A    
C25   C42   A    
C46   C49   A    
C64   H2    S    
C28   H52   S    
C66   C67   S    
O6    P7    D    
C21   C22   A    
Ba1   O15   S    
C29   H29   S    
C7    C8    S    
C16   H48   S    
Ba1   O5    S    
O23   P3    S    
C37   C43   A    
C21   H30   S    
C57   C58   A    
C6    C14   D    
C52   H45   S    
O29   S3    D    
Ba1   O20   S    
C15   C31   D    
C15   H41   S    
C68   N1    Am   
C31   C32   D    
H54   O28   S    
O35   P4    S    
C4    C16   S    
C44   C46   A    
C26   O14   D    
C16   H15   S    
O20   P3    S    
O4    P1    S    
C26   N2    Am   
Ba2   O4    S    
C45   H16   S    
C46   C55   A    
C17   C20   A    
C13   C39   A    
O28   S2    S    
C67   H24   S    
C34   H10   S    
C3    C5    S    
C18   C37   A    
C6    C7    D    
C57   H46   S    
C2    O13   D    
O17   P1    S    
C23   H8    S    
C44   C62   A    
C58   C59   A    
C45   H17   S    
C9    C36   A    
H55   O31   S    
C41   C42   A    
C28   O35   S    
C35   C36   A    
H58   N3    S    
Ba2   P4    S    
C29   C30   S    
C28   H51   S    
C34   H11   S    
C47   C50   A    
C53   C62   A    
C45   O3    S    
O15   P6    S    
C48   C49   A    
C4    H36   S    
C5    P8    S    
C65   H4    S    
O1    P1    D    
C18   C19   A    
Ba1   O19   S    
C56   H20   S    
C1    C12   S    
O3    P5    S    
O16   P6    D    
O21   P3    D    
C5    C14   S    
Ba2   O36   S    
O9    P8    S    
C24   C25   A    
C53   P7    S    
C44   P5    S    
C30   P6    S    
O5    P2    S    
C65   H5    S    
Ba2   O5    S    
C1    H7    S    
Ba2   O34   S    
O26   S2    D    
C25   C26   A    
C4    O23   S    
C50   C51   A    
C61   P3    S    
O33   P4    S    
C64   H61   S    
C42   H37   S    
C10   C68   A    
C3    H32   S    
C7    H27   S    
C47   C60   A    
C23   H9    S    
C23   O7    S    
C67   H25   S    
C40   H34   S    
C63   H59   S    
C9    C10   A    
C52   O17   S    
C63   S1    S    
O34   P8    S    
O37   P5    S    
Ba2   O37   S    
Ba1   P1    S    
C68   O10   D    
C54   C57   A    
Ba2   O6    S    
C2    C13   A    
C48   H42   S    
C32   H38   S    
O7    P7    S    
C45   C56   S    
O22   S1    D    
H53   O25   S    
C51   H47   S    
Ba2   O33   S    
C12   S2    S    
C66   H22   S    
C64   C65   S    
C29   C33   D    
O27   S2    D    
C59   C60   A    
C1    H3    S    
C56   H19   S    
C8    N1    S    
C18   C41   A    
C64   O12   S    
O30   S3    D    
C23   C34   S    
C20   N3    S    
C39   H33   S    
C3    C8    D    
C10   C11   A    
C47   C48   A    
C12   O18   S    
C1    H14   S    
C15   C30   S    
C39   C43   A    
C20   C21   A    
C28   C40   S    
C65   H6    S    
Ba1   O1    S    
C31   P1    S    
C56   H18   S    
C50   P2    S    
Ba1   O4    S    
O8    P8    D    
O36   P7    S    
