data_mof_unit_70.cif
_audit_creation_date              2012-12-10T17:02:45-0500
_audit_creation_method            fapswitch 2.2
_symmetry_space_group_name_H-M    P1
_symmetry_Int_Tables_number       1
_space_group_crystal_system       triclinic
_cell_length_a                    15.210067
_cell_length_b                    15.108471
_cell_length_c                    15.292165
_cell_angle_alpha                 97.055691
_cell_angle_beta                  82.59905
_cell_angle_gamma                 91.005238
_cell_volume                      3458.48083086

loop_
_atom_site_label
_atom_site_type_symbol
_atom_type_description
_atom_site_fract_x
_atom_site_fract_y
_atom_site_fract_z
_atom_type_partial_charge
C1    C     C_R   0.261196 0.484384 0.485864 0.547444
C2    C     C_R   0.541880 0.495004 0.108775 0.022098
C3    C     C_R   0.578064 0.343766 0.132856 0.016959
C4    C     C_R   0.737562 0.516657 0.512456 0.555612
C5    C     C_R   0.431907 0.549988 0.835905 0.006307
C6    C     C_R   0.165515 0.478328 0.477087 0.011657
C7    C     C_R   0.832759 0.522161 0.512219 0.048454
C8    C     C_R   0.956112 0.602372 0.569374 0.015477
C9    C     C_R   0.867609 0.600352 0.553517 0.175413
C10   C     C_R   0.888861 0.452792 0.468148 0.232528
C11   C     C_R   0.981763 0.464605 0.465931 -0.039927
C12   C     C_R   0.377777 0.646235 0.971559 0.283452
C13   C     C_R   0.015629 0.537975 0.519707 -0.055585
C14   C     C_R   0.108447 0.548257 0.517365 0.247374
C15   C     C_R   0.131741 0.406055 0.423842 0.167056
C16   C     C_R   0.511738 0.261269 0.513016 0.464526
C17   C     C_R   0.042081 0.404743 0.411320 0.037054
C18   C     C_R   0.517881 0.164864 0.516963 -0.081536
C19   C     C_R   0.481603 0.832402 0.480631 -0.023129
C20   C     C_R   0.421486 0.957223 0.420879 0.023997
C21   C     C_R   0.436209 0.864382 0.415643 -0.007464
C22   C     C_R   0.518797 0.891395 0.544473 -0.008376
C23   C     C_R   0.408774 0.585060 0.022114 0.263984
C24   C     C_R   0.522734 0.982515 0.534164 0.029450
C25   C     C_R   0.462266 0.015865 0.483668 -0.025124
C26   C     C_R   0.446505 0.108243 0.497482 -0.026124
C27   C     C_R   0.594988 0.127450 0.541123 -0.005993
C28   C     C_R   0.487749 0.737421 0.484877 0.541742
C29   C     C_R   0.588735 0.040321 0.566806 0.298973
C30   C     C_R   0.543733 0.459780 0.262489 0.455922
C31   C     C_R   0.455606 0.537703 0.737769 0.582437
C32   C     C_R   0.567963 0.313685 0.043478 0.261976
C33   C     C_R   0.562148 0.434613 0.165898 -0.089769
C34   C     C_R   0.462926 0.512574 0.979343 -0.021089
C35   C     C_R   0.389855 0.629633 0.878530 0.211948
C36   C     C_2   0.606790 0.281075 0.192307 0.254167
C37   C     C_3   0.184780 0.264574 0.409854 0.005642
C38   C     C_3   0.235008 0.193170 0.344646 -0.347060
C39   C     C_2   0.980479 0.667415 0.643590 0.314555
C40   C     C_2   0.017950 0.350742 0.330579 0.310697
C41   C     C_3   0.830527 0.735997 0.521386 -0.026687
C42   C     C_3   0.757402 0.805292 0.536986 -0.326688
C43   C     C_3   0.802725 0.369847 0.371135 0.011238
C44   C     C_3   0.804497 0.277997 0.316949 -0.330834
C45   C     C_R   0.457746 0.485993 0.888482 -0.066750
C46   C     C_2   0.353844 0.142745 0.510269 0.219706
C47   C     C_2   0.682609 0.174093 0.530657 0.264308
C48   C     C_2   0.372298 0.994357 0.355455 0.233045
C49   C     C_3   0.655946 0.052642 0.693687 0.050153
C50   C     C_3   0.713451 0.002296 0.745266 -0.354783
C51   C     C_2   0.406155 0.802210 0.341473 0.257319
C52   C     C_2   0.595711 0.279170 0.842438 0.209952
C53   C     C_2   0.542801 0.858172 0.625995 0.277808
C54   C     C_3   0.490121 0.184074 0.023301 0.006027
C55   C     C_3   0.498060 0.085122 0.989859 -0.346367
C56   C     C_R   0.514572 0.461282 0.025825 0.007186
C57   C     C_2   0.559342 0.591972 0.131834 0.305188
C58   C     C_3   0.274512 0.686273 0.821862 0.030306
C59   C     C_3   0.251868 0.745156 0.754054 -0.323182
C60   C     C_3   0.316993 0.535118 0.135484 -0.007820
C61   C     C_3   0.288990 0.548911 0.235363 -0.326992
C62   C     C_3   0.394904 0.787258 0.037845 0.024458
C63   C     C_3   0.346020 0.870469 0.084123 -0.361075
C64   C     C_2   0.427175 0.346923 0.786025 0.271140
C65   C     C_3   0.155875 0.684185 0.481324 -0.009038
C66   C     C_3   0.195765 0.772626 0.515859 -0.320621
C67   C     C_R   0.541189 0.373956 0.987625 -0.050708
C68   C     C_R   0.534426 0.347502 0.896385 -0.011683
C69   C     C_R   0.479048 0.396625 0.853256 0.066228
H1    H     H_    0.614778 0.304470 0.260732 0.085740
H2    H     H_    0.894526 0.770679 0.529875 0.112982
H3    H     H_    0.747188 0.833818 0.607960 0.181785
H4    H     H_    0.775377 0.859824 0.495438 0.147130
H5    H     H_    0.695298 0.773594 0.517849 0.153461
H6    H     H_    0.825540 0.420624 0.326107 0.173797
H7    H     H_    0.732329 0.382717 0.398054 0.112059
H8    H     H_    0.766929 0.229408 0.356261 0.151411
H9    H     H_    0.773918 0.281581 0.255508 0.126347
H10   H     H_    0.873154 0.253287 0.297548 0.188849
H11   H     H_    0.340412 0.213451 0.518445 0.132327
H12   H     H_    0.115442 0.240699 0.425224 0.122600
H13   H     H_    0.688032 0.242128 0.515338 0.148146
H14   H     H_    0.392558 0.057625 0.332386 0.102146
H15   H     H_    0.588093 0.059190 0.731371 0.165935
H16   H     H_    0.684665 0.120312 0.690752 0.204558
H17   H     H_    0.782085 0.996335 0.710117 0.170095
H18   H     H_    0.715222 0.038842 0.812629 0.115928
H19   H     H_    0.686140 0.934533 0.752085 0.185218
H20   H     H_    0.404805 0.824365 0.276833 0.140607
H21   H     H_    0.641639 0.242477 0.872630 0.179135
H22   H     H_    0.570356 0.792085 0.623349 0.097650
H23   H     H_    0.215619 0.273564 0.472400 0.158543
H24   H     H_    0.444920 0.214403 0.983511 0.114043
H25   H     H_    0.460264 0.191406 0.094269 0.154990
H26   H     H_    0.541133 0.052149 0.029534 0.187113
H27   H     H_    0.431444 0.053512 0.996205 0.099078
H28   H     H_    0.527181 0.075775 0.918893 0.158257
H29   H     H_    0.551296 0.622728 0.200119 0.156424
H30   H     H_    0.234263 0.708514 0.886595 0.173052
H31   H     H_    0.255986 0.616291 0.798831 0.162128
H32   H     H_    0.289879 0.723302 0.688196 0.199943
H33   H     H_    0.179951 0.740283 0.747994 0.156398
H34   H     H_    0.306519 0.210671 0.334155 0.158446
H35   H     H_    0.268639 0.815724 0.775218 0.161711
H36   H     H_    0.340988 0.465267 0.117072 0.126937
H37   H     H_    0.257830 0.544941 0.101695 0.154394
H38   H     H_    0.262309 0.617314 0.255756 0.179755
H39   H     H_    0.236712 0.499926 0.253951 0.132589
H40   H     H_    0.346718 0.539588 0.270984 0.185614
H41   H     H_    0.438024 0.805593 0.978120 0.163455
H42   H     H_    0.437068 0.763905 0.084843 0.184048
H43   H     H_    0.302513 0.854280 0.144169 0.198152
H44   H     H_    0.394504 0.922294 0.104562 0.098981
H45   H     H_    0.227189 0.127942 0.371008 0.179984
H46   H     H_    0.304919 0.897112 0.038350 0.165322
H47   H     H_    0.445437 0.279917 0.756281 0.156805
H48   H     H_    0.091184 0.698057 0.458881 0.108078
H49   H     H_    0.201849 0.653083 0.423527 0.147351
H50   H     H_    0.261553 0.761413 0.536554 0.192004
H51   H     H_    0.204265 0.817146 0.462727 0.159104
H52   H     H_    0.151416 0.805522 0.573662 0.149693
H53   H     H_    0.208158 0.187250 0.279983 0.156371
H54   H     H_    0.950179 0.732899 0.657347 0.116268
H55   H     H_    0.031902 0.279881 0.318271 0.111926
H56   H     H_    0.833253 0.704319 0.451133 0.145365
O1    O     O_3   0.500000 0.500000 0.500000 -0.455361
O2    O     O_R   0.486020 0.413600 0.304760 -0.549855
O3    O     O_R   0.410760 0.579600 0.689750 -0.511363
O4    O     O_R   0.584420 0.523620 0.304110 -0.550419
O5    O     O_R   0.518800 0.483180 0.701380 -0.515060
O6    O     O_2   0.623902 0.202973 0.165857 -0.474467
O7    O     O_3   0.188875 0.345050 0.371396 -0.550829
O8    O     O_2   0.029812 0.645985 0.694359 -0.468874
O9    O     O_2   0.988055 0.386938 0.273724 -0.524959
O10   O     O_3   0.812812 0.673034 0.582881 -0.565585
O11   O     O_3   0.855336 0.368559 0.441111 -0.546961
O12   O     O_R   0.551580 0.314770 0.565720 -0.525189
O13   O     O_2   0.290550 0.092251 0.518722 -0.498945
O14   O     O_2   0.751625 0.134950 0.533211 -0.469564
O15   O     O_2   0.306947 0.956846 0.329669 -0.531798
O16   O     O_3   0.655265 0.006398 0.607313 -0.531281
O17   O     O_2   0.381856 0.726282 0.351504 -0.540094
O18   O     O_2   0.601691 0.268349 0.761462 -0.551165
O19   O     O_2   0.524914 0.901864 0.698499 -0.508040
O20   O     O_3   0.575361 0.223365 0.014098 -0.537812
O21   O     O_2   0.584828 0.638574 0.073704 -0.513177
O22   O     O_3   0.366010 0.694424 0.829472 -0.528540
O23   O     O_R   0.429950 0.701690 0.536820 -0.541126
O24   O     O_3   0.384253 0.597104 0.113205 -0.548147
O25   O     O_3   0.332499 0.721514 0.013368 -0.540726
O26   O     O_2   0.359169 0.377777 0.767546 -0.538327
O27   O     O_3   0.144281 0.628673 0.549915 -0.506624
O28   O     O_R   0.314790 0.427190 0.441330 -0.511756
O29   O     O_R   0.703670 0.556350 0.456130 -0.565930
O30   O     O_R   0.291500 0.546870 0.537740 -0.494118
O31   O     O_R   0.690030 0.469590 0.564810 -0.512559
O32   O     O_R   0.466830 0.291510 0.457690 -0.570487
O33   O     O_R   0.551640 0.692030 0.439770 -0.539300
Zn1   Zn    Zn3+2 0.563990 0.442880 0.581560 0.991889
Zn2   Zn    Zn3+2 0.442900 0.409640 0.427210 0.931477
Zn3   Zn    Zn3+2 0.583480 0.566840 0.426280 0.931337
Zn4   Zn    Zn3+2 0.409620 0.580640 0.564950 0.986942

loop_
_geom_bond_atom_site_label_1
_geom_bond_atom_site_label_2
_ccdc_geom_bond_type
C7    C10   A    
C4    O29   A    
C34   C56   A    
C8    C13   A    
C64   H47   S    
C27   C29   A    
C41   C42   S    
O29   Zn3   S    
C52   H21   S    
C16   O12   A    
C18   C26   A    
C21   C51   S    
C61   H40   S    
C2    C57   S    
O1    Zn1   S    
C12   C23   A    
C37   C38   S    
C59   H35   S    
C49   H15   S    
C44   H8    S    
C19   C21   A    
C10   O11   S    
C31   O5    A    
C38   H45   S    
C20   C25   A    
C3    C33   A    
C39   H54   S    
C15   C17   A    
C47   H13   S    
C63   H43   S    
C1    O30   A    
C61   H39   S    
C24   C29   A    
C54   H24   S    
C38   H53   S    
O33   Zn3   S    
C6    C15   A    
C30   O2    A    
C15   O7    S    
C68   C69   A    
C49   O16   S    
C53   H22   S    
C65   H49   S    
C8    C39   S    
C13   C14   A    
O1    Zn3   S    
C37   H23   S    
C50   H19   S    
C46   O13   D    
C63   H46   S    
C23   O24   S    
C66   H51   S    
C57   O21   D    
C37   H12   S    
C43   O11   S    
C31   O3    A    
C4    C7    S    
O3    Zn4   S    
C12   O25   S    
C36   H1    S    
C22   C53   S    
O31   Zn1   S    
O30   Zn4   S    
C43   H6    S    
C40   H55   S    
C42   H5    S    
C52   O18   D    
C28   O23   A    
C48   O15   D    
C64   O26   D    
C45   C69   A    
C1    C6    S    
C59   H32   S    
C49   H16   S    
C19   C22   A    
C58   H31   S    
C24   C25   A    
C55   H26   S    
C36   O6    D    
O12   Zn1   S    
C58   O22   S    
C8    C9    A    
C32   O20   S    
C58   C59   S    
C40   O9    D    
C67   C68   A    
O5    Zn1   S    
C17   C40   S    
C58   H30   S    
C43   C44   S    
C38   H34   S    
C41   H56   S    
C6    C14   A    
C62   H41   S    
C23   C34   A    
C29   O16   S    
C55   H28   S    
C62   C63   S    
C28   O33   A    
C66   H52   S    
O4    Zn3   S    
C34   C45   A    
C35   O22   S    
C64   C69   S    
C62   H42   S    
C12   C35   A    
C1    O28   A    
C19   C28   S    
C20   C48   S    
C50   H18   S    
C32   C67   A    
C9    O10   S    
C2    C33   A    
C4    O31   A    
C65   C66   S    
O32   Zn2   S    
C66   H50   S    
C54   O20   S    
C22   C24   A    
C14   O27   S    
C30   O4    A    
C41   O10   S    
C60   H37   S    
C39   O8    D    
C51   O17   D    
C27   C47   S    
C43   H7    S    
C7    C9    A    
C54   C55   S    
C11   C17   A    
C42   H4    S    
C62   O25   S    
C30   C33   S    
C16   O32   A    
C59   H33   S    
C44   H10   S    
C18   C27   A    
C55   H27   S    
C52   C68   S    
C48   H14   S    
O1    Zn2   S    
C56   C67   A    
C37   O7    S    
C41   H2    S    
C53   O19   D    
O23   Zn4   S    
C65   O27   S    
C44   H9    S    
C25   C26   A    
C2    C56   A    
C51   H20   S    
C46   H11   S    
C11   C13   A    
C5    C45   A    
C3    C36   S    
O28   Zn2   S    
C57   H29   S    
C5    C35   A    
C60   O24   S    
C3    C32   A    
C61   H38   S    
C54   H25   S    
C10   C11   A    
C50   H17   S    
C63   H44   S    
C20   C21   A    
C16   C18   S    
C49   C50   S    
C47   O14   D    
C65   H48   S    
C60   C61   S    
C42   H3    S    
O1    Zn4   S    
C26   C46   S    
O2    Zn2   S    
C60   H36   S    
C5    C31   S    
