data_mof_unit_4045.cif
_audit_creation_date              2012-12-10T20:34:49-0500
_audit_creation_method            fapswitch 2.2
_symmetry_space_group_name_H-M    P1
_symmetry_Int_Tables_number       1
_space_group_crystal_system       triclinic
_cell_length_a                    10.635273
_cell_length_b                    10.667297
_cell_length_c                    9.86687
_cell_angle_alpha                 89.609303
_cell_angle_beta                  89.829924
_cell_angle_gamma                 90.134023
_cell_volume                      1119.35853834

loop_
_atom_site_label
_atom_site_type_symbol
_atom_type_description
_atom_site_fract_x
_atom_site_fract_y
_atom_site_fract_z
_atom_type_partial_charge
C1    C     C_R   0.504155 0.259807 0.500193 0.884031
C2    C     C_3   0.878564 0.504745 0.500554 0.166613
C3    C     C_3   0.927810 0.519580 0.647508 -0.406272
C4    C     C_3   0.926433 0.617837 0.415209 -0.430855
C5    C     C_R   0.540331 0.062768 0.620737 0.137406
C6    C     C_R   0.526263 0.128427 0.499369 -0.112516
C7    C     C_R   0.539479 0.065490 0.375612 -0.237502
C8    C     C_R   0.540553 0.935983 0.375205 -0.244754
C9    C     C_R   0.528554 0.871017 0.498557 -0.106870
C10   C     C_R   0.542028 0.934805 0.620338 0.132645
C11   C     C_3   0.468501 0.925118 0.749300 -0.475140
C12   C     C_R   0.257805 0.502391 0.500223 0.839530
C13   C     C_3   0.465369 0.067065 0.748877 -0.503758
C14   C     C_R   0.392369 0.474406 0.072055 0.218756
C15   C     C_R   0.603218 0.536765 0.071294 -0.146476
C16   C     C_R   0.603221 0.536785 0.927405 -0.145347
C17   C     C_R   0.392235 0.474403 0.929499 0.219129
C18   C     C_3   0.318360 0.355461 0.926710 -0.526652
C19   C     C_3   0.318066 0.356319 0.080358 -0.509544
C20   C     C_R   0.505193 0.739981 0.499547 0.875835
C21   C     C_R   0.742273 0.502190 0.500073 0.838022
C22   C     C_3   0.072682 0.378204 0.445831 -0.466588
C23   C     C_3   0.928337 0.380163 0.440687 -0.408714
C24   C     C_3   0.070328 0.518323 0.647613 -0.391203
C25   C     C_3   0.070921 0.611921 0.403836 -0.037574
C26   C     C_3   0.121531 0.505542 0.500299 0.171500
H1    H     H_    0.104492 0.299716 0.512330 0.173263
H2    H     H_    0.894891 0.706736 0.462569 0.165734
H3    H     H_    0.106545 0.602316 0.699912 0.163264
H4    H     H_    0.893904 0.609208 0.691769 0.161356
H5    H     H_    0.539072 0.114881 0.279311 0.171601
H6    H     H_    0.540416 0.888004 0.278787 0.173768
H7    H     H_    0.374416 0.881589 0.735879 0.210501
H8    H     H_    0.525284 0.885081 0.833464 0.200926
H9    H     H_    0.369393 0.105487 0.733030 0.199996
H10   H     H_    0.519486 0.108815 0.833629 0.202513
H11   H     H_    0.687241 0.564607 0.124790 0.143709
H12   H     H_    0.110405 0.359616 0.342649 0.169739
H13   H     H_    0.687229 0.564694 0.872991 0.144193
H14   H     H_    0.223242 0.368349 0.883415 0.189520
H15   H     H_    0.372791 0.276910 0.883592 0.214354
H16   H     H_    0.223141 0.371840 0.124326 0.189054
H17   H     H_    0.371738 0.277514 0.126334 0.214959
H18   H     H_    0.897001 0.370242 0.333718 0.177921
H19   H     H_    0.890165 0.298799 0.499064 0.164651
H20   H     H_    0.101355 0.436517 0.709135 0.169377
H21   H     H_    0.892783 0.441591 0.713318 0.181026
H22   H     H_    0.090702 0.579944 0.298454 0.137286
H23   H     H_    0.885400 0.616191 0.311512 0.153385
N1    N     N_R   0.499150 0.499140 0.142800 -0.105954
N2    N     N_R   0.499150 0.499180 0.857150 -0.104650
O1    O     O_R   0.500020 0.316790 0.614690 -0.611499
O2    O     O_R   0.500000 0.316760 0.385350 -0.620962
O3    O     O_R   0.314800 0.500000 0.614670 -0.627966
O4    O     O_R   0.314790 0.499960 0.385330 -0.632062
O5    O     O_R   0.500000 0.683240 0.614650 -0.618523
O6    O     O_R   0.499980 0.683210 0.385310 -0.627712
O7    O     O_R   0.685210 0.500040 0.614670 -0.634857
O8    O     O_R   0.685200 0.500000 0.385330 -0.632331
Zn1   Zn    Zn3+2 0.500010 0.500020 0.653130 0.928932
Zn2   Zn    Zn3+2 0.499990 0.499980 0.346870 0.925878
C27   C     C_3   0.134498 0.743395 0.408542 -0.432163
C28   C     C_3   0.137252 0.807458 0.547360 -0.329486
C29   C     C_3   0.169283 0.946611 0.533102 -0.918380
H24   H     H_    0.261964 0.958999 0.482586 0.277522
H25   H     H_    0.096062 0.995766 0.472956 0.261792
H26   H     H_    0.173485 0.989858 0.635010 0.244303
H27   H     H_    0.044899 0.798779 0.599238 0.223991
H28   H     H_    0.210950 0.763165 0.610884 0.212319
H29   H     H_    0.232643 0.736162 0.370436 0.207688
H30   H     H_    0.084286 0.804971 0.335139 0.208328

loop_
_geom_bond_atom_site_label_1
_geom_bond_atom_site_label_2
_ccdc_geom_bond_type
C8    C9    A    
C3    H4    S    
C2    C4    S    
C16   N2    A    
O6    Zn2   S    
C6    C7    A    
C23   H19   S    
C9    C10   A    
C9    C20   S    
C5    C13   S    
C14   C17   A    
C19   H16   S    
C4    H23   S    
C20   O5    A    
C24   H20   S    
C29   H24   S    
C17   N2    A    
C2    C21   S    
C17   C18   S    
C20   O6    A    
C5    C10   A    
C21   O8    A    
O3    Zn1   S    
C24   H3    S    
C11   C13   S    
C25   H22   S    
C29   H25   S    
C3    C24   S    
C27   C28   S    
C15   N1    A    
C5    C6    A    
O4    Zn2   S    
C3    H21   S    
C4    H2    S    
C19   H17   S    
C27   H30   S    
C4    C25   S    
C2    C3    S    
C25   C27   S    
C11   H8    S    
C28   H28   S    
C22   H1    S    
C1    O1    A    
O8    Zn2   S    
C12   O4    A    
C7    H5    S    
C10   C11   S    
C14   N1    A    
C16   H13   S    
O7    Zn1   S    
C1    C6    S    
C8    H6    S    
C29   H26   S    
O5    Zn1   S    
C11   H7    S    
C18   C19   S    
C27   H29   S    
C13   H10   S    
C7    C8    A    
C22   C26   S    
C18   H15   S    
C12   C26   S    
C2    C23   S    
N1    Zn2   S    
C18   H14   S    
C28   H27   S    
C15   H11   S    
C1    O2    A    
N2    Zn1   S    
O1    Zn1   S    
C25   C26   S    
C22   C23   S    
O2    Zn2   S    
C14   C19   S    
C13   H9    S    
C12   O3    A    
C21   O7    A    
C15   C16   A    
C24   C26   S    
C28   C29   S    
C23   H18   S    
C22   H12   S    
