data_mof_unit_2281.cif
_audit_creation_date              2012-10-26T21:32:59-0400
_audit_creation_method            fapswitch 2.2
_symmetry_space_group_name_H-M    P1
_symmetry_Int_Tables_number       1
_space_group_crystal_system       triclinic
_cell_length_a                    28.115696
_cell_length_b                    18.484731
_cell_length_c                    17.072994
_cell_angle_alpha                 90.014736
_cell_angle_beta                  60.7934
_cell_angle_gamma                 90.020293
_cell_volume                      7744.95942079

loop_
_atom_site_label
_atom_site_type_symbol
_atom_type_description
_atom_site_fract_x
_atom_site_fract_y
_atom_site_fract_z
_atom_type_partial_charge
C1    C     C_R   0.701843 0.268835 0.675840 0.909625
C2    C     C_R   0.916239 0.629306 0.597323 -0.299804
C3    C     C_R   0.073894 0.900250 0.934079 0.912673
C4    C     C_R   0.573890 0.599759 0.934091 0.912350
C5    C     C_R   0.426109 0.400179 0.065892 0.909984
C6    C     C_R   0.426226 0.599891 0.065825 0.910509
C7    C     C_R   0.573897 0.400254 0.934076 0.912040
C8    C     C_R   0.520694 0.000012 0.593912 0.014293
C9    C     C_R   0.425281 0.000029 0.577596 0.014761
C10   C     C_R   0.020762 0.499999 0.593735 0.014441
C11   C     C_R   0.925385 0.500022 0.577329 0.014663
C12   C     C_R   0.494356 0.066306 0.597757 0.016150
C13   C     C_R   0.916144 0.370748 0.597403 -0.300958
C14   C     C_R   0.446024 0.933874 0.589994 0.016962
C15   C     C_R   0.445993 0.066169 0.590161 0.020133
C16   C     C_R   0.494376 0.933721 0.597604 0.015813
C17   C     C_R   0.994458 0.566298 0.597489 0.015992
C18   C     C_R   0.946094 0.433869 0.589810 0.017375
C19   C     C_R   0.946131 0.566166 0.589806 0.017549
C20   C     C_R   0.994437 0.433711 0.597442 0.015949
C21   C     C_R   0.599440 0.933863 0.585138 -0.033181
C22   C     C_R   0.359368 0.065791 0.547625 -0.029357
C23   C     C_R   0.359388 0.934267 0.547530 -0.033544
C24   C     C_R   0.017433 0.630142 0.609870 -0.298573
C25   C     C_R   0.599437 0.066143 0.585222 -0.032350
C26   C     C_R   0.099464 0.433854 0.585093 -0.033446
C27   C     C_R   0.859478 0.565784 0.547351 -0.032971
C28   C     C_R   0.859446 0.434267 0.547377 -0.033204
C29   C     C_R   0.099471 0.566126 0.585155 -0.033222
C30   C     C_R   0.655582 0.934782 0.562875 -0.095464
C31   C     C_R   0.323130 0.064459 0.510387 -0.095340
C32   C     C_R   0.323167 0.935579 0.510281 -0.094773
C33   C     C_R   0.655580 0.065229 0.562912 -0.095635
C34   C     C_R   0.155595 0.434775 0.562870 -0.095522
C35   C     C_R   0.517370 0.869856 0.609823 -0.298317
C36   C     C_R   0.823213 0.564447 0.510170 -0.094688
C37   C     C_R   0.823211 0.435578 0.510156 -0.094773
C38   C     C_R   0.155600 0.565219 0.562891 -0.095420
C39   C     C_R   0.681673 0.000011 0.554195 -0.308242
C40   C     C_R   0.307776 0.000015 0.489755 -0.319518
C41   C     C_R   0.181688 0.500003 0.554201 -0.307281
C42   C     C_R   0.807837 0.500005 0.489584 -0.319769
C43   C     C_R   0.573306 0.000006 0.587684 -0.075922
C44   C     C_R   0.382210 0.000033 0.555646 -0.075605
C45   C     C_R   0.073348 0.499992 0.587588 -0.076144
C46   C     C_R   0.416047 0.129291 0.597805 -0.308484
C47   C     C_R   0.882306 0.500026 0.555401 -0.075547
C48   C     C_R   0.067500 0.370346 0.607809 0.620568
C49   C     C_R   0.872065 0.628428 0.581614 0.615246
C50   C     C_R   0.871969 0.371641 0.581706 0.615071
C51   C     C_R   0.067522 0.629626 0.607963 0.621101
C52   C     C_R   0.567479 0.870353 0.607859 0.620756
C53   C     C_R   0.371911 0.128424 0.581975 0.610785
C54   C     C_R   0.371937 0.871624 0.581794 0.615359
C55   C     C_R   0.567480 0.129645 0.608057 0.620479
C56   C     C_R   0.416106 0.870738 0.597507 -0.299490
C57   C     C_R   0.517351 0.130151 0.610083 -0.302055
C58   C     C_R   0.721701 0.267117 0.952666 0.120474
C59   C     C_R   0.279695 0.735008 0.045924 0.113352
C60   C     C_R   0.280260 0.262398 0.045771 0.112301
C61   C     C_R   0.298243 0.731329 0.324106 0.889452
C62   C     C_R   0.721720 0.732897 0.952635 0.120529
C63   C     C_R   0.221696 0.767113 0.952672 0.118493
C64   C     C_R   0.779689 0.235003 0.045931 0.115317
C65   C     C_R   0.779676 0.764973 0.045955 0.115367
C66   C     C_R   0.221442 0.234533 0.952725 0.109846
C67   C     C_R   0.744853 0.198463 0.945628 -0.171524
C68   C     C_R   0.256565 0.803684 0.052933 -0.175595
C69   C     C_R   0.222954 0.263748 0.091079 -0.176645
C70   C     C_R   0.744844 0.801571 0.945708 -0.171532
C71   C     C_R   0.244881 0.698476 0.945588 -0.170285
C72   C     C_R   0.298339 0.268485 0.324091 0.889573
C73   C     C_R   0.756591 0.303695 0.052895 -0.176780
C74   C     C_R   0.756607 0.696261 0.052808 -0.176803
C75   C     C_R   0.278766 0.233109 0.907365 -0.170846
C76   C     C_R   0.773301 0.182555 0.991800 -0.172999
C77   C     C_R   0.228098 0.819589 0.006761 -0.168383
C78   C     C_R   0.193980 0.250027 0.045215 -0.177007
C79   C     C_R   0.773278 0.817462 0.991914 -0.173091
C80   C     C_R   0.273334 0.682572 0.991753 -0.171787
C81   C     C_R   0.728129 0.319605 0.006716 -0.169543
C82   C     C_R   0.728159 0.680367 0.006594 -0.169645
C83   C     C_R   0.701839 0.731173 0.675848 0.909379
C84   C     C_R   0.307755 0.246875 0.953256 -0.177954
C85   C     C_R   0.643791 0.327126 0.945566 -0.204523
C86   C     C_R   0.357167 0.674355 0.053635 -0.197404
C87   C     C_R   0.357312 0.324683 0.053415 -0.200510
C88   C     C_R   0.643786 0.672926 0.945566 -0.204686
C89   C     C_R   0.143779 0.827108 0.945576 -0.203249
C90   C     C_R   0.857154 0.174336 0.053645 -0.198700
C91   C     C_R   0.857164 0.825603 0.053641 -0.198840
C92   C     C_R   0.143858 0.173394 0.945575 -0.202298
C93   C     C_R   0.616460 0.347214 0.898264 -0.071184
C94   C     C_R   0.201843 0.768837 0.675840 0.909547
C95   C     C_R   0.383988 0.653403 0.101424 -0.066639
C96   C     C_R   0.384066 0.346229 0.101252 -0.066266
C97   C     C_R   0.616448 0.652820 0.898278 -0.071205
C98   C     C_R   0.116454 0.847205 0.898268 -0.071410
C99   C     C_R   0.883980 0.153393 0.101429 -0.066393
C100  C     C_R   0.883995 0.846570 0.101413 -0.066458
C101  C     C_R   0.116476 0.152998 0.898344 -0.072901
C102  C     C_R   0.633023 0.322048 0.813241 -0.243707
C103  C     C_R   0.367194 0.678177 0.186693 -0.259980
C104  C     C_R   0.367312 0.321640 0.186600 -0.259826
C105  C     C_R   0.798244 0.231331 0.324105 0.889270
C106  C     C_R   0.633008 0.677973 0.813256 -0.242781
C107  C     C_R   0.133021 0.822047 0.813241 -0.242878
C108  C     C_R   0.867192 0.178175 0.186694 -0.260828
C109  C     C_R   0.867208 0.821803 0.186678 -0.259835
C110  C     C_R   0.132977 0.178074 0.813305 -0.243160
C111  C     C_R   0.679674 0.281697 0.770762 -0.054289
C112  C     C_R   0.320737 0.718962 0.228943 -0.051878
C113  C     C_R   0.320969 0.280633 0.228912 -0.052059
C114  C     C_R   0.679672 0.718325 0.770766 -0.054508
C115  C     C_R   0.179674 0.781699 0.770762 -0.054381
C116  C     C_R   0.798248 0.768659 0.324097 0.889525
C117  C     C_R   0.820737 0.218963 0.228943 -0.051773
C118  C     C_R   0.820740 0.781011 0.228938 -0.051984
C119  C     C_R   0.179619 0.218446 0.770705 -0.052222
C120  C     C_R   0.708295 0.260905 0.816440 -0.162809
C121  C     C_R   0.292607 0.740611 0.182743 -0.197914
C122  C     C_R   0.293098 0.258214 0.182670 -0.197754
C123  C     C_R   0.708310 0.739128 0.816430 -0.162977
C124  C     C_R   0.208296 0.760909 0.816439 -0.162111
C125  C     C_R   0.792606 0.240613 0.182743 -0.198609
C126  C     C_R   0.792596 0.759346 0.182749 -0.198661
C127  C     C_R   0.201796 0.231263 0.675836 0.909444
C128  C     C_R   0.208171 0.239650 0.816292 -0.164426
C129  C     C_R   0.690473 0.283948 0.904826 0.062421
C130  C     C_R   0.310673 0.717903 0.094125 0.072734
C131  C     C_R   0.311228 0.280240 0.093833 0.073102
C132  C     C_R   0.690483 0.716091 0.904809 0.062494
C133  C     C_R   0.190467 0.783941 0.904832 0.062484
C134  C     C_R   0.810666 0.217894 0.094132 0.072655
C135  C     C_R   0.810661 0.782057 0.094143 0.072719
C136  C     C_R   0.190278 0.217203 0.904863 0.062915
C137  C     C_R   0.690854 0.129578 0.536567 0.928060
C138  C     C_R   0.017408 0.369848 0.609717 -0.300089
C139  C     C_R   0.301049 0.871401 0.490289 0.933115
C140  C     C_R   0.300986 0.128618 0.490456 0.933972
C141  C     C_R   0.690855 0.870435 0.536556 0.927869
C142  C     C_R   0.190861 0.629574 0.536553 0.927740
C143  C     C_R   0.801069 0.371403 0.490234 0.932906
C144  C     C_R   0.801050 0.628601 0.490284 0.933048
C145  C     C_R   0.190859 0.370431 0.536556 0.927726
C146  C     C_R   0.074019 0.099660 0.933999 0.912267
C147  C     C_R   0.926230 0.900099 0.065813 0.910163
C148  C     C_R   0.926222 0.099887 0.065828 0.909902
F1    F     F_    0.081292 0.309728 0.636890 -0.662112
F2    F     F_    0.838713 0.686749 0.611201 -0.662725
F3    F     F_    0.838548 0.313369 0.611378 -0.662746
F4    F     F_    0.081336 0.690213 0.637118 -0.662196
F5    F     F_    0.581292 0.809727 0.636891 -0.662250
F6    F     F_    0.338570 0.186760 0.611445 -0.668943
F7    F     F_    0.338552 0.813315 0.611374 -0.662705
F8    F     F_    0.581331 0.190251 0.637121 -0.663692
H1    H     H_    0.724523 0.000018 0.535154 0.195908
H2    H     H_    0.424217 0.180088 0.619837 0.169069
H3    H     H_    0.424300 0.819913 0.619399 0.172622
H4    H     H_    0.497176 0.181775 0.622924 0.170939
H5    H     H_    0.711781 0.373558 0.012396 0.131751
H6    H     H_    0.289648 0.628601 0.986078 0.133972
H7    H     H_    0.351832 0.244599 0.916389 0.139511
H8    H     H_    0.711826 0.626401 0.012182 0.131806
H9    H     H_    0.211725 0.873529 0.012478 0.134802
H10   H     H_    0.789591 0.128571 0.986161 0.131026
H11   H     H_    0.789552 0.871460 0.986369 0.131075
H12   H     H_    0.282039 0.000006 0.458728 0.191516
H13   H     H_    0.149909 0.252438 0.082097 0.133360
H14   H     H_    0.740099 0.156519 0.905693 0.130710
H15   H     H_    0.261268 0.845587 0.092966 0.133817
H16   H     H_    0.200397 0.277006 0.161776 0.134050
H17   H     H_    0.740077 0.843538 0.905838 0.130773
H18   H     H_    0.240149 0.656539 0.905622 0.132642
H19   H     H_    0.761316 0.345607 0.092897 0.131843
H20   H     H_    0.761345 0.654326 0.092744 0.131901
H21   H     H_    0.301299 0.219909 0.836632 0.158086
H22   H     H_    0.629425 0.346478 0.013323 0.149826
H23   H     H_    0.224534 0.500012 0.535187 0.196011
H24   H     H_    0.371732 0.655291 0.985707 0.152313
H25   H     H_    0.370601 0.345558 0.986612 0.151473
H26   H     H_    0.629420 0.653586 0.013322 0.149866
H27   H     H_    0.129405 0.846448 0.013340 0.150254
H28   H     H_    0.871711 0.155261 0.985724 0.151907
H29   H     H_    0.871722 0.844666 0.985720 0.151964
H30   H     H_    0.130718 0.152177 0.012179 0.150943
H31   H     H_    0.611624 0.338230 0.777667 0.190373
H32   H     H_    0.388205 0.661294 0.222640 0.177864
H33   H     H_    0.388170 0.338952 0.222646 0.177898
H34   H     H_    0.782088 0.499993 0.458580 0.190999
H35   H     H_    0.611600 0.661776 0.777688 0.190683
H36   H     H_    0.111625 0.838233 0.777664 0.190749
H37   H     H_    0.888205 0.161296 0.222638 0.177423
H38   H     H_    0.888229 0.838700 0.222618 0.177802
H39   H     H_    0.111608 0.161707 0.777734 0.190673
H40   H     H_    0.745720 0.230122 0.782048 0.175102
H41   H     H_    0.255334 0.771723 0.216915 0.152292
H42   H     H_    0.256716 0.225304 0.216302 0.151012
H43   H     H_    0.745747 0.769910 0.782036 0.175123
H44   H     H_    0.245724 0.730134 0.782043 0.175384
H45   H     H_    0.997243 0.318210 0.622442 0.172644
H46   H     H_    0.755337 0.271734 0.216911 0.152015
H47   H     H_    0.755315 0.728226 0.216918 0.152027
H48   H     H_    0.244806 0.272059 0.782422 0.170644
H49   H     H_    0.924461 0.680135 0.619210 0.172552
H50   H     H_    0.924310 0.319937 0.619364 0.172550
H51   H     H_    0.997268 0.681770 0.622694 0.172657
H52   H     H_    0.497207 0.818216 0.622555 0.172726
O1    O     O_R   0.746490 0.236330 0.638080 -0.593610
O2    O     O_R   0.325830 0.813840 0.483730 -0.572701
O3    O     O_R   0.325830 0.186160 0.483730 -0.571974
O4    O     O_R   0.674170 0.813840 0.516270 -0.565857
O5    O     O_R   0.174170 0.686160 0.516270 -0.566202
O6    O     O_R   0.825830 0.313840 0.483730 -0.573241
O7    O     O_R   0.825830 0.686160 0.483730 -0.572693
O8    O     O_R   0.174170 0.313840 0.516270 -0.567177
O9    O     O_R   0.739960 0.127620 0.525000 -0.649644
O10   O     O_R   0.260040 0.872380 0.475000 -0.648328
O11   O     O_R   0.260040 0.127620 0.475000 -0.648257
O12   O     O_R   0.253510 0.763670 0.361920 -0.639020
O13   O     O_R   0.739960 0.872380 0.525000 -0.649655
O14   O     O_R   0.239960 0.627620 0.525000 -0.649404
O15   O     O_R   0.760040 0.372380 0.475000 -0.648524
O16   O     O_R   0.760040 0.627620 0.475000 -0.648641
O17   O     O_R   0.239960 0.372380 0.525000 -0.648999
O18   O     O_R   0.680700 0.294870 0.629350 -0.609634
O19   O     O_R   0.319300 0.705130 0.370650 -0.629649
O20   O     O_R   0.319300 0.294870 0.370650 -0.629545
O21   O     O_R   0.680700 0.705130 0.629350 -0.609605
O22   O     O_R   0.180700 0.794870 0.629350 -0.609637
O23   O     O_R   0.253510 0.236330 0.361920 -0.640102
O24   O     O_R   0.819300 0.205130 0.370650 -0.629896
O25   O     O_R   0.819300 0.794870 0.370650 -0.629592
O26   O     O_R   0.180700 0.205130 0.629350 -0.609886
O27   O     O_R   0.062020 0.072840 0.007170 -0.629197
O28   O     O_R   0.937980 0.927160 0.992830 -0.626680
O29   O     O_R   0.937980 0.072840 0.992830 -0.626529
O30   O     O_R   0.062020 0.927160 0.007170 -0.629065
O31   O     O_R   0.562020 0.572840 0.007170 -0.629946
O32   O     O_R   0.437980 0.427160 0.992830 -0.625709
O33   O     O_R   0.437980 0.572840 0.992830 -0.625775
O34   O     O_R   0.746490 0.763670 0.638080 -0.593820
O35   O     O_R   0.562020 0.427160 0.007170 -0.629774
O36   O     O_R   0.947860 0.073950 0.109290 -0.624402
O37   O     O_R   0.052140 0.926050 0.890710 -0.618866
O38   O     O_R   0.052140 0.073950 0.890710 -0.618582
O39   O     O_R   0.947860 0.926050 0.109290 -0.623928
O40   O     O_R   0.447860 0.573950 0.109290 -0.624028
O41   O     O_R   0.552140 0.426050 0.890710 -0.619274
O42   O     O_R   0.552140 0.573950 0.890710 -0.618753
O43   O     O_R   0.447860 0.426050 0.109290 -0.623892
O44   O     O_R   0.246490 0.736330 0.638080 -0.593432
O45   O     O_R   0.753510 0.263670 0.361920 -0.639152
O46   O     O_R   0.753510 0.736330 0.361920 -0.639268
O47   O     O_R   0.246490 0.263670 0.638080 -0.593659
O48   O     O_R   0.674170 0.186160 0.516270 -0.565786
Zn1   Zn    Zn3+2 0.792340 0.208750 0.507670 1.018522
Zn2   Zn    Zn3+2 0.494040 0.500000 0.919480 0.960027
Zn3   Zn    Zn3+2 0.005960 0.000000 0.080520 0.940333
Zn4   Zn    Zn3+2 0.994040 1.000000 0.919480 0.959297
Zn5   Zn    Zn3+2 0.207660 0.791250 0.492330 1.012402
Zn6   Zn    Zn3+2 0.207660 0.208750 0.492330 1.010592
Zn7   Zn    Zn3+2 0.792340 0.791250 0.507670 1.019555
Zn8   Zn    Zn3+2 0.292340 0.708750 0.507670 1.020294
Zn9   Zn    Zn3+2 0.707660 0.291250 0.492330 1.011430
Zn10  Zn    Zn3+2 0.707660 0.708750 0.492330 1.011845
Zn11  Zn    Zn3+2 0.292340 0.291250 0.507670 1.019892
Zn12  Zn    Zn3+2 0.505960 0.500000 0.080520 0.939574

loop_
_geom_bond_atom_site_label_1
_geom_bond_atom_site_label_2
_ccdc_geom_bond_type
C125  C134  A    
C1    O18   A    
C14   C56   A    
O48   Zn9   S    
C59   C130  S    
C65   C79   A    
C5    O32   A    
C137  O9    A    
C123  C132  A    
C5    O43   A    
C64   C73   A    
C11   C47   A    
O12   Zn5   S    
C139  O10   A    
C8    C43   A    
C105  O45   A    
O41   Zn2   S    
C99   C148  S    
O42   Zn2   S    
C25   C43   A    
C69   C78   A    
C28   C47   A    
C116  O46   A    
C77   H9    S    
C103  C112  A    
C99   C108  A    
O36   Zn3   S    
C83   O34   A    
C11   C19   A    
C142  O14   A    
C120  H40   S    
C30   C141  S    
O47   Zn11  S    
C124  C133  A    
C106  C114  A    
C127  O47   A    
C12   C57   A    
C89   H27   S    
C6    O40   A    
C5    C96   S    
C72   O23   A    
C29   C51   A    
C56   H3    S    
C128  C136  A    
C16   C35   A    
C143  O15   A    
C90   C134  A    
C34   C145  S    
C92   H30   S    
C75   C84   A    
C11   C18   A    
C104  H33   S    
C10   C17   A    
C87   C131  A    
C46   H2    S    
C60   C69   A    
O9    Zn1   S    
C31   C40   A    
C62   C70   A    
C13   C18   A    
C128  H48   S    
C20   C138  A    
C37   C42   A    
O4    Zn10  S    
O37   Zn4   S    
C26   C45   A    
C85   C129  A    
C3    O37   A    
C21   C43   A    
C85   C93   A    
C50   F3    S    
C26   C34   A    
C22   C44   A    
C113  C122  A    
C33   C137  S    
C85   H22   S    
C9    C44   A    
C141  O13   A    
C29   C38   A    
O31   Zn12  S    
C116  O25   A    
O34   Zn7   S    
C61   O12   A    
O6    Zn1   S    
C76   H10   S    
C48   F1    S    
C91   C100  A    
C121  C130  A    
C88   C97   A    
C26   C48   A    
O25   Zn7   S    
C147  O28   A    
C24   C51   A    
C91   H29   S    
O22   Zn5   S    
C147  O39   A    
C100  C109  A    
C8    C16   A    
C4    C97   S    
C39   H1    S    
C38   C142  S    
C83   C114  S    
C105  C117  S    
C102  C111  A    
C92   C136  A    
C34   C41   A    
C28   C50   A    
C106  H35   S    
C74   C82   A    
C66   C78   A    
C60   C131  S    
C73   C81   A    
C71   C80   A    
C95   C103  A    
O19   Zn8   S    
C22   C53   A    
C64   C134  S    
C36   C42   A    
C139  O2    A    
O2    Zn8   S    
C55   F8    S    
C7    C93   S    
C54   C56   A    
C101  C146  S    
O28   Zn4   S    
C17   C24   A    
C89   C133  A    
C22   C31   A    
C1    O1    A    
C148  O29   A    
C105  O24   A    
C62   C132  S    
C109  H38   S    
O35   Zn12  S    
C38   C41   A    
O33   Zn2   S    
C58   C81   A    
C10   C20   A    
C54   F7    S    
O44   Zn8   S    
C86   C130  A    
C83   O21   A    
O45   Zn9   S    
C101  C110  A    
C145  O17   A    
C72   C113  S    
C78   H13   S    
C125  H46   S    
C65   C74   A    
C120  C129  A    
O5    Zn5   S    
C111  C120  A    
C69   H16   S    
C73   H19   S    
C9    C14   A    
C74   H20   S    
C108  H37   S    
C2    C49   A    
O7    Zn7   S    
C59   C68   A    
C145  O8    A    
C33   C39   A    
C42   H34   S    
C140  O11   A    
O1    Zn1   S    
C12   C15   A    
O21   Zn10  S    
C121  H41   S    
C87   C96   A    
O29   Zn4   S    
O3    Zn11  S    
C67   H14   S    
C64   C76   A    
O30   Zn3   S    
C6    O33   A    
C2    H49   S    
C61   O19   A    
C122  H42   S    
C141  O4    A    
C80   H6    S    
C65   C135  S    
C84   H7    S    
C57   H4    S    
C92   C101  A    
C32   C139  S    
C143  O6    A    
C66   C136  S    
C114  C123  A    
C49   F2    S    
C27   C47   A    
O23   Zn6   S    
C90   H28   S    
C126  C135  A    
O24   Zn1   S    
C96   C104  A    
C126  H47   S    
C40   H12   S    
C14   C16   A    
C97   C106  A    
C7    O35   A    
C63   C133  S    
C122  C131  A    
C35   C52   A    
O20   Zn11  S    
C94   O22   A    
C23   C54   A    
C63   C77   A    
C123  H43   S    
C68   C77   A    
C90   C99   A    
C124  H44   S    
C146  O27   A    
O46   Zn10  S    
C127  O26   A    
C87   H25   S    
C115  C124  A    
C37   C143  S    
C2    C19   A    
C9    C15   A    
C93   C102  A    
C81   H5    S    
C108  C117  A    
C41   H23   S    
O11   Zn6   S    
C103  H32   S    
C25   C55   A    
C142  O5    A    
C63   C71   A    
O13   Zn7   S    
C94   O44   A    
C110  C119  A    
C51   F4    S    
C144  O7    A    
O39   Zn3   S    
C94   C115  S    
C59   C80   A    
O40   Zn12  S    
C48   C138  A    
C27   C36   A    
C118  C126  A    
C21   C30   A    
C146  O38   A    
C24   H51   S    
C102  H31   S    
C71   H18   S    
C100  C147  S    
C89   C98   A    
C79   H11   S    
C23   C32   A    
C7    O41   A    
C55   C57   A    
C86   H24   S    
C52   F5    S    
C4    O42   A    
C112  C121  A    
C119  C128  A    
C107  H36   S    
C60   C84   A    
C3    C98   S    
C70   C79   A    
C82   H8    S    
C28   C37   A    
C53   F6    S    
C3    O30   A    
C66   C75   A    
C46   C53   A    
C104  C113  A    
C68   H15   S    
C4    O31   A    
C116  C118  S    
C30   C39   A    
C107  C115  A    
C18   C20   A    
O15   Zn9   S    
C32   C40   A    
C62   C82   A    
C88   H26   S    
C75   H21   S    
C70   H17   S    
C144  O16   A    
C137  O48   A    
O38   Zn4   S    
C86   C95   A    
C98   C107  A    
O18   Zn9   S    
O8    Zn6   S    
C13   C50   A    
C17   C19   A    
C27   C49   A    
C58   C67   A    
O26   Zn6   S    
C91   C135  A    
C109  C118  A    
O27   Zn3   S    
C6    C95   S    
C72   O20   A    
C10   C45   A    
C29   C45   A    
C138  H45   S    
C148  O36   A    
O10   Zn5   S    
C88   C132  A    
C13   H50   S    
C110  H39   S    
O16   Zn10  S    
C67   C76   A    
C58   C129  S    
C15   C46   A    
O32   Zn2   S    
C31   C140  S    
C36   C144  S    
C61   C112  S    
C117  C125  A    
O43   Zn12  S    
O17   Zn11  S    
C21   C52   A    
C1    C111  S    
C8    C12   A    
C140  O3    A    
C25   C33   A    
O14   Zn8   S    
C23   C44   A    
C35   H52   S    
C119  C127  S    
