data_mof_unit_830.cif
_audit_creation_date              2012-10-26T20:03:19-0400
_audit_creation_method            fapswitch 2.2
_symmetry_space_group_name_H-M    P1
_symmetry_Int_Tables_number       1
_space_group_crystal_system       triclinic
_cell_length_a                    10.605216
_cell_length_b                    12.32053
_cell_length_c                    13.178516
_cell_angle_alpha                 116.592054
_cell_angle_beta                  77.857278
_cell_angle_gamma                 100.976217
_cell_volume                      1496.17758407

loop_
_atom_site_label
_atom_site_type_symbol
_atom_type_description
_atom_site_fract_x
_atom_site_fract_y
_atom_site_fract_z
_atom_type_partial_charge
C1    C     C_R   0.511451 0.854881 0.286584 0.525718
C2    C     C_R   0.499662 0.566463 0.009343 0.031982
C3    C     C_R   0.460603 0.650314 0.123522 0.025012
C4    C     C_R   0.740188 0.999208 0.499855 0.548288
C5    C     C_R   0.457466 0.440051 0.975918 0.028464
C6    C     C_R   0.367627 0.401051 0.052639 0.052100
C7    C     C_R   0.318711 0.486763 0.159361 -0.142516
C8    C     C_R   0.362880 0.609645 0.193804 -0.124622
C9    C     C_R   0.502618 0.350789 0.868615 -0.136154
C10   C     C_R   0.367275 0.190434 0.911480 -0.137219
C11   C     C_R   0.519333 0.772962 0.163540 -0.000955
C12   C     C_3   0.018804 0.013296 0.602287 -0.157034
C13   C     C_R   0.708629 0.347397 0.330558 -0.155847
C14   C     C_R   0.324266 0.759659 0.645015 0.050596
C15   C     C_R   0.287236 0.663821 0.677488 -0.163886
C16   C     C_R   0.480893 0.145093 0.713365 0.542685
C17   C     C_R   0.354189 0.560880 0.623675 -0.143732
C18   C     C_R   0.459225 0.552189 0.535593 -0.013521
C19   C     C_R   0.494314 0.653345 0.505922 0.180989
C20   C     C_R   0.530739 0.447591 0.476075 -0.018144
C21   C     C_R   0.636422 0.447494 0.389871 0.036979
C22   C     C_R   0.669741 0.547244 0.363192 -0.176631
C23   C     C_3   0.933624 0.905755 0.521119 -0.130512
C24   C     C_R   0.600267 0.647582 0.419704 -0.099125
C25   C     C_R   0.502429 0.342102 0.497661 0.053113
C26   C     C_R   0.676247 0.247151 0.356369 0.035970
C27   C     C_R   0.259803 0.000340 0.499425 0.558085
C28   C     C_3   0.980626 0.985055 0.395475 -0.115843
C29   C     C_3   0.040164 0.893246 0.417331 -0.159053
C30   C     C_3   0.123175 0.000743 0.498434 0.064082
C31   C     C_3   0.063809 0.091128 0.477587 0.288935
C32   C     C_3   0.959083 0.106023 0.581849 -0.130464
C33   C     C_3   0.061849 0.274323 0.469867 0.004183
C34   C     C_3   0.876697 0.998180 0.499896 0.003932
C35   C     C_3   0.134952 0.356243 0.412262 -0.253910
C36   C     C_3   0.064531 0.467666 0.447400 -0.484229
C37   C     C_R   0.325051 0.276609 0.020578 -0.130901
C38   C     C_R   0.453878 0.228091 0.834431 -0.001332
C39   C     C_R   0.598056 0.814792 0.085560 -0.133191
C40   C     C_R   0.624251 0.735733 0.970785 -0.142185
C41   C     C_R   0.578101 0.612650 0.932914 -0.122473
Cu1   Cu    Cu3+1 0.529830 0.098270 0.475420 0.941105
Cu2   Cu    Cu3+1 0.470170 0.901730 0.524580 0.905975
H1    H     H_    0.076379 0.806568 0.350803 0.106632
H2    H     H_    0.423400 0.333806 0.561027 0.133240
H3    H     H_    0.271975 0.839364 0.687463 0.122849
H4    H     H_    0.962076 0.974968 0.311688 0.102910
H5    H     H_    0.321346 0.489493 0.652284 0.106617
H6    H     H_    0.206338 0.669316 0.744583 0.098570
H7    H     H_    0.633819 0.718848 0.392721 0.184547
H8    H     H_    0.922219 0.192075 0.649006 0.094333
H9    H     H_    0.037775 0.024127 0.686208 0.108563
H10   H     H_    0.876662 0.829145 0.538964 0.130680
H11   H     H_    0.328235 0.095548 0.885889 0.120431
H12   H     H_    0.575003 0.374078 0.808693 0.115268
H13   H     H_    0.245781 0.458580 0.216482 0.101168
H14   H     H_    0.256221 0.246446 0.078755 0.103370
H15   H     H_    0.040852 0.330991 0.563810 0.132132
H16   H     H_    0.968657 0.233398 0.434146 0.133349
H17   H     H_    0.233957 0.387356 0.436609 0.190391
H18   H     H_    0.144566 0.303207 0.317590 0.153542
H19   H     H_    0.966832 0.438676 0.419910 0.147038
H20   H     H_    0.121037 0.526877 0.406509 0.145414
H21   H     H_    0.054148 0.521957 0.541870 0.152288
H22   H     H_    0.642307 0.908474 0.113773 0.126421
H23   H     H_    0.603219 0.556941 0.842759 0.102367
H24   H     H_    0.684216 0.769321 0.911217 0.116130
H25   H     H_    0.316448 0.672149 0.275061 0.146065
H26   H     H_    0.731766 0.169650 0.311185 0.113545
H27   H     H_    0.750649 0.547847 0.297505 0.107772
H28   H     H_    0.789770 0.346836 0.264781 0.087678
N1    N     N_R   0.575030 0.246270 0.438190 -0.231535
N2    N     N_R   0.425760 0.754330 0.561190 -0.234878
O1    O     O_R   0.537510 0.972500 0.318130 -0.500855
O2    O     O_R   0.487140 0.806530 0.359650 -0.529918
O3    O     O_R   0.708330 0.082950 0.479220 -0.515084
O4    O     O_R   0.657960 0.916980 0.520740 -0.517799
O5    O     O_R   0.512860 0.193470 0.640350 -0.513877
O6    O     O_R   0.462490 0.027500 0.681870 -0.504411
O7    O     O_R   0.342040 0.083020 0.479260 -0.457073
O8    O     O_R   0.291670 0.917050 0.520780 -0.526038
O9    O     O_3   0.140038 0.184066 0.449964 -0.556552

loop_
_geom_bond_atom_site_label_1
_geom_bond_atom_site_label_2
_ccdc_geom_bond_type
Cu2   N2    S    
C28   H4    S    
Cu1   O7    S    
C33   H15   S    
C26   N1    A    
C35   C36   S    
C1    C11   S    
C17   H5    S    
C7    C8    A    
C14   H3    S    
C12   C23   S    
C31   O9    S    
C10   C37   A    
C1    O1    A    
C23   C29   S    
C28   C29   S    
C5    C6    A    
C20   C25   A    
C2    C41   A    
Cu2   O6    S    
C18   C19   A    
C40   H24   S    
C9    H12   S    
C36   H20   S    
C33   O9    S    
C16   O5    A    
C28   C34   S    
C33   H16   S    
C21   C22   A    
C12   C32   S    
C27   C30   S    
C24   H7    S    
C39   H22   S    
C7    H13   S    
C36   H19   S    
C12   H9    S    
C23   H10   S    
Cu2   O2    S    
C4    C34   S    
Cu1   O1    S    
C1    O2    A    
C14   N2    A    
C19   N2    A    
C27   O7    A    
C39   C40   A    
C13   H28   S    
C35   H17   S    
C32   C34   S    
C32   H8    S    
C5    C9    A    
C29   C30   S    
C31   C32   S    
C27   O8    A    
C23   C34   S    
Cu1   N1    S    
C17   C18   A    
C6    C37   A    
C13   C21   A    
C35   H18   S    
C25   N1    A    
C11   C39   A    
C41   H23   S    
C40   C41   A    
C8    H25   S    
C29   H1    S    
Cu2   O8    S    
C22   C24   A    
C13   C26   A    
C2    C5    A    
Cu1   Cu2   S    
C25   H2    S    
C15   C17   A    
C12   C30   S    
C28   C31   S    
Cu1   O5    S    
C6    C7    A    
Cu2   O4    S    
Cu1   O3    S    
C10   C38   A    
C16   O6    A    
C2    C3    A    
C4    O4    A    
C30   C31   S    
C9    C38   A    
C33   C35   S    
C19   C24   A    
C18   C20   A    
C15   H6    S    
C3    C8    A    
C10   H11   S    
C4    O3    A    
C3    C11   A    
C20   C21   A    
C26   H26   S    
C14   C15   A    
C36   H21   S    
C22   H27   S    
C37   H14   S    
C16   C38   S    
