data_mof_unit_25.cif
_audit_creation_date              2012-12-10T18:33:34-0500
_audit_creation_method            fapswitch 2.2
_symmetry_space_group_name_H-M    P1
_symmetry_Int_Tables_number       1
_space_group_crystal_system       triclinic
_cell_length_a                    8.719272
_cell_length_b                    15.088537
_cell_length_c                    13.841366
_cell_angle_alpha                 89.28279
_cell_angle_beta                  97.886444
_cell_angle_gamma                 90.150099
_cell_volume                      1803.61973679

loop_
_atom_site_label
_atom_site_type_symbol
_atom_type_description
_atom_site_fract_x
_atom_site_fract_y
_atom_site_fract_z
_atom_type_partial_charge
C1    C     C_R   0.498207 0.329655 0.500447 0.876658
C2    C     C_R   0.498381 0.670416 0.499241 0.861137
C3    C     C_R   0.620873 0.453259 0.119749 -0.090690
C4    C     C_R   0.376908 0.454941 0.881245 -0.096034
C5    C     C_R   0.616436 0.457467 0.221505 0.038431
C6    C     C_R   0.381491 0.459295 0.779446 0.082879
C7    C     C_R   0.384209 0.539761 0.197277 0.188290
C8    C     C_R   0.615539 0.540109 0.801666 0.114130
C9    C     C_R   0.383807 0.538913 0.095697 -0.218714
C10   C     C_R   0.616153 0.538822 0.903347 -0.223671
C11   C     C_R   0.501613 0.495288 0.054796 0.064218
C12   C     C_R   0.497668 0.495520 0.945278 0.079250
C13   C     C_R   0.203634 0.499981 0.475092 0.948363
C14   C     C_R   0.796374 0.499866 0.524906 0.871087
C15   C     C_2   0.037877 0.499918 0.461281 -0.290202
C16   C     C_2   0.962144 0.499621 0.538713 -0.308515
C17   C     C_R   0.443441 0.088074 0.562007 -0.183747
C18   C     C_R   0.449572 0.912028 0.426164 -0.204316
C19   C     C_R   0.421881 0.179527 0.560531 0.436671
C20   C     C_R   0.427985 0.820555 0.423532 0.375968
C21   C     C_R   0.507064 0.232783 0.502091 -0.172325
C22   C     C_R   0.507307 0.767436 0.499131 -0.154655
C23   C     C_R   0.608277 0.193030 0.444922 -0.250988
C24   C     C_R   0.602614 0.807534 0.576482 -0.270314
C25   C     C_R   0.629142 0.101064 0.445646 0.025248
C26   C     C_R   0.623239 0.899527 0.579762 0.022902
C27   C     C_R   0.544634 0.048641 0.505301 -0.004107
C28   C     C_R   0.544913 0.951704 0.503039 0.016602
Cu1   Cu    Cu3+1 0.500000 0.499990 0.596430 1.017339
Cu2   Cu    Cu3+1 0.500000 0.500010 0.403570 1.021138
H1    H     H_    0.977971 0.500211 0.386996 0.184481
H2    H     H_    0.022073 0.499236 0.612996 0.187539
H3    H     H_    0.378162 0.046354 0.606024 0.188606
H4    H     H_    0.388641 0.953580 0.369019 0.184434
H5    H     H_    0.674101 0.234713 0.401175 0.206462
H6    H     H_    0.664120 0.766149 0.633584 0.199260
H7    H     H_    0.704923 0.424387 0.271481 0.168475
H8    H     H_    0.291017 0.428012 0.730228 0.199868
H9    H     H_    0.291100 0.572421 0.226863 0.189245
H10   H     H_    0.708067 0.573514 0.771145 0.132377
H11   H     H_    0.290879 0.571846 0.048896 0.153787
H12   H     H_    0.709444 0.571397 0.949407 0.150476
N1    N     N_R   0.500000 0.500020 0.258690 -0.202229
N2    N     N_R   0.500000 0.499980 0.741310 -0.193755
O1    O     O_R   0.500010 0.371450 0.581430 -0.515345
O2    O     O_R   0.499990 0.628550 0.418570 -0.521862
O3    O     O_R   0.500010 0.371460 0.418560 -0.597995
O4    O     O_R   0.499990 0.628540 0.581440 -0.604129
O5    O     O_R   0.274840 0.499990 0.562640 -0.589503
O6    O     O_R   0.725160 0.500010 0.437360 -0.597577
O7    O     O_R   0.274840 0.500000 0.399770 -0.579416
O8    O     O_R   0.725160 0.500000 0.600230 -0.590175
S1    S     S_3+6 0.284095 0.222728 0.630308 0.024241
O9    O     O_2   0.199377 0.300047 0.578581 -0.311426
O10   O     O_2   0.168622 0.152092 0.647753 -0.259507
O11   O     O_3   0.378316 0.255413 0.738131 -0.512779
H13   H     H_    0.299215 0.254883 0.783124 0.382565
S2    S     S_3+6 0.297048 0.777115 0.326296 0.019127
O12   O     O_2   0.204567 0.702412 0.362157 -0.288854
O13   O     O_2   0.187275 0.847836 0.281836 -0.257306
O14   O     O_3   0.398371 0.739470 0.240434 -0.527751
H14   H     H_    0.458329 0.791296 0.221770 0.355923
C29   C     C_2   0.740612 0.062970 0.384745 0.893201
O15   O     O_2   0.786773 0.986749 0.397898 -0.557131
O16   O     O_R   0.795434 0.115382 0.312694 -0.745146
H15   H     H_    0.871182 0.082636 0.276617 0.359734
C30   C     C_2   0.727827 0.937980 0.663116 0.886494
O17   O     O_2   0.776226 0.013871 0.658886 -0.536637
O18   O     O_R   0.773523 0.886294 0.746687 -0.761049
H16   H     H_    0.845126 0.919258 0.798055 0.357409
C31   C     C_2   0.748411 0.402353 0.085261 0.845939
O19   O     O_2   0.731684 0.369676 0.004099 -0.551567
O20   O     O_R   0.887732 0.389904 0.147186 -0.764506
H17   H     H_    0.965671 0.354146 0.115950 0.364370
C32   C     C_2   0.247296 0.405533 0.916759 0.815430
O21   O     O_2   0.263131 0.371777 0.998279 -0.562252
O22   O     O_R   0.107073 0.395581 0.855322 -0.763123
H18   H     H_    0.027875 0.360387 0.887119 0.369542

loop_
_geom_bond_atom_site_label_1
_geom_bond_atom_site_label_2
_ccdc_geom_bond_type
Cu2   O7    S    
C29   O16   S    
C1    C21   S    
C5    H7    S    
C10   H12   S    
O20   H17   S    
Cu1   O5    S    
O22   H18   S    
C2    O2    A    
C24   H6    S    
C26   C30   S    
C19   C21   A    
C24   C26   A    
S2    O13   D    
C15   C16   D    
O11   H13   S    
C25   C29   S    
C4    C32   S    
C13   O7    A    
C14   O8    A    
C2    C22   S    
C6    H8    S    
C7    N1    A    
C4    C12   A    
C18   C20   A    
C19   S1    S    
S2    O14   S    
S1    O10   D    
Cu2   O6    S    
C6    N2    A    
O18   H16   S    
C17   H3    S    
C18   H4    S    
Cu1   O4    S    
C30   O17   D    
C17   C27   A    
Cu2   O3    S    
C18   C28   A    
C4    C6    A    
C31   O20   S    
C1    O3    A    
C2    O4    A    
S2    O12   D    
S1    O9    D    
Cu1   O1    S    
C30   O18   S    
C3    C31   S    
C32   O21   D    
Cu1   Cu2   S    
C32   O22   S    
C9    C11   A    
C10   C12   A    
C13   O5    A    
C20   C22   A    
C23   H5    S    
C13   C15   S    
Cu1   N2    S    
C22   C24   A    
Cu2   N1    S    
C25   C27   A    
C20   S2    S    
S1    O11   S    
C7    C9    A    
C26   C28   A    
Cu2   O2    S    
C8    N2    A    
C3    C5    A    
C11   C12   S    
C15   H1    S    
C16   H2    S    
C9    H11   S    
C21   C23   A    
C31   O19   D    
C1    O1    A    
C14   O6    A    
C17   C19   A    
C14   C16   S    
C23   C25   A    
C5    N1    A    
O14   H14   S    
C3    C11   A    
C29   O15   D    
C8    C10   A    
O16   H15   S    
C27   C28   S    
C7    H9    S    
C8    H10   S    
Cu1   O8    S    
