data_mof_unit_1899.cif
_audit_creation_date              2012-12-10T18:09:49-0500
_audit_creation_method            fapswitch 2.2
_symmetry_space_group_name_H-M    P1
_symmetry_Int_Tables_number       1
_space_group_crystal_system       triclinic
_cell_length_a                    10.772764
_cell_length_b                    12.57887
_cell_length_c                    13.252212
_cell_angle_alpha                 82.797996
_cell_angle_beta                  89.993888
_cell_angle_gamma                 101.832409
_cell_volume                      1743.1552759

loop_
_atom_site_label
_atom_site_type_symbol
_atom_type_description
_atom_site_fract_x
_atom_site_fract_y
_atom_site_fract_z
_atom_type_partial_charge
C1    C     C_R   0.482975 0.439198 0.690550 0.948980
C2    C     C_3   0.121432 0.502704 0.497675 -0.269017
C3    C     C_3   0.076911 0.527863 0.384745 0.886631
C4    C     C_3   0.095644 0.591543 0.564251 0.395464
C5    C     C_R   0.444343 0.709309 0.062414 0.659664
C6    C     C_R   0.517790 0.595852 0.200177 -0.272096
C7    C     C_R   0.552250 0.317730 0.826277 -0.127945
C8    C     C_R   0.611604 0.311853 0.918753 -0.139629
C9    C     C_R   0.604817 0.388930 0.983798 -0.074553
C10   C     C_R   0.524673 0.465363 0.963333 0.077093
C11   C     C_R   0.463917 0.470980 0.869189 -0.065984
C12   C     C_R   0.741473 0.499298 0.504048 1.007409
C13   C     C_R   0.507571 0.539693 0.031419 -0.106773
C14   C     C_R   0.449694 0.629328 0.998348 -0.151884
C15   C     C_R   0.388487 0.632180 0.905827 -0.210819
C16   C     C_R   0.387233 0.549374 0.845692 0.593621
C17   C     C_R   0.534298 0.521004 0.134203 0.519927
C18   C     C_R   0.481404 0.693571 0.162823 -0.392834
C19   C     C_R   0.487608 0.402415 0.798211 -0.112213
C20   C     C_R   0.284444 0.076013 0.387363 -0.280077
C21   C     C_R   0.654276 0.801574 0.625936 -0.059168
C22   C     C_R   0.684306 0.906726 0.653197 -0.328698
C23   C     C_R   0.517213 0.560696 0.309090 0.890497
C24   C     C_R   0.625032 0.987525 0.605794 0.700766
C25   C     C_R   0.537716 0.963449 0.527707 -0.129050
C26   C     C_R   0.506897 0.854028 0.505566 0.127125
C27   C     C_R   0.472554 0.040947 0.476325 -0.110463
C28   C     C_R   0.362806 0.003962 0.421579 0.078431
C29   C     C_R   0.335971 0.896872 0.398775 -0.142638
C30   C     C_R   0.412728 0.825170 0.435001 -0.047327
C31   C     C_R   0.514933 0.154953 0.471873 0.706166
C32   C     C_R   0.318333 0.184365 0.405685 -0.075658
C33   C     C_R   0.258025 0.500507 0.499427 0.977330
C34   C     C_3   0.902856 0.389695 0.553972 0.328240
C35   C     C_3   0.045325 0.389592 0.548497 -0.646232
C36   C     C_3   0.929067 0.517479 0.390843 0.202951
C37   C     C_3   0.953090 0.590794 0.568908 0.302659
C38   C     C_3   0.878709 0.502638 0.503503 -0.333268
H1    H     H_    0.852512 0.322397 0.513887 0.204729
H2    H     H_    0.468996 0.752021 0.213489 0.197840
H3    H     H_    0.334838 0.694767 0.882625 0.227230
H4    H     H_    0.570193 0.264523 0.772076 0.223235
H5    H     H_    0.668361 0.390158 0.046670 0.191972
H6    H     H_    0.671107 0.252686 0.936641 0.173300
H7    H     H_    0.254076 0.238722 0.386752 0.168212
H8    H     H_    0.257564 0.869333 0.350710 0.168553
H9    H     H_    0.196768 0.048244 0.349505 0.157139
H10   H     H_    0.699279 0.738384 0.663156 0.195476
H11   H     H_    0.750901 0.924803 0.712955 0.197107
H12   H     H_    0.393394 0.746674 0.409111 0.218267
H13   H     H_    0.080052 0.370469 0.626470 0.259043
H14   H     H_    0.059882 0.323121 0.504511 0.230849
H15   H     H_    0.886704 0.437703 0.362844 0.090397
H16   H     H_    0.923672 0.556685 0.648897 0.152883
H17   H     H_    0.126928 0.570201 0.642951 0.158001
N1    N     N_R   0.433240 0.222190 0.444680 -0.157228
N2    N     N_R   0.566070 0.776970 0.554790 -0.128974
O1    O     O_R   0.468120 0.366740 0.627160 -0.613359
O2    O     O_R   0.510770 0.544830 0.662520 -0.589541
O3    O     O_R   0.663880 0.410950 0.482330 -0.591561
O4    O     O_R   0.706530 0.589040 0.517700 -0.592929
O5    O     O_R   0.489230 0.455170 0.337480 -0.570218
O6    O     O_R   0.531880 0.633260 0.372840 -0.658828
O7    O     O_R   0.293470 0.410960 0.482300 -0.644141
O8    O     O_R   0.336120 0.589050 0.517670 -0.555799
Zn1   Zn    Zn3+2 0.471520 0.381090 0.476390 1.008559
Zn2   Zn    Zn3+2 0.528480 0.618910 0.523610 0.996439
F1    F     F_    0.165369 0.695458 0.531461 -0.620039
O9    O     O_3   0.888663 0.605720 0.331874 -0.636301
C39   C     C_3   0.817179 0.570126 0.248717 -0.324501
H18   H     H_    0.733198 0.506492 0.276007 0.213075
H19   H     H_    0.873154 0.535247 0.195945 0.168785
H20   H     H_    0.785991 0.641111 0.205869 0.192153
O10   O     O_3   0.143962 0.636518 0.346154 -0.633965
C40   C     C_3   0.124982 0.673570 0.242974 -0.244487
H21   H     H_    0.075196 0.609478 0.198933 0.183202
H22   H     H_    0.218787 0.708446 0.205203 0.180525
H23   H     H_    0.072259 0.740970 0.238925 0.196598
F2    F     F_    0.395207 0.798491 0.030169 -0.670625
F3    F     F_    0.557407 0.422197 0.173808 -0.707965
F4    F     F_    0.857924 0.365950 0.654169 -0.635078
F5    F     F_    0.309684 0.545847 0.764896 -0.684967
O11   O     O_3   0.642571 0.199143 0.476126 -0.551203
C41   C     C_3   0.695813 0.207606 0.377086 -0.332211
H24   H     H_    0.800458 0.231429 0.379833 0.172449
H25   H     H_    0.662323 0.271725 0.324879 0.212443
H26   H     H_    0.674914 0.128016 0.345413 0.148352
F6    F     F_    0.644712 0.084472 0.644159 -0.621593
O12   O     O_3   0.097490 0.443978 0.325977 -0.699248
C42   C     C_3   0.212673 0.465546 0.269226 -0.229666
H27   H     H_    0.253621 0.391406 0.278105 0.202872
H28   H     H_    0.283028 0.533720 0.292577 0.169363
H29   H     H_    0.194538 0.482777 0.187033 0.161187
O13   O     O_3   0.921887 0.696493 0.563860 -0.591309
C43   C     C_3   0.942202 0.762872 0.468904 -0.011650
H30   H     H_    0.017621 0.746931 0.420725 0.235192
H31   H     H_    0.852265 0.756536 0.427301 0.181338
H32   H     H_    0.971310 0.849393 0.483164 0.133992

loop_
_geom_bond_atom_site_label_1
_geom_bond_atom_site_label_2
_ccdc_geom_bond_type
C2    C35   S    
C32   H7    S    
C43   H30   S    
C41   H26   S    
C43   H32   S    
C33   O8    A    
C7    C8    A    
C11   C19   A    
C29   C30   A    
C28   C29   A    
C41   H25   S    
C1    O2    A    
C15   C16   A    
C31   O11   S    
C34   C35   S    
C7    H4    S    
C3    O10   S    
C18   H2    S    
C36   H15   S    
O2    Zn2   S    
O1    Zn1   S    
C23   O5    A    
C8    C9    A    
O8    Zn2   S    
C39   H18   S    
C34   F4    S    
C31   N1    A    
C5    F2    S    
C9    C10   A    
C21   H10   S    
C23   O6    A    
C30   H12   S    
O3    Zn1   S    
C21   C22   A    
O9    C39   S    
N2    Zn2   S    
C26   N2    A    
C6    C18   A    
O6    Zn2   S    
C9    H5    S    
C1    C19   S    
O10   C40   S    
O5    Zn1   S    
C27   C31   A    
C34   H1    S    
C24   C25   A    
C15   H3    S    
C4    F1    S    
C5    C18   A    
C20   C28   A    
C25   C26   A    
C17   F3    S    
O7    Zn1   S    
C2    C4    S    
C40   H21   S    
C21   N2    A    
C37   C38   S    
C40   H22   S    
C11   C16   A    
O4    Zn2   S    
C42   H28   S    
O11   C41   S    
C39   H20   S    
C16   F5    S    
C41   H24   S    
C24   F6    S    
C5    C14   A    
C22   H11   S    
C37   H16   S    
C2    C33   S    
C26   C30   A    
C7    C19   A    
C4    H17   S    
C35   H13   S    
C22   C24   A    
C35   H14   S    
C36   O9    S    
C42   H29   S    
C20   C32   A    
C6    C17   A    
C34   C38   S    
C8    H6    S    
C10   C13   A    
C43   H31   S    
C25   C27   A    
C13   C17   A    
C29   H8    S    
C3    O12   S    
C36   C38   S    
C2    C3    S    
C1    O1    A    
C12   O4    A    
C42   H27   S    
C3    C36   S    
C33   O7    A    
N1    Zn1   S    
C6    C23   S    
C37   O13   S    
C12   C38   S    
O13   C43   S    
C40   H23   S    
C20   H9    S    
C10   C11   A    
C12   O3    A    
C4    C37   S    
C27   C28   A    
C14   C15   A    
C39   H19   S    
O12   C42   S    
C13   C14   A    
C32   N1    A    
