data_mof_unit_2162.cif
_audit_creation_date              2012-12-10T17:53:24-0500
_audit_creation_method            fapswitch 2.2
_symmetry_space_group_name_H-M    P1
_symmetry_Int_Tables_number       1
_space_group_crystal_system       triclinic
_cell_length_a                    23.427439
_cell_length_b                    10.609604
_cell_length_c                    9.950423
_cell_angle_alpha                 89.473118
_cell_angle_beta                  89.647042
_cell_angle_gamma                 92.514902
_cell_volume                      2470.69593515

loop_
_atom_site_label
_atom_site_type_symbol
_atom_type_description
_atom_site_fract_x
_atom_site_fract_y
_atom_site_fract_z
_atom_type_partial_charge
C1    C     C_R   0.500967 0.260758 0.500500 0.845965
C2    C     C_R   0.120844 0.604759 0.451869 0.513044
C3    C     C_R   0.242161 0.612482 0.560503 -0.104211
C4    C     C_R   0.389821 0.501028 0.500687 0.873208
C5    C     C_R   0.301610 0.612381 0.554178 0.108609
C6    C     C_R   0.327962 0.504732 0.503463 -0.032819
C7    C     C_R   0.294295 0.399288 0.459652 0.126270
C8    C     C_R   0.235119 0.405220 0.460578 -0.104172
C9    C     C_R   0.209025 0.510105 0.512704 0.210049
C10   C     C_R   0.761951 0.471030 0.386214 -0.128276
C11   C     C_R   0.702859 0.473180 0.383470 -0.233208
C12   C     C_R   0.967790 0.299635 0.639113 0.176465
C13   C     C_R   0.672622 0.499591 0.500851 -0.086146
C14   C     C_R   0.701983 0.524559 0.620779 -0.247799
C15   C     C_R   0.761433 0.523448 0.624759 0.205522
C16   C     C_R   0.501850 0.739292 0.499295 0.856439
C17   C     C_R   0.791303 0.496065 0.505668 0.289584
C18   C     C_R   0.599995 0.140297 0.607342 -0.218485
C19   C     C_R   0.647690 0.079363 0.653616 -0.160397
C20   C     C_R   0.649320 0.947911 0.648174 0.237709
C21   C     C_R   0.602067 0.877870 0.598345 -0.220586
C22   C     C_R   0.553292 0.938719 0.552004 0.058851
C23   C     C_R   0.027526 0.308835 0.644446 -0.154217
C24   C     C_R   0.552489 0.070582 0.555148 0.096773
C25   C     C_R   0.504634 0.128617 0.500910 -0.069763
C26   C     C_R   0.459962 0.060412 0.440189 -0.216523
C27   C     C_R   0.460300 0.931773 0.439173 -0.206257
C28   C     C_R   0.610493 0.500470 0.499797 0.851900
C29   C     C_R   0.505680 0.871934 0.497413 -0.083548
C30   C     C_R   0.426652 0.329249 0.141602 -0.127248
C31   C     C_R   0.391335 0.243458 0.072570 -0.189793
C32   C     C_R   0.391004 0.244464 0.933439 -0.172591
C33   C     C_R   0.426382 0.330438 0.862456 -0.123993
C34   C     C_R   0.058573 0.409269 0.582661 -0.063896
C35   C     C_R   0.463868 0.416139 0.929004 0.147273
C36   C     C_R   0.463966 0.415832 0.073279 0.125824
C37   C     C_R   0.534476 0.582191 0.068293 0.219794
C38   C     C_R   0.534355 0.580437 0.925503 -0.115546
C39   C     C_R   0.882137 0.594829 0.447667 0.479096
C40   C     C_R   0.877996 0.394607 0.560662 0.517967
C41   C     C_R   0.938069 0.395810 0.571393 -0.039315
C42   C     C_R   0.969732 0.499259 0.511974 -0.061531
C43   C     C_R   0.941566 0.598118 0.447980 0.003266
C44   C     C_3   0.938163 0.187582 0.708942 -0.784089
C45   C     C_R   0.029821 0.504325 0.515606 -0.022776
C46   C     C_3   0.791571 0.557117 0.754731 -0.421645
C47   C     C_3   0.780329 0.455777 0.862871 -0.823852
C48   C     C_3   0.702214 0.882637 0.690356 -0.483846
C49   C     C_3   0.738438 0.852153 0.567780 -0.752494
C50   C     C_3   0.573043 0.680176 0.133950 -0.817790
C51   C     C_3   0.334508 0.729083 0.601516 -0.876081
C52   C     C_3   0.318944 0.277033 0.417086 -0.936782
C53   C     C_R   0.061207 0.604584 0.451618 -0.004919
C54   C     C_R   0.032498 0.701133 0.387421 -0.163851
C55   C     C_R   0.973206 0.698527 0.386700 -0.162187
C56   C     C_R   0.118279 0.416398 0.585614 0.522022
H1    H     H_    0.680914 0.453304 0.290032 0.168554
H2    H     H_    0.363739 0.176269 0.127294 0.150436
H3    H     H_    0.362929 0.178713 0.880035 0.158294
H4    H     H_    0.423082 0.327471 0.755802 0.202387
H5    H     H_    0.561962 0.645815 0.868262 0.147158
H6    H     H_    0.055698 0.779273 0.338089 0.192179
H7    H     H_    0.952269 0.774997 0.337041 0.190792
H8    H     H_    0.221382 0.692987 0.601717 0.169928
H9    H     H_    0.208897 0.326154 0.424150 0.168463
H10   H     H_    0.785227 0.450196 0.295275 0.146170
H11   H     H_    0.908656 0.220262 0.787786 0.258278
H12   H     H_    0.678756 0.547421 0.711223 0.164842
H13   H     H_    0.914573 0.128207 0.634616 0.270206
H14   H     H_    0.968857 0.126214 0.759556 0.208978
H15   H     H_    0.804119 0.482282 0.955312 0.247513
H16   H     H_    0.734110 0.446522 0.888319 0.245743
H17   H     H_    0.794850 0.363316 0.828231 0.292971
H18   H     H_    0.838410 0.570985 0.740058 0.209737
H19   H     H_    0.776174 0.648166 0.791742 0.203189
H20   H     H_    0.714384 0.786316 0.500390 0.258472
H21   H     H_    0.750763 0.940005 0.511153 0.271225
H22   H     H_    0.777995 0.807305 0.600591 0.259101
H23   H     H_    0.424403 0.106730 0.395242 0.140664
H24   H     H_    0.728348 0.943607 0.758842 0.216646
H25   H     H_    0.690070 0.794364 0.746518 0.197733
H26   H     H_    0.599804 0.733858 0.058610 0.191732
H27   H     H_    0.547506 0.750513 0.185524 0.260856
H28   H     H_    0.603173 0.636458 0.202963 0.256802
H29   H     H_    0.381194 0.725440 0.586152 0.241991
H30   H     H_    0.320167 0.812808 0.545347 0.239651
H31   H     H_    0.326203 0.742491 0.710312 0.250835
H32   H     H_    0.365346 0.274430 0.435396 0.214997
H33   H     H_    0.298301 0.197589 0.475489 0.255805
H34   H     H_    0.601396 0.242139 0.610119 0.166196
H35   H     H_    0.310458 0.261892 0.308836 0.248028
H36   H     H_    0.683950 0.135233 0.690823 0.157807
H37   H     H_    0.604494 0.776377 0.593086 0.139185
H38   H     H_    0.424691 0.878495 0.394943 0.156869
H39   H     H_    0.050032 0.235860 0.696220 0.193072
H40   H     H_    0.423407 0.325837 0.248076 0.201413
N1    N     N_R   0.852066 0.494877 0.504191 -0.357791
N2    N     N_R   0.148075 0.511415 0.518158 -0.342625
N3    N     N_R   0.499460 0.498800 0.142780 -0.122718
N4    N     N_R   0.499440 0.498720 0.857170 -0.137394
O1    O     O_R   0.500000 0.316780 0.614690 -0.637697
O2    O     O_R   0.583850 0.500050 0.614640 -0.630818
O3    O     O_R   0.583840 0.500030 0.385310 -0.618651
O4    O     O_2   0.854301 0.690852 0.391879 -0.576285
O5    O     O_2   0.845171 0.295202 0.605130 -0.580341
O6    O     O_2   0.146487 0.329072 0.655296 -0.564922
O7    O     O_2   0.151404 0.696164 0.384583 -0.564934
O8    O     O_R   0.500000 0.316750 0.385360 -0.629810
O9    O     O_R   0.416160 0.499970 0.614690 -0.625977
O10   O     O_R   0.416150 0.499950 0.385360 -0.623106
O11   O     O_R   0.500000 0.683250 0.614640 -0.614945
O12   O     O_R   0.500000 0.683220 0.385310 -0.613136
Zn1   Zn    Zn3+2 0.500000 0.500020 0.653130 0.932242
Zn2   Zn    Zn3+2 0.500000 0.499980 0.346870 0.939011

loop_
_geom_bond_atom_site_label_1
_geom_bond_atom_site_label_2
_ccdc_geom_bond_type
C4    O9    A    
C34   C56   A    
C9    N2    S    
C22   C29   A    
C27   C29   A    
O1    Zn1   S    
C41   C42   A    
C35   C36   A    
C28   O3    A    
C56   N2    A    
C51   H29   S    
N3    Zn2   S    
O12   Zn2   S    
C50   H28   S    
C7    C8    A    
C3    H8    S    
C49   H22   S    
C12   C23   A    
C16   O12   A    
C26   C27   A    
C37   C38   A    
C18   C24   A    
C31   H2    S    
C21   C22   A    
C7    C52   S    
C30   C31   A    
C39   N1    A    
C10   C17   A    
C2    O7    S    
C48   H25   S    
C18   C19   A    
O8    Zn2   S    
C30   H40   S    
C19   H36   S    
C46   C47   S    
C19   C20   A    
C49   H21   S    
C8    C9    A    
C55   H7    S    
C13   C28   S    
C44   H14   S    
O10   Zn2   S    
O9    Zn1   S    
C38   H5    S    
C45   C53   A    
C8    H9    S    
C13   C14   A    
C1    C25   S    
C52   H33   S    
C51   H30   S    
C46   H19   S    
C25   C26   A    
C50   H27   S    
C10   H10   S    
C44   H11   S    
C18   H34   S    
C39   O4    S    
O3    Zn2   S    
C24   C25   A    
C47   H17   S    
C4    C6    S    
C51   H31   S    
C40   N1    A    
C39   C43   A    
C54   H6    S    
C16   C29   S    
C53   C54   A    
C42   C45   A    
C12   C41   A    
C3    C9    A    
C31   C32   A    
C52   H32   S    
C23   C34   A    
C56   O6    S    
C49   H20   S    
C44   H13   S    
O11   Zn1   S    
C34   C45   A    
C47   H15   S    
C20   C48   S    
C38   N4    A    
C48   C49   S    
C33   H4    S    
C22   C24   A    
C42   C43   A    
C35   N4    A    
C1    O1    A    
C46   H18   S    
C50   H26   S    
C43   C55   A    
C15   C17   A    
C4    O10   A    
C54   C55   A    
C40   C41   A    
N4    Zn1   S    
C3    C5    A    
C2    C53   A    
C6    C7    A    
C26   H23   S    
C32   H3    S    
C30   C36   A    
C32   C33   A    
C48   H24   S    
C27   H38   S    
C12   C44   S    
O2    Zn1   S    
C37   C50   S    
C11   C13   A    
C37   N3    A    
C5    C6    A    
C21   H37   S    
C33   C35   A    
C23   H39   S    
C36   N3    A    
C47   H16   S    
C10   C11   A    
C1    O8    A    
C28   O2    A    
C20   C21   A    
C2    N2    A    
C14   H12   S    
C14   C15   A    
C5    C51   S    
C52   H35   S    
C15   C46   S    
C11   H1    S    
C17   N1    S    
C16   O11   A    
C40   O5    S    
