data_mof_unit_473.cif
_audit_creation_date              2012-12-10T20:21:44-0500
_audit_creation_method            fapswitch 2.2
_symmetry_space_group_name_H-M    P1
_symmetry_Int_Tables_number       1
_space_group_crystal_system       triclinic
_cell_length_a                    19.160442
_cell_length_b                    18.666932
_cell_length_c                    8.880591
_cell_angle_alpha                 90.012499
_cell_angle_beta                  91.385788
_cell_angle_gamma                 90.030041
_cell_volume                      3175.36186706

loop_
_atom_site_label
_atom_site_type_symbol
_atom_type_description
_atom_site_fract_x
_atom_site_fract_y
_atom_site_fract_z
_atom_type_partial_charge
C1    C     C_R   0.365559 0.499594 0.502156 1.006521
C2    C     C_R   0.561471 0.197841 0.524959 -0.178922
C3    C     C_R   0.499830 0.841784 0.499506 0.180259
C4    C     C_R   0.499918 0.158711 0.499649 0.181920
C5    C     C_R   0.448964 0.963197 0.415126 0.308398
C6    C     C_R   0.540107 0.037626 0.607220 0.303738
C7    C     C_R   0.550743 0.963245 0.583649 0.309325
C8    C     C_R   0.459582 0.037621 0.391781 0.303718
C9    C     C_R   0.499863 0.077398 0.499539 -0.248866
C10   C     C_R   0.499850 0.923277 0.499364 -0.246662
C11   C     C_R   0.499254 0.499984 0.218830 1.018221
C12   C     C_R   0.634441 0.499626 0.497712 1.005569
C13   C     C_R   0.500836 0.499995 0.781171 1.016848
C14   C     C_1   0.499654 0.499978 0.065438 -0.016078
C15   C     C_1   0.500482 0.499993 0.934565 -0.017664
C16   C     C_R   0.738860 0.456014 0.367653 0.358283
C17   C     C_R   0.245679 0.517615 0.390851 0.405654
C18   C     C_R   0.261156 0.456358 0.632928 0.355854
C19   C     C_R   0.754293 0.518066 0.608843 0.339822
C20   C     C_R   0.808182 0.434017 0.376783 -0.245020
C21   C     C_R   0.175086 0.499959 0.391889 -0.210144
C22   C     C_R   0.191758 0.434508 0.624446 -0.245014
C23   C     C_R   0.522265 0.727054 0.626118 0.279070
C24   C     C_R   0.824810 0.500177 0.608570 -0.224296
C25   C     C_R   0.851771 0.456047 0.496370 -0.019303
C26   C     C_R   0.148122 0.456249 0.504795 -0.033506
C27   C     C_R   0.710351 0.495552 0.487773 -0.271677
C28   C     C_R   0.289659 0.495475 0.512158 -0.284778
C29   C     C_R   0.963267 0.435328 0.362984 -0.152594
C30   C     C_R   0.036637 0.435917 0.638561 -0.150833
C31   C     C_R   0.035658 0.433534 0.365798 -0.171877
C32   C     C_R   0.964242 0.433968 0.635779 -0.172753
C33   C     C_R   0.072999 0.439074 0.503271 0.160789
C34   C     C_R   0.439970 0.273471 0.462487 0.306923
C35   C     C_R   0.926894 0.438918 0.498216 0.156829
C36   C     C_3   0.589410 0.728028 0.870631 -0.593966
C37   C     C_3   0.311980 0.280673 0.407963 -0.731071
C38   C     C_3   0.415109 0.726533 0.123597 -0.662813
C39   C     C_3   0.687970 0.280550 0.592344 -0.729504
C40   C     C_R   0.477873 0.726741 0.373492 0.290606
C41   C     C_R   0.559994 0.273454 0.537361 0.307039
C42   C     C_R   0.515023 0.802670 0.630582 -0.151890
C43   C     C_R   0.438412 0.197854 0.474547 -0.178832
C44   C     C_R   0.484713 0.802418 0.368636 -0.152955
H1    H     H_    0.828236 0.400214 0.288924 0.182439
H2    H     H_    0.390090 0.168964 0.457929 0.207057
H3    H     H_    0.474944 0.831524 0.265490 0.201908
H4    H     H_    0.609758 0.168931 0.541492 0.206930
H5    H     H_    0.661258 0.328385 0.246602 0.353090
H6    H     H_    0.264873 0.682515 0.203900 0.386654
H7    H     H_    0.338829 0.328978 0.753288 0.352827
H8    H     H_    0.763248 0.669657 0.674556 0.372504
H9    H     H_    0.585513 0.648470 0.710986 0.328558
H10   H     H_    0.610770 0.689211 0.954569 0.276369
H11   H     H_    0.552282 0.762988 0.929424 0.214143
H12   H     H_    0.140901 0.520782 0.303655 0.190730
H13   H     H_    0.633311 0.760070 0.826960 0.284434
H14   H     H_    0.391152 0.339529 0.305273 0.267448
H15   H     H_    0.272645 0.322963 0.382918 0.248665
H16   H     H_    0.302097 0.259171 0.522084 0.236269
H17   H     H_    0.305822 0.237749 0.322155 0.267877
H18   H     H_    0.413331 0.649021 0.288421 0.324824
H19   H     H_    0.394502 0.687217 0.039771 0.272062
H20   H     H_    0.454705 0.759558 0.067381 0.230094
H21   H     H_    0.371257 0.760504 0.160632 0.268940
H22   H     H_    0.608840 0.339597 0.694534 0.267438
H23   H     H_    0.171685 0.401006 0.712794 0.183804
H24   H     H_    0.727372 0.322793 0.617624 0.249858
H25   H     H_    0.697943 0.259024 0.478274 0.235938
H26   H     H_    0.693930 0.237631 0.678163 0.267708
H27   H     H_    0.316454 0.888694 0.155560 0.391006
H28   H     H_    0.661171 0.125879 0.874622 0.387400
H29   H     H_    0.683547 0.889973 0.843594 0.393684
H30   H     H_    0.338464 0.126121 0.125138 0.387366
H31   H     H_    0.858938 0.521255 0.696689 0.187752
H32   H     H_    0.936633 0.438723 0.254452 0.153647
H33   H     H_    0.063288 0.439751 0.747020 0.154008
H34   H     H_    0.062238 0.432393 0.259618 0.152223
H35   H     H_    0.937663 0.433180 0.741973 0.153141
H36   H     H_    0.524565 0.831968 0.733592 0.199960
N1    N     N_R   0.500000 0.689440 0.500000 -0.162891
N2    N     N_R   0.500000 0.310560 0.500000 -0.138139
N3    N     N_2   0.554820 0.689348 0.748652 -0.281707
N4    N     N_2   0.381196 0.311500 0.402476 -0.266838
N5    N     N_2   0.445752 0.688584 0.251061 -0.274339
N6    N     N_2   0.618813 0.311465 0.597457 -0.266721
O1    O     O_R   0.398180 0.560840 0.499960 -0.592784
O2    O     O_2   0.738762 0.415186 0.075790 -0.271195
O3    O     O_3   0.632717 0.371755 0.227159 -0.519019
O4    O     O_2   0.344816 0.540980 0.186361 -0.317154
O5    O     O_2   0.223881 0.562565 0.106073 -0.260128
O6    O     O_3   0.282163 0.653956 0.291037 -0.555200
O7    O     O_2   0.347142 0.504927 0.849860 -0.264352
O8    O     O_2   0.261543 0.415778 0.924939 -0.268826
O9    O     O_3   0.367407 0.372311 0.773222 -0.518993
O10   O     O_2   0.655829 0.541698 0.813704 -0.300082
O11   O     O_2   0.776242 0.567007 0.891944 -0.239099
O12   O     O_R   0.601820 0.439160 0.500040 -0.598835
O13   O     O_3   0.715861 0.654862 0.704140 -0.555869
O14   O     O_2   0.349912 0.861846 0.458128 -0.285157
O15   O     O_2   0.310477 0.981067 0.383501 -0.209880
O16   O     O_3   0.365731 0.900930 0.180141 -0.530564
O17   O     O_2   0.522047 0.138478 0.822010 -0.267741
O18   O     O_2   0.562294 0.020811 0.905248 -0.172340
O19   O     O_3   0.651024 0.103569 0.775276 -0.532522
O20   O     O_2   0.649798 0.861974 0.540633 -0.289511
O21   O     O_2   0.689223 0.981322 0.614794 -0.210903
O22   O     O_3   0.634117 0.901282 0.818571 -0.531184
O23   O     O_R   0.601820 0.560840 0.500040 -0.597558
O24   O     O_2   0.477618 0.138538 0.177199 -0.267870
O25   O     O_2   0.437111 0.020928 0.093771 -0.171697
O26   O     O_3   0.348628 0.103685 0.224319 -0.532557
O27   O     O_R   0.398180 0.439160 0.499960 -0.599627
O28   O     O_R   0.500000 0.560800 0.285330 -0.632826
O29   O     O_R   0.500000 0.439200 0.714670 -0.591577
O30   O     O_R   0.500000 0.560800 0.714670 -0.635548
O31   O     O_R   0.500000 0.439200 0.285330 -0.592111
O32   O     O_2   0.653078 0.504303 0.150159 -0.264532
S1    S     S_3+6 0.690887 0.437527 0.199009 0.051765
S2    S     S_3+6 0.275329 0.567931 0.236292 0.037820
S3    S     S_3+6 0.309285 0.438064 0.801419 0.053706
S4    S     S_3+6 0.724664 0.569552 0.761718 0.041701
S5    S     S_3+6 0.366300 0.925716 0.362129 0.078773
S6    S     S_3+6 0.567662 0.075981 0.782974 0.103243
S7    S     S_3+6 0.633441 0.925902 0.636495 0.077411
S8    S     S_3+6 0.431937 0.076051 0.216228 0.103449
Zn1   Zn    Zn3+2 0.500000 0.581210 0.500000 1.029356
Zn2   Zn    Zn3+2 0.500000 0.418790 0.500000 1.047528

loop_
_geom_bond_atom_site_label_1
_geom_bond_atom_site_label_2
_ccdc_geom_bond_type
C1    O1    A    
C7    C10   A    
C21   C26   A    
C3    C42   A    
C42   H36   S    
C39   H24   S    
C6    S6    S    
C6    C9    A    
O1    Zn1   S    
C19   S4    S    
C29   H32   S    
C41   N6    S    
O20   S7    D    
O15   S5    D    
C23   C42   A    
C23   N3    S    
O7    S3    D    
H30   O26   S    
C11   C14   S    
C20   C25   A    
C2    C41   A    
C34   N4    S    
C11   O28   A    
O32   S1    D    
C17   S2    S    
C30   H33   S    
O23   Zn1   S    
O3    S1    S    
C8    C9    A    
O30   Zn1   S    
C1    C28   S    
C31   C33   A    
C37   N4    S    
O22   S7    S    
C19   C27   A    
C12   O12   A    
C20   H1    S    
C44   H3    S    
O9    S3    S    
C16   C27   A    
O12   Zn2   S    
N1    Zn1   S    
C1    O27   A    
O5    S2    D    
O17   S6    D    
C12   O23   A    
C43   H2    S    
C38   H20   S    
H18   N5    S    
C3    C44   A    
C38   N5    S    
C13   O30   A    
C32   C35   A    
C18   C28   A    
C24   C25   A    
O21   S7    D    
C36   H13   S    
C16   S1    S    
O27   Zn2   S    
H29   O22   S    
C12   C27   S    
C2    H4    S    
C17   C21   A    
O29   Zn2   S    
O19   S6    S    
O4    S2    D    
C40   N5    S    
C2    C4    A    
O11   S4    D    
H14   N4    S    
C5    C8    A    
C26   C33   S    
C38   H21   S    
C16   C20   A    
O25   S8    D    
C39   H25   S    
C13   O29   A    
C7    S7    S    
O2    S1    D    
N2    Zn2   S    
C37   H15   S    
O24   S8    D    
O13   S4    S    
C8    S8    S    
H27   O16   S    
C25   C35   S    
C13   C15   S    
O16   S5    S    
C11   O31   A    
C31   H34   S    
C38   H19   S    
H6    O6    S    
C5    S5    S    
C23   N1    A    
C30   C33   A    
C18   C22   A    
C17   C28   A    
O26   S8    S    
C40   N1    A    
C34   C43   A    
H5    O3    S    
H22   N6    S    
C21   H12   S    
C37   H17   S    
C24   H31   S    
C6    C7    A    
O18   S6    D    
C4    C43   A    
C34   N2    A    
C29   C35   A    
H8    O13   S    
O10   S4    D    
H9    N3    S    
O14   S5    D    
C19   C24   A    
O6    S2    S    
C5    C10   A    
C29   C31   A    
C3    C10   S    
C32   H35   S    
C30   C32   A    
O28   Zn1   S    
C41   N2    A    
C39   H26   S    
O31   Zn2   S    
C22   H23   S    
C37   H16   S    
C36   H10   S    
C18   S3    S    
O8    S3    D    
C40   C44   A    
H28   O19   S    
C22   C26   A    
C36   H11   S    
C14   C15   T    
C36   N3    S    
C39   N6    S    
C4    C9    S    
H7    O9    S    
