data_mof_unit_158.cif
_audit_creation_date              2013-03-05T15:56:35-0500
_audit_creation_method            fapswitch 2.2
_symmetry_space_group_name_H-M    P1
_symmetry_Int_Tables_number       1
_space_group_crystal_system       triclinic
_cell_length_a                    6.931076
_cell_length_b                    14.551064
_cell_length_c                    15.981949
_cell_angle_alpha                 90.429746
_cell_angle_beta                  89.903565
_cell_angle_gamma                 89.779185
_cell_volume                      1611.7922911

loop_
_atom_site_label
_atom_site_type_symbol
_atom_site_description
_atom_site_fract_x
_atom_site_fract_y
_atom_site_fract_z
_atom_type_partial_charge
O1    O     O_R   0.361600 0.167310 0.164620 -0.594617
O2    O     O_R   0.638400 0.832690 0.835380 -0.594616
O3    O     O_R   0.691080 0.157570 0.338750 -0.546326
O4    O     O_R   0.308920 0.842430 0.661250 -0.546327
O5    O     O_R   0.861410 0.336420 0.339360 -0.580196
O6    O     O_R   0.138590 0.663580 0.660640 -0.580197
C1    C     C_R   0.522402 0.134949 0.367265 1.087515
C2    C     C_R   0.477598 0.865051 0.632735 1.087514
O7    O     O_R   0.691320 0.156280 0.165240 -0.590503
O8    O     O_R   0.308680 0.843720 0.834760 -0.590493
O9    O     O_R   0.861640 0.335130 0.164600 -0.567443
O10   O     O_R   0.138360 0.664870 0.835400 -0.567441
C3    C     C_R   0.522705 0.135951 0.134432 1.051154
C4    C     C_R   0.477295 0.864049 0.865567 1.051146
O11   O     O_R   0.361370 0.168600 0.339370 -0.618268
O12   O     O_R   0.638630 0.831400 0.660630 -0.618268
O13   O     O_3   0.527990 0.310540 0.251980 -0.247725
O14   O     O_3   0.472010 0.689460 0.748020 -0.247727
V1    V     V_3+5 0.802830 0.240980 0.251990 1.336211
V2    V     V_3+5 0.197170 0.759020 0.748010 1.336220
O15   O     O_R   0.191360 0.346160 0.165220 -0.564814
O16   O     O_R   0.808640 0.653840 0.834780 -0.564819
C5    C     C_R   0.022099 0.369128 0.136919 1.185528
C6    C     C_R   0.977901 0.630872 0.863081 1.185533
O17   O     O_R   0.191130 0.347440 0.338740 -0.567527
O18   O     O_R   0.808870 0.652560 0.661260 -0.567527
C7    C     C_R   0.021694 0.368217 0.368336 1.128620
C8    C     C_R   0.978306 0.631783 0.631664 1.128618
V3    V     V_3+5 0.302840 0.262750 0.251990 1.339848
V4    V     V_3+5 0.697160 0.737250 0.748010 1.339850
O19   O     O_3   0.027820 0.193180 0.251990 -0.289972
O20   O     O_3   0.972180 0.806820 0.748010 -0.289967
C9    C     C_3   0.893358 0.428741 0.520546 0.242570
C10   C     C_3   0.106641 0.571259 0.479454 0.242571
C11   C     C_3   0.067284 0.462935 0.572249 -0.447434
C12   C     C_3   0.932716 0.537065 0.427751 -0.447435
H1    H     H_    0.122126 0.431762 0.630808 0.240080
H2    H     H_    0.877874 0.568238 0.369192 0.240080
C13   C     C_3   0.991713 0.562914 0.561669 -0.552065
C14   C     C_3   0.008287 0.437086 0.438331 -0.552066
C15   C     C_3   0.818223 0.527422 0.510944 0.886060
C16   C     C_3   0.181776 0.472578 0.489056 0.886060
C17   C     C_R   0.854717 0.489699 0.938812 0.172063
C18   C     C_R   0.145283 0.510301 0.061188 0.172064
C19   C     C_R   0.865549 0.429012 0.006871 0.763438
C20   C     C_R   0.134451 0.570988 0.993129 0.763437
C21   C     C_R   0.010481 0.437852 0.068201 -0.616303
C22   C     C_R   0.989519 0.562148 0.931799 -0.616305
C23   C     C_R   0.675390 0.013494 0.458319 0.851728
C24   C     C_R   0.324610 0.986506 0.541681 0.851729
C25   C     C_R   0.662365 0.948798 0.522305 -0.274193
C26   C     C_R   0.337635 0.051201 0.477695 -0.274193
H3    H     H_    0.789929 0.909360 0.537976 0.234064
H4    H     H_    0.210071 0.090640 0.462024 0.234064
C27   C     C_R   0.487517 0.934267 0.564877 -0.448268
C28   C     C_R   0.512483 0.065733 0.435123 -0.448269
C29   C     C_R   0.651572 0.998745 0.057376 -0.186249
C30   C     C_R   0.348430 0.001257 0.942622 -0.186217
H5    H     H_    0.766430 0.995506 0.103190 0.185111
H6    H     H_    0.233575 0.004496 0.896806 0.185123
C31   C     C_R   0.640186 0.929589 0.995639 0.400670
C32   C     C_R   0.359817 0.070415 0.004358 0.400654
C33   C     C_R   0.488010 0.931326 0.936342 -0.325328
C34   C     C_R   0.511991 0.068676 0.063657 -0.325321
N1    N     N_R   0.772282 0.352267 0.546215 0.287305
O21   O     O_R   0.675262 0.357945 0.615778 -0.270817
O22   O     O_R   0.768786 0.276372 0.502847 -0.383759
N2    N     N_R   0.227718 0.647733 0.453785 0.287305
O23   O     O_R   0.324738 0.642055 0.384222 -0.270818
O24   O     O_R   0.231214 0.723628 0.497153 -0.383760
F1    F     F_    0.630871 0.556986 0.523598 -0.601649
F2    F     F_    0.369129 0.443014 0.476402 -0.601649
N3    N     N_R   0.711873 0.473978 0.875280 0.287013
O25   O     O_R   0.762447 0.469254 0.796897 -0.357051
O26   O     O_R   0.535475 0.453897 0.896079 -0.280919
N4    N     N_R   0.288126 0.526023 0.124720 0.287013
O27   O     O_R   0.237551 0.530746 0.203103 -0.357054
O28   O     O_R   0.464523 0.546105 0.103921 -0.280919
F3    F     F_    0.739968 0.357602 0.010377 -0.609819
F4    F     F_    0.260031 0.642398 0.989623 -0.609821
F5    F     F_    0.847241 0.023474 0.418640 -0.672754
F6    F     F_    0.152759 0.976526 0.581360 -0.672753
N5    N     N_R   0.778135 0.855673 0.997285 0.235078
O29   O     O_R   0.719501 0.770872 0.993971 -0.348720
O30   O     O_R   0.957318 0.872142 0.016201 -0.371366
N6    N     N_R   0.221876 0.144335 0.002708 0.235078
O31   O     O_R   0.280517 0.229134 0.006038 -0.348719
O32   O     O_R   0.042709 0.127876 0.983760 -0.371350

loop_
_geom_bond_atom_site_label_1
_geom_bond_atom_site_label_2
_geom_bond_distance
_ccdc_geom_bond_type
C17   N3    1.437061 S    
V4    O20   2.161757 S    
C30   C32   1.406546 A    
O13   V3    1.710905 S    
N3    O25   1.301511 A    
C10   C16   1.534403 S    
O4    C2    1.298573 A    
V1    O19   1.705056 S    
C9    N1    1.457299 S    
C13   C15   1.540011 S    
C32   N6    1.436775 S    
O9    V1    2.006179 S    
C11   H1    1.110119 S    
N4    O28   1.301355 A    
O3    C1    1.298573 A    
N6    O32   1.301404 A    
C29   H5    1.083647 S    
O12   V4    2.004486 S    
C31   C33   1.419423 A    
C23   F5    1.357258 S    
C18   N4    1.437063 S    
C11   C16   1.554788 S    
O7    C3    1.303137 A    
C32   C34   1.419429 A    
C9    C11   1.544465 S    
O5    C7    1.290427 A    
O7    V1    2.005957 S    
O6    C8    1.290427 A    
C18   C20   1.408096 A    
N2    O23   1.300262 A    
N1    O22   1.299753 A    
C24   C26   1.398183 A    
O3    V1    2.006122 S    
O14   V4    1.710907 S    
C17   C22   1.416299 A    
C25   C27   1.406285 A    
C18   C21   1.416298 A    
C15   F1    1.380474 S    
C14   C16   1.540011 S    
C2    O12   1.298074 A    
N3    O26   1.301356 A    
C12   C15   1.554788 S    
C1    C28   1.487254 S    
C2    C27   1.487254 S    
C16   F2    1.380474 S    
C26   H4    1.082950 S    
O11   V3    2.004488 S    
C19   C21   1.410247 A    
O17   V3    2.000933 S    
C20   C22   1.410246 A    
C9    C14   1.541229 S    
C5    C21   1.492914 S    
C10   C13   1.541229 S    
C6    C22   1.492914 S    
C12   C14   1.554830 S    
N4    O27   1.301510 A    
C31   N5    1.436768 S    
C10   N2    1.457299 S    
N6    O31   1.301355 A    
C1    O11   1.298074 A    
C8    C13   1.498796 S    
C23   C25   1.398183 A    
O15   V3    2.003699 S    
C25   H3    1.082951 S    
C11   C13   1.554830 S    
N5    O29   1.301359 A    
C7    C14   1.498796 S    
O10   V2    2.006182 S    
O1    V3    2.002226 S    
C19   F3    1.359460 S    
C17   C19   1.408094 A    
N5    O30   1.301417 A    
O18   V4    2.000932 S    
O15   C5    1.301391 A    
O8    C4    1.303137 A    
O16   C6    1.301390 A    
O1    C3    1.295683 A    
C24   F6    1.357259 S    
C29   C34   1.404289 A    
V2    O20   1.705056 S    
C30   C33   1.404288 A    
O16   V4    2.003702 S    
C29   C31   1.406541 A    
O5    V1    2.005101 S    
O17   C7    1.299050 A    
C23   C28   1.410381 A    
O6    V2    2.005101 S    
O10   C6    1.297383 A    
O18   C8    1.299050 A    
C24   C27   1.410381 A    
O2    V4    2.002229 S    
C9    C15   1.534403 S    
C12   H2    1.110119 S    
V3    O19   2.161760 S    
C20   F4    1.359461 S    
C3    C34   1.492483 S    
O8    V2    2.005956 S    
C4    C33   1.492483 S    
O9    C5    1.297384 A    
O13   V1    2.153698 S    
C10   C12   1.544465 S    
O14   V2    2.153700 S    
O2    C4    1.295681 A    
O4    V2    2.006120 S    
N2    O24   1.299753 A    
N1    O21   1.300262 A    
C30   H6    1.083647 S    
C26   C28   1.406285 A    
