data_mof_unit_947.cif
_audit_creation_date              2012-10-26T20:03:00-0400
_audit_creation_method            fapswitch 2.2
_symmetry_space_group_name_H-M    P1
_symmetry_Int_Tables_number       1
_space_group_crystal_system       triclinic
_cell_length_a                    10.716591
_cell_length_b                    12.313164
_cell_length_c                    13.43416
_cell_angle_alpha                 117.014904
_cell_angle_beta                  77.923967
_cell_angle_gamma                 101.463393
_cell_volume                      1533.35231572

loop_
_atom_site_label
_atom_site_type_symbol
_atom_type_description
_atom_site_fract_x
_atom_site_fract_y
_atom_site_fract_z
_atom_type_partial_charge
C1    C     C_R   0.510434 0.854391 0.287850 0.529222
C2    C     C_R   0.491936 0.568026 0.010554 0.017045
C3    C     C_R   0.459027 0.648299 0.125634 0.018288
C4    C     C_R   0.740101 0.997961 0.497354 0.539689
C5    C     C_R   0.453581 0.439975 0.974530 0.029640
C6    C     C_R   0.372279 0.396282 0.050120 0.052949
C7    C     C_R   0.326951 0.478915 0.157968 -0.141793
C8    C     C_R   0.368106 0.603209 0.194783 -0.124151
C9    C     C_R   0.495994 0.353516 0.866361 -0.140054
C10   C     C_R   0.375630 0.186620 0.907435 -0.138568
C11   C     C_R   0.516114 0.772010 0.167217 -0.019670
C12   C     C_3   0.122499 0.997446 0.496361 0.048179
C13   C     C_R   0.704584 0.347188 0.331514 -0.148223
C14   C     C_R   0.325276 0.758838 0.642782 0.030292
C15   C     C_R   0.287738 0.661803 0.673059 -0.172097
C16   C     C_R   0.481163 0.145475 0.712403 0.544262
C17   C     C_R   0.353708 0.558695 0.619483 -0.146838
C18   C     C_R   0.458475 0.551298 0.534160 -0.003994
C19   C     C_R   0.493221 0.653078 0.505935 0.176051
C20   C     C_R   0.529695 0.447177 0.475593 -0.011625
C21   C     C_R   0.633292 0.447257 0.390413 0.039756
C22   C     C_R   0.665292 0.547079 0.364246 -0.177001
C23   C     C_3   0.074952 0.117875 0.591207 -0.236375
C24   C     C_R   0.596891 0.647448 0.420641 -0.102737
C25   C     C_R   0.503122 0.342025 0.497237 0.038098
C26   C     C_R   0.673469 0.246896 0.356926 0.041129
C27   C     C_R   0.260416 0.998856 0.498169 0.542300
C28   C     C_3   0.956020 0.985038 0.380272 -0.237737
C29   C     C_3   0.100404 0.985459 0.380932 -0.232142
C30   C     C_3   0.931948 0.118326 0.589221 -0.228540
C31   C     C_3   0.899555 0.885538 0.512864 -0.232932
C32   C     C_3   0.878587 0.996556 0.495274 0.048354
C33   C     C_R   0.664199 0.804040 0.902366 0.035469
C34   C     C_3   0.041706 0.887541 0.516071 -0.227847
C35   C     C_R   0.777871 0.885895 0.925426 -0.101969
C36   C     C_R   0.814709 0.967977 0.876454 -0.122921
C37   C     C_R   0.738347 0.968786 0.804625 -0.110382
C38   C     C_R   0.630257 0.882537 0.775589 -0.111897
C39   C     C_R   0.593094 0.799869 0.823892 -0.102327
C40   C     C_R   0.335157 0.270189 0.016361 -0.134272
C41   C     C_R   0.454136 0.228529 0.831578 -0.003184
C42   C     C_R   0.587684 0.818001 0.092335 -0.137861
C43   C     C_R   0.605718 0.744296 0.977222 -0.015706
C44   C     C_R   0.559665 0.619442 0.936013 -0.131555
Cu1   Cu    Cu3+1 0.529690 0.098270 0.475420 0.913824
Cu2   Cu    Cu3+1 0.470310 0.901730 0.524580 0.880799
H1    H     H_    0.943704 0.062650 0.363540 0.121634
H2    H     H_    0.574757 0.566156 0.845807 0.101792
H3    H     H_    0.919888 0.898634 0.310750 0.103080
H4    H     H_    0.324330 0.662919 0.277057 0.149974
H5    H     H_    0.727961 0.169201 0.311920 0.114053
H6    H     H_    0.744386 0.547800 0.299189 0.103379
H7    H     H_    0.783834 0.346608 0.266265 0.087925
H8    H     H_    0.426399 0.333929 0.560459 0.116358
H9    H     H_    0.273792 0.838640 0.684900 0.125156
H10   H     H_    0.320681 0.486452 0.646456 0.095420
H11   H     H_    0.207466 0.666633 0.738443 0.101973
H12   H     H_    0.053343 0.894715 0.599418 0.127325
H13   H     H_    0.629121 0.718641 0.393994 0.184728
H14   H     H_    0.134150 0.899109 0.311805 0.107370
H15   H     H_    0.156814 0.063218 0.364385 0.131260
H16   H     H_    0.921426 0.197558 0.574081 0.131419
H17   H     H_    0.131975 0.198691 0.580203 0.122139
H18   H     H_    0.843245 0.886407 0.592169 0.142733
H19   H     H_    0.865932 0.798111 0.442967 0.115085
H20   H     H_    0.075140 0.799382 0.450011 0.124769
H21   H     H_    0.833829 0.890746 0.986105 0.093455
H22   H     H_    0.899628 0.033849 0.897415 0.098841
H23   H     H_    0.876872 0.132772 0.672874 0.099510
H24   H     H_    0.762297 0.036510 0.771758 0.106134
H25   H     H_    0.572807 0.883042 0.719005 0.173747
H26   H     H_    0.504340 0.739023 0.806404 0.117344
H27   H     H_    0.088192 0.126878 0.674763 0.107375
H28   H     H_    0.341982 0.089948 0.881505 0.120836
H29   H     H_    0.259861 0.447298 0.214570 0.104217
H30   H     H_    0.272886 0.236459 0.073627 0.101546
H31   H     H_    0.562222 0.380877 0.807218 0.118745
H32   H     H_    0.627438 0.913856 0.123369 0.133055
N1    N     N_R   0.574690 0.246280 0.438200 -0.234180
N2    N     N_R   0.426100 0.754320 0.561190 -0.251076
O1    O     O_R   0.537340 0.972510 0.318130 -0.505655
O2    O     O_R   0.487200 0.806530 0.359650 -0.526753
O3    O     O_R   0.707380 0.082980 0.479220 -0.504842
O4    O     O_R   0.657240 0.917000 0.520740 -0.536460
O5    O     O_R   0.512800 0.193470 0.640350 -0.507627
O6    O     O_R   0.462660 0.027490 0.681870 -0.522177
O7    O     O_R   0.342760 0.083000 0.479260 -0.508230
O8    O     O_R   0.292620 0.917020 0.520780 -0.516322

loop_
_geom_bond_atom_site_label_1
_geom_bond_atom_site_label_2
_ccdc_geom_bond_type
C30   C32   S    
C28   H1    S    
C12   C29   S    
C35   C36   A    
C1    C11   S    
C34   H20   S    
C7    C8    A    
Cu1   Cu2   S    
C12   C23   S    
C33   C39   A    
C27   O8    A    
C28   C29   S    
Cu1   O7    S    
C5    C6    A    
C20   C25   A    
C1    O1    A    
C11   C42   A    
C10   C40   A    
C18   C19   A    
Cu2   O2    S    
C2    C44   A    
C39   H26   S    
C14   N2    A    
Cu2   O8    S    
C23   H17   S    
C14   H9    S    
C21   C22   A    
C10   C41   A    
C16   O6    A    
C15   H11   S    
Cu1   O3    S    
C23   H27   S    
C13   H7    S    
C29   H15   S    
C12   C27   S    
C33   C43   S    
C23   C30   S    
C28   C32   S    
C25   H8    S    
C3    C8    A    
C31   H19   S    
C7    H29   S    
C1    O2    A    
C40   H30   S    
Cu1   O5    S    
C43   C44   A    
C5    C9    A    
C37   C38   A    
C28   H3    S    
C31   C32   S    
C4    O4    A    
C29   H14   S    
C35   H21   S    
C17   C18   A    
C31   C34   S    
C13   C21   A    
Cu1   N1    S    
C9    H31   S    
C27   O7    A    
C17   H10   S    
C4    C32   S    
Cu2   O4    S    
C42   H32   S    
C30   H16   S    
C16   O5    A    
C22   C24   A    
C13   C26   A    
C2    C5    A    
C42   C43   A    
C12   C34   S    
C8    H4    S    
C30   H23   S    
C22   H6    S    
C15   C17   A    
C38   H25   S    
C36   C37   A    
C25   N1    A    
C31   H18   S    
Cu1   O1    S    
C18   C20   A    
C36   H22   S    
C6    C7    A    
C9    C41   A    
C26   N1    A    
C19   C24   A    
C26   H5    S    
Cu2   N2    S    
C10   H28   S    
C38   C39   A    
C4    O3    A    
C24   H13   S    
C33   C35   A    
C2    C3    A    
C6    C40   A    
C19   N2    A    
C3    C11   A    
C20   C21   A    
C34   H12   S    
C14   C15   A    
C37   H24   S    
C16   C41   S    
C44   H2    S    
Cu2   O6    S    
