data_mof_unit_2428.cif
_audit_creation_date              2012-12-10T18:20:34-0500
_audit_creation_method            fapswitch 2.2
_symmetry_space_group_name_H-M    P1
_symmetry_Int_Tables_number       1
_space_group_crystal_system       triclinic
_cell_length_a                    14.114839
_cell_length_b                    13.583204
_cell_length_c                    14.891816
_cell_angle_alpha                 87.950571
_cell_angle_beta                  91.737179
_cell_angle_gamma                 80.622751
_cell_volume                      2813.2825408

loop_
_atom_site_label
_atom_site_type_symbol
_atom_type_description
_atom_site_fract_x
_atom_site_fract_y
_atom_site_fract_z
_atom_type_partial_charge
C1    C     C_R   0.498407 0.502341 0.327231 0.954399
C2    C     C_R   0.501635 0.497568 0.672783 0.951782
C3    C     C_R   0.502494 0.497729 0.953230 -0.020888
C4    C     C_R   0.499302 0.502185 0.046859 -0.020948
C5    C     C_R   0.513706 0.403362 0.911440 -0.021614
C6    C     C_R   0.486355 0.596637 0.088562 -0.021411
C7    C     C_R   0.471922 0.681164 0.940103 0.192693
C8    C     C_R   0.530939 0.318760 0.059911 0.190999
C9    C     C_R   0.467448 0.686115 0.033735 -0.076516
C10   C     C_R   0.532495 0.313819 0.966159 -0.077692
C11   C     C_R   0.809581 0.433851 0.557318 0.333130
C12   C     C_R   0.189448 0.569686 0.446919 0.334614
C13   C     C_R   0.785632 0.567416 0.447640 -0.081058
C14   C     C_R   0.214567 0.434418 0.554623 -0.080972
C15   C     C_R   0.885104 0.571735 0.448932 -0.036946
C16   C     C_R   0.114614 0.433683 0.557635 -0.038212
C17   C     C_R   0.949094 0.502794 0.504883 0.029892
C18   C     C_R   0.050077 0.504311 0.503975 0.029032
C19   C     C_R   0.911752 0.433605 0.562437 -0.090792
C20   C     C_R   0.086825 0.577124 0.450423 -0.092338
C21   C     C_R   0.920377 0.647016 0.398639 -0.045519
C22   C     C_R   0.078666 0.365948 0.615906 -0.049204
C23   C     C_R   0.518871 0.313706 0.501875 0.933775
C24   C     C_R   0.481196 0.686327 0.498187 0.932369
C25   C     C_R   0.019617 0.653615 0.403319 -0.040993
C26   C     C_R   0.978291 0.368349 0.621795 -0.049505
C27   C     C_1   0.465562 0.791295 0.490333 -0.107226
C28   C     C_1   0.535139 0.208931 0.512059 -0.097563
C29   C     C_2   0.464985 0.983493 0.481335 -0.047652
C30   C     C_2   0.537965 0.016500 0.526445 -0.045039
C31   C     C_1   0.541675 0.120662 0.520650 -0.011012
C32   C     C_1   0.460345 0.879625 0.484395 -0.011287
C33   C     C_R   0.505448 0.403905 0.816451 0.204532
C34   C     C_R   0.492848 0.596364 0.183613 0.206033
C35   C     C_R   0.505052 0.493835 0.768152 -0.102600
C36   C     C_R   0.495202 0.506063 0.231884 -0.100148
C37   C     C_R   0.501826 0.583523 0.808904 -0.268941
C38   C     C_R   0.501207 0.416077 0.191214 -0.264918
C39   C     C_R   0.493085 0.588024 0.900877 0.083845
C40   C     C_R   0.509805 0.411811 0.099245 0.083489
H1    H     H_    0.501359 0.650051 0.766523 0.179638
H2    H     H_    0.503036 0.349293 0.233588 0.180793
H3    H     H_    0.734733 0.618643 0.405784 0.188488
H4    H     H_    0.265770 0.382727 0.595802 0.189637
N1    N     N_R   0.750030 0.500040 0.500070 -0.125488
N2    N     N_R   0.249970 0.499960 0.499930 -0.126522
O1    O     O_R   0.580280 0.500020 0.367860 -0.607602
O2    O     O_R   0.419720 0.499980 0.632140 -0.607704
O3    O     O_R   0.419730 0.500030 0.367840 -0.576418
O4    O     O_R   0.580270 0.499970 0.632160 -0.584377
O5    O     O_R   0.591830 0.359650 0.500030 -0.572678
O6    O     O_R   0.408170 0.640350 0.499970 -0.578378
O7    O     O_R   0.431280 0.359660 0.500010 -0.612026
O8    O     O_R   0.568720 0.640340 0.499990 -0.614037
Zn1   Zn    Zn3+2 0.607200 0.499990 0.500020 1.011124
Zn2   Zn    Zn3+2 0.392800 0.500010 0.499980 1.012750
C41   C     C_R   0.613275 0.951014 0.583629 0.159501
C42   C     C_R   0.710687 0.958605 0.574093 -0.135056
C43   C     C_R   0.782066 0.897064 0.626559 -0.157753
C44   C     C_R   0.757018 0.827509 0.689090 -0.125373
C45   C     C_R   0.660428 0.820673 0.700512 -0.143493
C46   C     C_R   0.588736 0.883287 0.649347 -0.130427
H5    H     H_    0.731535 0.011373 0.525298 0.129346
H6    H     H_    0.856906 0.902872 0.618254 0.124731
H7    H     H_    0.812397 0.779509 0.729238 0.128823
H8    H     H_    0.641004 0.767827 0.749979 0.158216
H9    H     H_    0.514218 0.878968 0.661277 0.154417
C47   C     C_R   0.391640 0.050354 0.423831 0.167436
C48   C     C_R   0.294030 0.059870 0.443520 -0.132072
C49   C     C_R   0.225382 0.126315 0.392264 -0.161666
C50   C     C_R   0.253527 0.182850 0.320638 -0.112750
C51   C     C_R   0.350336 0.172609 0.299656 -0.148154
C52   C     C_R   0.419133 0.105878 0.350326 -0.134546
H10   H     H_    0.271431 0.017287 0.499482 0.115164
H11   H     H_    0.150331 0.134484 0.408356 0.119089
H12   H     H_    0.200297 0.234418 0.281275 0.131766
H13   H     H_    0.371990 0.216076 0.243873 0.163074
H14   H     H_    0.493892 0.098282 0.333020 0.155256
Br1   Br    Br    0.481396 0.291025 0.747514 -0.543592
Br2   Br    Br    0.511914 0.710642 0.252902 -0.545756
Br3   Br    Br    0.436377 0.802317 0.864843 -0.670151
Br4   Br    Br    0.569034 0.197516 0.134762 -0.669272
C53   C     C_R   0.431300 0.784604 0.070158 0.218944
C54   C     C_R   0.489677 0.859102 0.071946 -0.083346
C55   C     C_R   0.454289 0.952713 0.104351 -0.144307
C56   C     C_R   0.360404 0.973073 0.133927 -0.094212
C57   C     C_R   0.301937 0.899450 0.132090 -0.101300
C58   C     C_R   0.337027 0.805379 0.100233 -0.065791
H15   H     H_    0.562345 0.844378 0.048543 0.131759
H16   H     H_    0.499534 0.009527 0.105945 0.183696
H17   H     H_    0.332707 0.046013 0.157759 0.142358
H18   H     H_    0.229319 0.915566 0.154907 0.129113
H19   H     H_    0.290980 0.748946 0.098681 0.135217
C59   C     C_R   0.562744 0.214453 0.929204 0.223223
C60   C     C_R   0.654386 0.189361 0.894059 -0.070220
C61   C     C_R   0.683336 0.094160 0.861587 -0.107269
C62   C     C_R   0.621532 0.023656 0.864914 -0.084942
C63   C     C_R   0.530351 0.048440 0.899691 -0.139914
C64   C     C_R   0.500945 0.143254 0.932062 -0.090523
H20   H     H_    0.702780 0.243500 0.891799 0.139173
H21   H     H_    0.753666 0.074688 0.834135 0.135209
H22   H     H_    0.644446 0.949721 0.841033 0.152514
H23   H     H_    0.482377 0.994292 0.902127 0.186188
H24   H     H_    0.430282 0.161365 0.959454 0.128010
Br5   Br    Br    0.749315 0.339470 0.625253 -0.486104
Br6   Br    Br    0.248763 0.647014 0.360682 -0.479665
C65   C     C_R   0.851749 0.723731 0.345351 0.092883
C66   C     C_R   0.820069 0.703524 0.258680 -0.173184
C67   C     C_R   0.752891 0.774066 0.209934 -0.099701
C68   C     C_R   0.716727 0.864794 0.247548 -0.052416
C69   C     C_R   0.747902 0.885245 0.333868 -0.112889
C70   C     C_R   0.815267 0.814988 0.382730 -0.138467
H25   H     H_    0.847004 0.633064 0.229345 0.136153
H26   H     H_    0.728350 0.758132 0.143260 0.134735
H27   H     H_    0.664371 0.919098 0.209921 0.149852
H28   H     H_    0.719622 0.955423 0.362908 0.132923
H29   H     H_    0.838888 0.831197 0.449583 0.133636
C71   C     C_R   0.146700 0.293358 0.673844 0.101158
C72   C     C_R   0.185663 0.200407 0.641076 -0.175140
C73   C     C_R   0.249870 0.132205 0.695045 -0.103404
C74   C     C_R   0.275353 0.156449 0.781942 -0.046341
C75   C     C_R   0.237257 0.249229 0.814774 -0.104645
C76   C     C_R   0.173173 0.317736 0.760874 -0.132178
H30   H     H_    0.165741 0.180907 0.574116 0.127846
H31   H     H_    0.279715 0.060502 0.669648 0.135594
H32   H     H_    0.324701 0.103383 0.823719 0.140422
H33   H     H_    0.257561 0.268092 0.881889 0.129159
H34   H     H_    0.144062 0.389474 0.786739 0.127984
C77   C     C_R   0.046820 0.749239 0.370452 0.165055
C78   C     C_R   0.070369 0.817640 0.432571 -0.138107
C79   C     C_R   0.090656 0.910353 0.402537 -0.110061
C80   C     C_R   0.086890 0.935665 0.310520 -0.094124
C81   C     C_R   0.062662 0.868320 0.248368 -0.136874
C82   C     C_R   0.042747 0.775339 0.278007 -0.076387
H35   H     H_    0.072201 0.799326 0.504058 0.122257
H36   H     H_    0.108464 0.962790 0.450743 0.114251
H37   H     H_    0.102256 0.007601 0.287306 0.123827
H38   H     H_    0.058989 0.888269 0.177198 0.119210
H39   H     H_    0.023953 0.723781 0.229281 0.124177
C83   C     C_R   0.948190 0.308380 0.697685 0.173311
C84   C     C_R   0.921980 0.354291 0.778325 -0.119447
C85   C     C_R   0.902064 0.296826 0.853018 -0.125890
C86   C     C_R   0.909234 0.193336 0.847984 -0.127548
C87   C     C_R   0.935411 0.147105 0.767996 -0.119392
C88   C     C_R   0.955337 0.204209 0.693072 -0.080979
H40   H     H_    0.918092 0.434184 0.783400 0.121823
H41   H     H_    0.881842 0.332392 0.915055 0.130305
H42   H     H_    0.894494 0.148960 0.906145 0.124067
H43   H     H_    0.940901 0.066954 0.764256 0.120440
H44   H     H_    0.976972 0.167597 0.631799 0.114748

loop_
_geom_bond_atom_site_label_1
_geom_bond_atom_site_label_2
_ccdc_geom_bond_type
C2    C35   S    
C24   O6    A    
C13   N1    A    
C57   C58   A    
C65   C70   A    
C60   C61   A    
C24   C27   S    
C25   C77   S    
C6    C9    A    
C62   C63   A    
C76   H34   S    
C41   C46   A    
C14   N2    A    
C72   H30   S    
C11   C19   A    
C43   H6    S    
C29   C30   D    
C46   H9    S    
C8    Br4   S    
O1    Zn1   S    
C35   C37   A    
C69   C70   A    
C38   H2    S    
C29   C32   S    
C26   C83   S    
C56   H17   S    
C70   H29   S    
C20   C25   A    
C10   C59   S    
C24   O8    A    
C63   H23   S    
C30   C41   S    
C66   C67   A    
C18   C20   A    
O2    Zn2   S    
C75   H33   S    
C19   C26   A    
C71   C72   A    
C2    O4    A    
C34   Br2   S    
C68   C69   A    
C84   C85   A    
C45   H8    S    
C78   H35   S    
C47   C48   A    
C5    C33   A    
C11   Br5   S    
C52   H14   S    
C69   H28   S    
C80   C81   A    
O5    Zn1   S    
C62   H22   S    
C47   C52   A    
C53   C58   A    
C3    C39   A    
C43   C44   A    
C61   H21   S    
C59   C60   A    
C23   O7    A    
C86   H42   S    
C55   H16   S    
C4    C40   A    
C83   C84   A    
C4    C6    A    
C79   H36   S    
C82   H39   S    
C58   H19   S    
C60   H20   S    
C33   Br1   S    
C2    O2    A    
C80   H37   S    
C55   C56   A    
C6    C34   A    
C74   H32   S    
C44   C45   A    
C66   H25   S    
C51   H13   S    
C29   C47   S    
C23   O5    A    
C53   C54   A    
C15   C21   A    
C30   C31   S    
C65   C66   A    
C61   C62   A    
C12   C20   A    
C17   C18   A    
C48   H10   S    
C16   C18   A    
C23   C28   S    
C54   C55   A    
C74   C75   A    
C21   C65   S    
C84   H40   S    
C9    C53   S    
C67   H26   S    
C12   N2    A    
C7    Br3   S    
C44   H7    S    
C13   C15   A    
C81   C82   A    
C14   C16   A    
C11   N1    A    
C54   H15   S    
C17   C19   A    
C3    C4    A    
C13   H3    S    
C49   C50   A    
C73   C74   A    
C14   H4    S    
C77   C78   A    
O7    Zn2   S    
C42   H5    S    
C22   C71   S    
C21   C25   A    
O8    Zn1   S    
C16   C22   A    
C87   H43   S    
C27   C32   T    
C56   C57   A    
C85   H41   S    
C28   C31   T    
C1    O1    A    
C88   H44   S    
C51   C52   A    
C3    C5    A    
N2    Zn2   S    
C83   C88   A    
C45   C46   A    
C72   C73   A    
C15   C17   A    
C12   Br6   S    
O3    Zn2   S    
O4    Zn1   S    
C87   C88   A    
C36   C38   A    
C78   C79   A    
C42   C43   A    
C5    C10   A    
C37   C39   A    
C79   C80   A    
C38   C40   A    
C41   C42   A    
C50   H12   S    
O6    Zn2   S    
C59   C64   A    
C33   C35   A    
C64   H24   S    
C34   C36   A    
C71   C76   A    
C73   H31   S    
C37   H1    S    
C48   C49   A    
C77   C82   A    
C7    C9    A    
C81   H38   S    
C50   C51   A    
N1    Zn1   S    
C8    C10   A    
C63   C64   A    
C22   C26   A    
C67   C68   A    
C49   H11   S    
C7    C39   A    
C85   C86   A    
C8    C40   A    
C75   C76   A    
C57   H18   S    
C1    O3    A    
C68   H27   S    
C86   C87   A    
C1    C36   S    
