data_mof_unit_3490.cif
_audit_creation_date              2012-12-11T14:10:56-0500
_audit_creation_method            fapswitch 2.2
_symmetry_space_group_name_H-M    P1
_symmetry_Int_Tables_number       1
_space_group_crystal_system       triclinic
_cell_length_a                    19.778485
_cell_length_b                    17.27002
_cell_length_c                    15.448228
_cell_angle_alpha                 90.000174
_cell_angle_beta                  52.202944
_cell_angle_gamma                 90.000245
_cell_volume                      4169.59757292

loop_
_atom_site_label
_atom_site_type_symbol
_atom_type_description
_atom_site_fract_x
_atom_site_fract_y
_atom_site_fract_z
_atom_type_partial_charge
C1    C     C_R   0.378083 0.197834 0.992124 0.604372
C2    C     C_3   0.665216 0.724510 0.461262 -0.397081
C3    C     C_3   0.965325 0.789259 0.403188 -0.878075
C4    C     C_3   0.019177 0.219632 0.332495 0.266609
C5    C     C_3   0.108905 0.196253 0.234069 -0.834116
C6    C     C_3   0.072197 0.739474 0.639338 0.307057
C7    C     C_3   0.034478 0.789251 0.597173 -0.877852
C8    C     C_3   0.757554 0.223167 0.441724 -0.358632
C9    C     C_3   0.334793 0.724489 0.538714 -0.397172
C10   C     C_3   0.742444 0.723173 0.558271 -0.358633
C11   C     C_3   0.165193 0.224467 0.461309 -0.397278
C12   C     C_3   0.257530 0.723207 0.441749 -0.358538
C13   C     C_3   0.834773 0.224523 0.538746 -0.397082
C14   C     C_2   0.182846 0.747977 0.099773 -0.041444
C15   C     C_2   0.718140 0.310099 0.035311 -0.040416
C16   C     C_2   0.817153 0.747977 0.900229 -0.041424
C17   C     C_R   0.659255 0.822883 0.955509 0.642330
C18   C     C_2   0.281851 0.310093 0.964704 -0.040372
C19   C     C_2   0.682845 0.247978 0.099775 -0.041439
C20   C     C_2   0.218143 0.810097 0.035305 -0.040391
C21   C     C_2   0.317153 0.247977 0.900231 -0.041405
C22   C     C_2   0.781854 0.810095 0.964699 -0.040417
C23   C     C_R   0.391899 0.802954 0.214118 -0.007862
C24   C     C_R   0.652742 0.170029 0.778796 -0.041480
C25   C     C_R   0.608103 0.802954 0.785881 -0.007863
C26   C     C_R   0.347257 0.170028 0.221206 -0.041589
C27   C     C_R   0.891893 0.302955 0.214121 -0.007848
C28   C     C_R   0.621917 0.197834 0.007876 0.604263
C29   C     C_R   0.152740 0.670032 0.778795 -0.041635
C30   C     C_R   0.108105 0.302955 0.785879 -0.007876
C31   C     C_R   0.847257 0.670028 0.221204 -0.041477
C32   C     C_R   0.331029 0.911578 0.949500 0.686669
C33   C     C_R   0.631059 0.112759 0.106113 0.765560
C34   C     C_R   0.668971 0.911578 0.050500 0.686680
C35   C     C_R   0.368941 0.112759 0.893887 0.765558
C36   C     C_R   0.831026 0.411580 0.949505 0.686713
C37   C     C_R   0.131058 0.612759 0.106113 0.765552
C38   C     C_R   0.168970 0.411578 0.050502 0.686682
C39   C     C_R   0.340745 0.822883 0.044491 0.642376
C40   C     C_R   0.868941 0.612758 0.893887 0.765545
C41   C     C_R   0.355797 0.078421 0.316896 -0.162351
C42   C     C_R   0.602266 0.895442 0.689691 -0.138193
C43   C     C_R   0.644208 0.078420 0.683105 -0.162371
C44   C     C_R   0.397738 0.895442 0.310307 -0.138134
C45   C     C_R   0.855793 0.578420 0.316895 -0.162354
C46   C     C_R   0.102264 0.395443 0.689691 -0.138104
C47   C     C_R   0.144204 0.578422 0.683104 -0.162416
C48   C     C_R   0.897730 0.395444 0.310311 -0.138202
C49   C     C_R   0.351971 0.188554 0.928569 -0.346481
C50   C     C_R   0.878083 0.697834 0.992124 0.604276
C51   C     C_R   0.711143 0.849791 0.980702 -0.338008
C52   C     C_R   0.648029 0.188554 0.071432 -0.346446
C53   C     C_R   0.288857 0.849791 0.019298 -0.337969
C54   C     C_R   0.851971 0.688554 0.928569 -0.346432
C55   C     C_R   0.211141 0.349790 0.980705 -0.337990
C56   C     C_R   0.148027 0.688554 0.071433 -0.346477
C57   C     C_R   0.788854 0.349794 0.019305 -0.338035
C58   C     C_R   0.375444 0.820419 0.311977 0.031719
C59   C     C_R   0.694536 0.136767 0.676539 0.036062
C60   C     C_R   0.624562 0.820419 0.688019 0.031656
C61   C     C_R   0.159255 0.322883 0.955510 0.642359
C62   C     C_R   0.305470 0.136770 0.323465 0.036040
C63   C     C_R   0.875431 0.320422 0.311984 0.031677
C64   C     C_R   0.194530 0.636772 0.676536 0.036059
C65   C     C_R   0.124562 0.320421 0.688019 0.031787
C66   C     C_R   0.805463 0.636767 0.323461 0.036049
C67   C     C_3   0.204950 0.151089 0.541199 -0.242334
C68   C     C_3   0.702685 0.796559 0.478983 -0.242082
C69   C     C_3   0.795123 0.151070 0.458795 -0.242268
C70   C     C_3   0.297338 0.796558 0.521010 -0.242085
C71   C     C_3   0.704880 0.651070 0.541204 -0.242250
C72   C     C_R   0.121916 0.697834 0.007876 0.604374
C73   C     C_3   0.202646 0.296552 0.478988 -0.242131
C74   C     C_3   0.295079 0.651083 0.458799 -0.242315
C75   C     C_3   0.797297 0.296564 0.521021 -0.242076
C76   C     C_3   0.624578 0.698220 0.579815 0.671460
C77   C     C_3   0.282148 0.250157 0.441802 0.678839
C78   C     C_3   0.375403 0.698205 0.420167 0.671504
C79   C     C_3   0.717839 0.250114 0.558158 0.678882
C80   C     C_3   0.124612 0.198193 0.579851 0.671551
C81   C     C_3   0.782151 0.750119 0.441839 0.678877
C82   C     C_3   0.875419 0.198230 0.420192 0.671468
C83   C     C_R   0.840743 0.322885 0.044494 0.642282
C84   C     C_3   0.217851 0.750145 0.558174 0.678790
C85   C     C_3   0.661999 0.768652 0.596251 -0.042659
C86   C     C_3   0.245924 0.179193 0.423619 -0.023547
C87   C     C_3   0.337996 0.768656 0.403749 -0.042587
C88   C     C_3   0.754085 0.179192 0.576385 -0.023598
C89   C     C_3   0.162016 0.268660 0.596244 -0.042497
C90   C     C_3   0.745911 0.679190 0.423615 -0.023590
C91   C     C_3   0.837991 0.268655 0.403752 -0.042645
C92   C     C_3   0.254077 0.679196 0.576383 -0.023601
C93   C     C_3   0.480812 0.719606 0.667538 0.266634
C94   C     C_3   0.242496 0.223229 0.558224 -0.358617
C95   C     C_3   0.391087 0.696188 0.765935 -0.834113
C96   C     C_3   0.427805 0.239541 0.360642 0.307037
C97   C     C_3   0.465439 0.289354 0.402891 -0.877939
C98   C     C_3   0.519174 0.719526 0.332474 0.266417
C99   C     C_3   0.608883 0.696198 0.233942 -0.833855
C100  C     C_3   0.572211 0.239439 0.639187 0.307088
C101  C     C_3   0.534671 0.289216 0.596783 -0.878107
C102  C     C_3   0.980838 0.219455 0.667511 0.266186
C103  C     C_3   0.891144 0.196227 0.766181 -0.833600
C104  C     C_3   0.927782 0.739464 0.360803 0.307084
F1    F     F_    0.400988 0.265941 0.011262 -0.658521
F2    F     F_    0.626103 0.084930 0.191858 -0.635505
F3    F     F_    0.692030 0.950260 0.104933 -0.627553
F4    F     F_    0.373896 0.084929 0.808142 -0.635517
F5    F     F_    0.807966 0.450263 0.895075 -0.627550
F6    F     F_    0.126103 0.584929 0.191858 -0.635515
F7    F     F_    0.192028 0.450259 0.104937 -0.627552
F8    F     F_    0.873897 0.584929 0.808141 -0.635511
F9    F     F_    0.665200 0.753873 0.909922 -0.710693
F10   F     F_    0.599011 0.265941 0.988740 -0.658539
F11   F     F_    0.334799 0.753873 0.090078 -0.710688
F12   F     F_    0.900989 0.765941 0.011260 -0.658534
F13   F     F_    0.165199 0.253871 0.909925 -0.710678
F14   F     F_    0.099012 0.765941 0.988739 -0.658533
F15   F     F_    0.834797 0.253874 0.090080 -0.710692
F16   F     F_    0.307969 0.950261 0.895069 -0.627553
H1    H     H_    0.392645 0.745690 0.185498 0.198193
H2    H     H_    0.596947 0.923518 0.631537 0.117996
H3    H     H_    0.655520 0.044709 0.616510 0.122895
H4    H     H_    0.403056 0.923520 0.368460 0.117991
H5    H     H_    0.844480 0.544710 0.383491 0.122894
H6    H     H_    0.096948 0.423521 0.631537 0.117989
H7    H     H_    0.155514 0.544712 0.616510 0.122914
H8    H     H_    0.903049 0.423520 0.368465 0.117994
H9    H     H_    0.204810 0.090628 0.565686 0.170651
H10   H     H_    0.703283 0.856839 0.453580 0.166708
H11   H     H_    0.795311 0.090596 0.434307 0.170648
H12   H     H_    0.672871 0.220345 0.799099 0.172204
H13   H     H_    0.296766 0.856832 0.546410 0.166708
H14   H     H_    0.704700 0.590598 0.565690 0.170644
H15   H     H_    0.203198 0.356822 0.453590 0.166707
H16   H     H_    0.295237 0.590616 0.434313 0.170654
H17   H     H_    0.796692 0.356845 0.546426 0.166709
H18   H     H_    0.273574 0.223891 0.598482 0.178092
H19   H     H_    0.634965 0.723497 0.420083 0.153799
H20   H     H_    0.726512 0.223777 0.401421 0.178115
H21   H     H_    0.365058 0.723453 0.579875 0.153843
H22   H     H_    0.773490 0.723790 0.598571 0.178111
H23   H     H_    0.607355 0.745690 0.814502 0.198182
H24   H     H_    0.134908 0.223412 0.420174 0.153833
H25   H     H_    0.226464 0.723852 0.401477 0.178100
H26   H     H_    0.865019 0.223518 0.579931 0.153747
H27   H     H_    0.192846 0.734146 0.159596 0.222194
H28   H     H_    0.707542 0.324574 0.976376 0.234995
H29   H     H_    0.807154 0.734147 0.840403 0.222180
H30   H     H_    0.292442 0.324563 0.023647 0.234967
H31   H     H_    0.692845 0.234146 0.159599 0.222192
H32   H     H_    0.207545 0.824572 0.976371 0.234981
H33   H     H_    0.307157 0.234150 0.840402 0.222181
H34   H     H_    0.327126 0.220342 0.200905 0.172244
H35   H     H_    0.792449 0.824568 0.023637 0.234984
H36   H     H_    0.484783 0.715170 0.592764 0.079673
H37   H     H_    0.490855 0.780938 0.679389 0.096026
H38   H     H_    0.385061 0.700632 0.842148 0.275379
H39   H     H_    0.343190 0.735146 0.773089 0.202452
H40   H     H_    0.377670 0.635701 0.756169 0.256999
H41   H     H_    0.479696 0.224917 0.273737 0.146606
H42   H     H_    0.405278 0.183741 0.406468 0.076234
H43   H     H_    0.415010 0.304547 0.490158 0.247082
H44   H     H_    0.517143 0.257046 0.395908 0.226228
H45   H     H_    0.892641 0.245691 0.185500 0.198182
H46   H     H_    0.492663 0.343358 0.353864 0.277424
H47   H     H_    0.515265 0.714931 0.407190 0.079824
H48   H     H_    0.509088 0.780898 0.320834 0.095974
H49   H     H_    0.614845 0.700811 0.157787 0.275323
H50   H     H_    0.656794 0.735099 0.226848 0.202384
H51   H     H_    0.622340 0.635668 0.243486 0.257036
H52   H     H_    0.520260 0.224841 0.726081 0.146603
H53   H     H_    0.594771 0.183622 0.593405 0.076244
H54   H     H_    0.585159 0.304379 0.509522 0.247085
H55   H     H_    0.483004 0.256894 0.603693 0.226284
H56   H     H_    0.172869 0.720348 0.799096 0.172246
H57   H     H_    0.507420 0.343238 0.645760 0.277395
H58   H     H_    0.984681 0.214695 0.592857 0.079936
H59   H     H_    0.990971 0.280870 0.678930 0.095935
H60   H     H_    0.885248 0.201019 0.842275 0.275259
H61   H     H_    0.843224 0.235068 0.773203 0.202330
H62   H     H_    0.877646 0.135650 0.756870 0.257082
H63   H     H_    0.979729 0.724859 0.273910 0.146603
H64   H     H_    0.905228 0.683650 0.406596 0.076235
H65   H     H_    0.914838 0.804440 0.490442 0.247101
H66   H     H_    0.016987 0.756943 0.396294 0.226264
H67   H     H_    0.107362 0.245691 0.814497 0.198212
H68   H     H_    0.992583 0.843270 0.354186 0.277388
H69   H     H_    0.015218 0.215164 0.407257 0.079648
H70   H     H_    0.009111 0.280970 0.320697 0.096028
H71   H     H_    0.114916 0.200735 0.157869 0.275355
H72   H     H_    0.156791 0.235212 0.226940 0.202479
H73   H     H_    0.122345 0.135759 0.243774 0.257006
H74   H     H_    0.020347 0.724816 0.726245 0.146570
H75   H     H_    0.094756 0.683689 0.593473 0.076222
H76   H     H_    0.084860 0.804448 0.509894 0.247070
H77   H     H_    0.982759 0.756914 0.604225 0.226245
H78   H     H_    0.827126 0.720342 0.200901 0.172205
H79   H     H_    0.007254 0.843253 0.646205 0.277416
H80   H     H_    0.344488 0.044711 0.383490 0.122911
N1    N     N_R   0.408680 0.130810 0.995780 -0.152763
N2    N     N_R   0.578590 0.132790 0.846380 -0.044793
N3    N     N_R   0.578590 0.867210 0.846380 -0.063244
N4    N     N_R   0.421410 0.132790 0.153620 -0.044817
N5    N     N_R   0.921410 0.367210 0.153620 -0.063245
N6    N     N_R   0.078590 0.632790 0.846380 -0.044819
N7    N     N_R   0.078590 0.367210 0.846380 -0.063261
N8    N     N_R   0.921410 0.632790 0.153620 -0.044795
N9    N     N_R   0.403840 0.921910 0.935760 -0.153911
N10   N     N_R   0.596160 0.078090 0.064240 -0.165112
N11   N     N_R   0.596160 0.921910 0.064240 -0.153902
N12   N     N_R   0.591320 0.869190 0.004220 -0.148648
N13   N     N_R   0.403840 0.078090 0.935760 -0.165103
N14   N     N_R   0.903840 0.421910 0.935760 -0.153895
N15   N     N_R   0.096160 0.578090 0.064240 -0.165102
N16   N     N_R   0.096160 0.421910 0.064240 -0.153909
N17   N     N_R   0.903840 0.578090 0.935760 -0.165110
N18   N     N_R   0.426250 0.076100 0.213650 -0.060888
N19   N     N_R   0.573750 0.923900 0.786350 -0.051742
N20   N     N_R   0.573750 0.076100 0.786350 -0.060879
N21   N     N_R   0.426250 0.923900 0.213650 -0.051747
N22   N     N_R   0.926250 0.576100 0.213650 -0.060879
N23   N     N_R   0.591320 0.130810 0.004220 -0.152770
N24   N     N_R   0.073750 0.423900 0.786350 -0.051750
N25   N     N_R   0.073750 0.576100 0.786350 -0.060893
N26   N     N_R   0.926250 0.423900 0.213650 -0.051742
N27   N     N_R   0.408680 0.869190 0.995780 -0.148653
N28   N     N_R   0.908680 0.630810 0.995780 -0.152771
N29   N     N_R   0.091320 0.369190 0.004220 -0.148652
N30   N     N_R   0.091320 0.630810 0.004220 -0.152758
N31   N     N_R   0.908680 0.369190 0.995780 -0.148642
N32   N     N_R   0.421410 0.867210 0.153620 -0.063253
Ni1   Ni    Ni4+2 0.500000 0.131570 0.000000 0.314617
Ni2   Ni    Ni4+2 0.500000 0.868430 0.000000 0.253663
Ni3   Ni    Ni4+2 0.000000 0.631570 0.000000 0.314613
Ni4   Ni    Ni4+2 0.000000 0.368430 0.000000 0.253671
Ni5   Ni    Ni4+2 0.488900 0.000000 0.862310 0.248288
Ni6   Ni    Ni4+2 0.511100 0.000000 0.137690 0.248296
Ni7   Ni    Ni4+2 0.988900 0.500000 0.862310 0.248302
Ni8   Ni    Ni4+2 0.011100 0.500000 0.137690 0.248295
O1    O     O_3   0.541042 0.669558 0.659080 -0.615564
O2    O     O_3   0.364666 0.282006 0.364835 -0.621399
O3    O     O_3   0.458929 0.669535 0.340871 -0.615548
O4    O     O_3   0.635294 0.281923 0.635095 -0.621419
O5    O     O_3   0.041093 0.169524 0.659183 -0.615534
O6    O     O_3   0.864691 0.781935 0.364897 -0.621420
O7    O     O_3   0.958960 0.169580 0.340928 -0.615568
O8    O     O_3   0.135327 0.781990 0.635108 -0.621401

loop_
_geom_bond_atom_site_label_1
_geom_bond_atom_site_label_2
_ccdc_geom_bond_type
C78   C87   S    
C3    C104  S    
C31   C66   A    
C14   C56   S    
C1    C49   A    
C10   C85   S    
C68   C85   S    
C12   C74   S    
C40   N17   A    
C100  H52   S    
C18   C21   D    
C50   N28   A    
C43   N20   A    
C17   N12   A    
C1    N1    A    
C3    H68   S    
C17   C51   A    
C71   H14   S    
C21   C49   S    
C41   N18   A    
C17   F9    S    
C40   F8    S    
C99   H50   S    
C25   H23   S    
C33   C52   A    
C65   C89   S    
C62   C86   S    
C24   N2    A    
C34   C51   A    
C50   C54   A    
C72   N30   A    
C82   O7    S    
C95   H39   S    
C45   N22   A    
N10   Ni6   S    
C6    O8    S    
N9    Ni5   S    
C2    C68   S    
C28   N23   A    
C15   H28   S    
C99   H51   S    
C70   C87   S    
C11   C86   S    
N8    N22   A    
C97   H46   S    
C95   H38   S    
C77   C94   S    
C80   C89   S    
C46   N24   A    
C96   H41   S    
C12   C84   S    
C103  H60   S    
C10   H22   S    
C83   F15   S    
C89   C94   S    
C2    C90   S    
C39   C53   A    
C73   C77   S    
C59   C88   S    
C79   C88   S    
N28   Ni3   S    
C69   C82   S    
N23   Ni1   S    
C36   N14   A    
C37   C56   A    
C45   C66   A    
C19   C52   S    
C38   C55   A    
C13   C75   S    
C104  O6    S    
C44   C58   A    
C97   H43   S    
C74   H16   S    
C35   C49   A    
C70   H13   S    
C61   N29   A    
C57   C83   A    
C16   H29   S    
C35   F4    S    
C25   C60   A    
C70   C84   S    
C11   H24   S    
N17   Ni7   S    
C27   C63   A    
C39   N27   A    
C23   N32   A    
C100  O4    S    
C75   C91   S    
C10   C71   S    
C82   C91   S    
C29   C64   A    
C74   C92   S    
N7    N24   A    
C93   C95   S    
C58   C87   S    
C102  H59   S    
C15   C57   S    
C102  H58   S    
C63   C91   S    
C101  H54   S    
C67   H9    S    
C102  O5    S    
C13   H26   S    
C32   F16   S    
C41   H80   S    
N14   N31   A    
C3    H65   S    
C9    C92   S    
N9    N27   A    
C6    H75   S    
N7    Ni4   S    
C100  H53   S    
C22   H35   S    
N5    Ni4   S    
C26   N4    A    
N26   Ni8   S    
C67   C80   S    
C61   F13   S    
C77   O2    S    
N16   Ni8   S    
C103  H62   S    
C14   C20   D    
N30   Ni3   S    
C9    C70   S    
C5    H71   S    
N3    Ni2   S    
C23   H1    S    
C42   N19   A    
C75   H17   S    
C42   C60   A    
C47   C64   A    
C9    H21   S    
C20   C53   S    
C48   C63   A    
N3    N19   A    
C56   C72   A    
C13   C82   S    
C44   H4    S    
C73   H15   S    
C29   N6    A    
C20   H32   S    
N4    N18   A    
N6    Ni3   S    
C27   N5    A    
C12   H25   S    
C7    H77   S    
C15   C19   D    
C4    O7    S    
N4    Ni1   S    
C4    H70   S    
C67   C94   S    
C48   N26   A    
C33   N10   A    
C24   H12   S    
N1    Ni1   S    
N11   N12   A    
C47   N25   A    
N13   Ni5   S    
C69   H11   S    
C97   H44   S    
C96   O2    S    
C96   C97   S    
N6    N25   A    
N32   Ni2   S    
N16   N29   A    
C8    C69   S    
N11   Ni6   S    
N5    N26   A    
C8    C91   S    
C79   O4    S    
C93   H37   S    
C35   N13   A    
N8    Ni3   S    
N1    N13   A    
C98   O3    S    
N31   Ni4   S    
C69   C88   S    
C28   F10   S    
C18   C55   S    
C46   C65   A    
N12   Ni2   S    
C34   F3    S    
C81   C90   S    
C81   O6    S    
C104  H64   S    
C27   H45   S    
C77   C86   S    
C36   C57   A    
N21   N32   A    
C40   C54   A    
C26   H34   S    
C11   C73   S    
N25   Ni7   S    
N20   Ni5   S    
C101  H55   S    
C37   F6    S    
C2    H19   S    
C29   H56   S    
C72   F14   S    
C95   H40   S    
C3    H66   S    
C43   H3    S    
C32   C53   A    
C6    H74   S    
C2    C76   S    
C11   C80   S    
C42   H2    S    
C5    H73   S    
N27   Ni2   S    
C67   C86   S    
C16   C22   D    
N10   N23   A    
C12   C87   S    
C103  H61   S    
N2    N20   A    
C19   H31   S    
C46   H6    S    
C93   H36   S    
C33   F2    S    
C98   H47   S    
C5    H72   S    
C38   N16   A    
C4    C5    S    
C25   N3    A    
C41   C62   A    
C60   C85   S    
C47   H7    S    
C6    C7    S    
C44   N21   A    
N15   N30   A    
C43   C59   A    
C21   H33   S    
C10   C81   S    
C39   F11   S    
C78   O3    S    
C68   C81   S    
N21   Ni6   S    
C84   O8    S    
C30   H67   S    
N19   Ni5   S    
N29   Ni4   S    
C76   O1    S    
C26   C62   A    
C73   C89   S    
C31   N8    A    
C8    C79   S    
C93   O1    S    
N2    Ni1   S    
C38   F7    S    
C32   N9    A    
C28   C52   A    
C71   C76   S    
C71   C90   S    
C83   N31   A    
C48   H8    S    
C24   C59   A    
C94   H18   S    
C30   N7    A    
C55   C61   A    
C13   C88   S    
N22   Ni8   S    
C100  C101  S    
C66   C90   S    
C96   H42   S    
N14   Ni7   S    
C23   C58   A    
C50   F12   S    
C9    C78   S    
C7    H79   S    
C102  C103  S    
N24   Ni7   S    
C16   C54   S    
C30   C65   A    
C101  H57   S    
C34   N11   A    
C8    H20   S    
N17   N28   A    
C99   H49   S    
C104  H63   S    
C4    H69   S    
C98   C99   S    
C74   C78   S    
C45   H5    S    
C36   F5    S    
N18   Ni6   S    
C80   O5    S    
C68   H10   S    
N15   Ni8   S    
C84   C92   S    
C64   C92   S    
C7    H76   S    
C18   H30   S    
C75   C79   S    
C76   C85   S    
C37   N15   A    
C31   H78   S    
C98   H48   S    
C1    F1    S    
C22   C51   S    
C14   H27   S    
