data_mof_unit_1888.cif
_audit_creation_date              2012-12-10T18:04:00-0500
_audit_creation_method            fapswitch 2.2
_symmetry_space_group_name_H-M    P1
_symmetry_Int_Tables_number       1
_space_group_crystal_system       triclinic
_cell_length_a                    10.79177
_cell_length_b                    9.622108
_cell_length_c                    10.757829
_cell_angle_alpha                 90.203188
_cell_angle_beta                  91.501669
_cell_angle_gamma                 89.941381
_cell_volume                      1116.69725093

loop_
_atom_site_label
_atom_site_type_symbol
_atom_type_description
_atom_site_fract_x
_atom_site_fract_y
_atom_site_fract_z
_atom_type_partial_charge
C1    C     C_R   0.262437 0.500513 0.500451 0.782711
C2    C     C_R   0.737535 0.500452 0.499756 0.789848
C3    C     C_R   0.426193 0.070339 0.417108 0.076688
C4    C     C_R   0.577660 0.071648 0.578878 0.066362
C5    C     C_R   0.425416 0.923105 0.420160 -0.059357
C6    C     C_R   0.574579 0.924177 0.579879 -0.054653
C7    C     C_R   0.498983 0.500104 0.263136 0.848499
C8    C     C_R   0.500449 0.500504 0.737239 0.881086
C9    C     C_R   0.394539 0.528175 0.062401 0.018623
C10   C     C_R   0.394790 0.528235 0.933897 -0.050692
C11   C     C_R   0.502774 0.500008 0.130369 -0.194007
C12   C     C_R   0.503657 0.501215 0.870933 -0.140299
C13   C     C_R   0.613115 0.467361 0.069370 0.169922
C14   C     C_R   0.614701 0.472446 0.938374 0.187278
C15   C     C_3   0.308743 0.651429 0.926393 0.033369
C16   C     C_3   0.312051 0.654241 0.068674 0.051476
C17   C     C_R   0.062623 0.391895 0.447414 -0.207484
C18   C     C_R   0.934891 0.392492 0.445042 -0.184692
C19   C     C_R   0.871398 0.503118 0.497968 0.014971
C20   C     C_R   0.128413 0.502903 0.499771 0.006222
C21   C     C_R   0.936686 0.617425 0.547418 -0.198579
C22   C     C_R   0.065278 0.617254 0.548470 -0.187668
Cu1   Cu    Cu3+1 0.500000 0.640660 0.500000 0.943446
Cu2   Cu    Cu3+1 0.500000 0.359340 0.500000 0.948681
H1    H     H_    0.217458 0.621853 0.883611 0.116805
H2    H     H_    0.359570 0.744593 0.113029 0.149437
H3    H     H_    0.109831 0.305959 0.406674 0.152526
H4    H     H_    0.886303 0.306707 0.401465 0.135167
H5    H     H_    0.888587 0.705291 0.587050 0.143434
H6    H     H_    0.115068 0.704908 0.588755 0.143427
H7    H     H_    0.368208 0.864615 0.354280 0.141041
H8    H     H_    0.637647 0.866590 0.640533 0.125308
N1    N     N_R   0.500000 0.852070 0.500000 -0.170106
N2    N     N_R   0.500000 0.147940 0.500000 -0.196544
O1    O     O_R   0.319640 0.618740 0.499990 -0.579247
O2    O     O_R   0.680360 0.618740 0.500010 -0.597228
O3    O     O_R   0.319620 0.381170 0.499990 -0.587239
O4    O     O_R   0.680380 0.381170 0.500010 -0.582052
O5    O     O_R   0.499990 0.618810 0.319660 -0.593998
O6    O     O_R   0.500010 0.618810 0.680340 -0.559698
O7    O     O_R   0.499960 0.381240 0.319650 -0.578296
O8    O     O_R   0.500040 0.381240 0.680350 -0.583966
N3    N     N_2   0.725239 0.442670 0.138635 -0.426444
H9    H     H_    0.741455 0.508689 0.213007 0.245676
C23   C     C_3   0.749986 0.298383 0.167327 -0.751672
H10   H     H_    0.717844 0.273694 0.261792 0.241361
H11   H     H_    0.851190 0.278880 0.163666 0.221340
H12   H     H_    0.701455 0.227868 0.100456 0.218129
N4    N     N_2   0.729378 0.463744 0.875890 -0.407109
H13   H     H_    0.793956 0.400829 0.919718 0.292177
C24   C     C_3   0.783178 0.597260 0.847649 -0.714556
H14   H     H_    0.872296 0.581233 0.800468 0.227399
H15   H     H_    0.801803 0.657264 0.934645 0.226574
H16   H     H_    0.720611 0.658029 0.785030 0.237066
N5    N     N_2   0.360860 0.773768 0.866969 -0.395259
H17   H     H_    0.294598 0.844299 0.837178 0.244950
C25   C     C_3   0.472258 0.839615 0.917563 -0.669749
H18   H     H_    0.516108 0.900099 0.843247 0.217969
H19   H     H_    0.540676 0.762527 0.952879 0.236152
H20   H     H_    0.448676 0.912183 0.993663 0.204377
N6    N     N_2   0.190879 0.631998 0.122167 -0.436936
H21   H     H_    0.127147 0.708241 0.099191 0.252257
C26   C     C_3   0.139284 0.493414 0.126410 -0.648943
H22   H     H_    0.046081 0.497432 0.167707 0.231223
H23   H     H_    0.199152 0.426690 0.186650 0.252731
H24   H     H_    0.130053 0.448719 0.031328 0.214897
C27   C     C_R   0.357829 0.127751 0.308522 0.166518
C28   C     C_R   0.421274 0.148116 0.197539 -0.122135
C29   C     C_R   0.356303 0.169824 0.085167 -0.160721
C30   C     C_R   0.227131 0.162266 0.080811 -0.123581
C31   C     C_R   0.163093 0.133457 0.188905 -0.166914
C32   C     C_R   0.228332 0.113783 0.301591 -0.208575
H25   H     H_    0.521315 0.143330 0.197826 0.125029
H26   H     H_    0.406332 0.188324 0.000885 0.131606
H27   H     H_    0.176850 0.176869 0.993508 0.117979
H28   H     H_    0.063151 0.123800 0.185007 0.126990
H29   H     H_    0.178395 0.081990 0.382800 0.117428
C33   C     C_R   0.686246 0.130380 0.645184 0.181657
C34   C     C_R   0.688433 0.137574 0.775554 -0.149131
C35   C     C_R   0.801851 0.143272 0.841571 -0.169109
C36   C     C_R   0.913150 0.148405 0.778638 -0.112177
C37   C     C_R   0.911905 0.140998 0.649265 -0.135456
C38   C     C_R   0.799296 0.128460 0.583175 -0.139103
H30   H     H_    0.603263 0.129972 0.826073 0.112915
H31   H     H_    0.804298 0.141408 0.941701 0.124563
H32   H     H_    0.000409 0.154022 0.830273 0.112992
H33   H     H_    0.998354 0.139040 0.600505 0.129080
H34   H     H_    0.800057 0.109498 0.483903 0.106012

loop_
_geom_bond_atom_site_label_1
_geom_bond_atom_site_label_2
_ccdc_geom_bond_type
C6    H8    S    
N5    H17   S    
C26   H23   S    
Cu2   O8    S    
C36   C37   A    
C23   H10   S    
C7    C11   S    
C35   H31   S    
C19   C21   A    
C9    C16   S    
C8    O8    A    
C18   C19   A    
C10   C15   S    
C31   H28   S    
C25   H19   S    
C14   N4    S    
Cu1   O6    S    
C17   C20   A    
C27   C32   A    
N6    C26   S    
C33   C38   A    
C28   C29   A    
N4    C24   S    
C5    N1    A    
Cu2   O4    S    
Cu1   Cu2   S    
C30   C31   A    
C9    C10   A    
C36   H32   S    
C1    O3    A    
C38   H34   S    
C26   H24   S    
C13   C14   A    
Cu2   O7    S    
C29   C30   A    
Cu2   O3    S    
C23   H11   S    
C16   H2    S    
C4    N2    A    
C15   C16   S    
C24   H14   S    
C17   H3    S    
C18   H4    S    
C4    C6    A    
C33   C34   A    
C25   H20   S    
C3    N2    A    
Cu1   N1    S    
C28   H25   S    
C26   H22   S    
C21   H5    S    
Cu2   N2    S    
C27   C28   A    
C24   H15   S    
C15   N5    S    
N3    H9    S    
C4    C33   S    
C32   H29   S    
C9    C11   A    
C2    O4    A    
C8    C12   S    
C17   C18   A    
C29   H26   S    
N3    C23   S    
C10   C12   A    
C12   C14   A    
C37   C38   A    
Cu1   O1    S    
N5    C25   S    
N4    H13   S    
C16   N6    S    
C13   N3    S    
C1    O1    A    
C23   H12   S    
C2    O2    A    
C1    C20   S    
C22   H6    S    
C2    C19   S    
C3    C27   S    
C20   C22   A    
C35   C36   A    
C3    C5    A    
C6    N1    A    
C24   H16   S    
C31   C32   A    
C11   C13   A    
C25   H18   S    
C34   H30   S    
Cu1   O5    S    
C7    O7    A    
N6    H21   S    
C15   H1    S    
C34   C35   A    
Cu1   O2    S    
C30   H27   S    
C7    O5    A    
C8    O6    A    
C21   C22   A    
C37   H33   S    
C5    H7    S    
