data_mof_unit_4450.cif
_audit_creation_date              2012-12-10T18:53:04-0500
_audit_creation_method            fapswitch 2.2
_symmetry_space_group_name_H-M    P1
_symmetry_Int_Tables_number       1
_space_group_crystal_system       triclinic
_cell_length_a                    9.824661
_cell_length_b                    10.716346
_cell_length_c                    16.764011
_cell_angle_alpha                 90.13474
_cell_angle_beta                  84.240662
_cell_angle_gamma                 89.97948
_cell_volume                      1756.07542967

loop_
_atom_site_label
_atom_site_type_symbol
_atom_type_description
_atom_site_fract_x
_atom_site_fract_y
_atom_site_fract_z
_atom_type_partial_charge
C1    C     C_R   0.500039 0.740175 0.499971 0.894301
C2    C     C_R   0.063216 0.575641 0.551173 -0.061415
C3    C     C_R   0.080780 0.424214 0.448947 -0.049538
C4    C     C_R   0.919218 0.575662 0.551123 -0.066352
C5    C     C_R   0.479819 0.493469 0.653215 0.909164
C6    C     C_R   0.520268 0.499011 0.346714 0.946974
C7    C     C_R   0.466839 0.464758 0.738688 -0.188369
C8    C     C_R   0.536921 0.471246 0.261554 -0.174868
C9    C     C_R   0.573996 0.502150 0.782113 -0.207865
C10   C     C_R   0.453271 0.377271 0.235141 -0.211028
C11   C     C_R   0.575943 0.467363 0.861055 -0.219799
C12   C     C_R   0.499980 0.259826 0.499870 0.891041
C13   C     C_R   0.475959 0.331710 0.157960 -0.217266
C14   C     C_R   0.470694 0.393649 0.898629 0.058481
C15   C     C_R   0.579631 0.382589 0.104800 0.064666
C16   C     C_R   0.360549 0.356606 0.856696 0.499519
C17   C     C_R   0.665051 0.477448 0.129909 0.513667
C18   C     C_R   0.357591 0.392035 0.776202 -0.147619
C19   C     C_R   0.646322 0.520702 0.209695 -0.167867
C20   C     C_2   0.468347 0.365953 0.984052 -0.210657
C21   C     C_2   0.583610 0.353741 0.019579 -0.211419
C22   C     C_2   0.738603 0.619006 0.236614 0.939991
C23   C     C_R   0.624010 0.936005 0.484075 -0.159747
C24   C     C_2   0.243545 0.345564 0.732750 0.967643
C25   C     C_3   0.289008 0.159752 0.888166 -0.297514
C26   C     C_3   0.711892 0.638674 0.043471 -0.288661
C27   C     C_R   0.375967 0.064006 0.515363 -0.154306
C28   C     C_R   0.623993 0.063836 0.484056 -0.200554
C29   C     C_R   0.375993 0.936190 0.515438 -0.206600
C30   C     C_R   0.499982 0.127422 0.499760 -0.017008
C31   C     C_R   0.500020 0.872594 0.499831 -0.014938
C32   C     C_R   0.936776 0.424243 0.448892 -0.061988
H1    H     H_    0.657492 0.558527 0.754686 0.170044
H2    H     H_    0.279561 0.887576 0.528173 0.157384
H3    H     H_    0.889085 0.363763 0.408070 0.128459
H4    H     H_    0.110898 0.636050 0.592036 0.126981
H5    H     H_    0.142479 0.363640 0.408180 0.123162
H6    H     H_    0.857524 0.636156 0.591943 0.126252
H7    H     H_    0.929588 0.689829 0.230852 0.338077
H8    H     H_    0.039573 0.333554 0.728539 0.334654
H9    H     H_    0.381876 0.138373 0.918545 0.160089
H10   H     H_    0.304016 0.129314 0.824370 0.162890
H11   H     H_    0.203403 0.104338 0.918177 0.203229
H12   H     H_    0.372558 0.335726 0.275337 0.164882
H13   H     H_    0.612252 0.622031 0.018932 0.147628
H14   H     H_    0.785341 0.671485 0.993349 0.198622
H15   H     H_    0.700389 0.714420 0.089031 0.171582
H16   H     H_    0.682453 0.349910 0.984264 0.204064
H17   H     H_    0.369778 0.371264 0.019706 0.205440
H18   H     H_    0.409904 0.258865 0.138830 0.167696
H19   H     H_    0.659095 0.501019 0.892903 0.172703
H20   H     H_    0.720441 0.887231 0.471352 0.167431
H21   H     H_    0.279502 0.112746 0.527990 0.181599
H22   H     H_    0.720414 0.112470 0.471327 0.157620
N1    N     N_R   0.142790 0.500030 0.500020 -0.078411
N2    N     N_R   0.857210 0.499970 0.499980 -0.081922
O1    O     O_R   0.385380 0.683250 0.500010 -0.630625
O2    O     O_R   0.877577 0.618072 0.208664 -0.749193
O3    O     O_2   0.267358 0.281423 0.672555 -0.651380
O4    O     O_R   0.108518 0.370983 0.762860 -0.761915
O5    O     O_3   0.254268 0.287364 0.894857 -0.583666
O6    O     O_3   0.764647 0.529043 0.075460 -0.574744
O7    O     O_R   0.614620 0.316750 0.499990 -0.635496
O8    O     O_R   0.614710 0.683220 0.500000 -0.618024
O9    O     O_R   0.385290 0.316780 0.500000 -0.605436
O10   O     O_R   0.371780 0.500040 0.615800 -0.600649
O11   O     O_R   0.628220 0.499960 0.384200 -0.602877
O12   O     O_R   0.601110 0.500010 0.615800 -0.620374
O13   O     O_R   0.398890 0.499990 0.384200 -0.622963
O14   O     O_2   0.693026 0.701717 0.282136 -0.650133
Zn1   Zn    Zn3+2 0.346870 0.500020 0.500000 0.977491
Zn2   Zn    Zn3+2 0.653130 0.499980 0.500000 0.969765

loop_
_geom_bond_atom_site_label_1
_geom_bond_atom_site_label_2
_ccdc_geom_bond_type
C25   H10   S    
C22   O2    S    
C6    O13   A    
C2    C4    A    
C27   H21   S    
C15   C17   A    
C20   H17   S    
H8    O4    S    
C1    O1    A    
C17   O6    S    
C27   C29   A    
C12   O9    A    
O10   Zn1   S    
O12   Zn2   S    
C24   O4    S    
C7    C18   A    
C7    C9    A    
C25   H11   S    
C28   C30   A    
C26   O6    S    
C29   C31   A    
C5    O10   A    
C25   O5    S    
C23   C28   A    
C4    N2    A    
C27   C30   A    
C9    H1    S    
C9    C11   A    
C23   H20   S    
C26   H15   S    
C24   O3    D    
C18   C24   S    
C8    C10   A    
C6    O11   A    
C17   C19   A    
C4    H6    S    
C2    N1    A    
C5    C7    S    
C21   H16   S    
C13   C15   A    
C1    C31   S    
C3    C32   A    
C11   C14   A    
C14   C16   A    
C8    C19   A    
C11   H19   S    
C5    O12   A    
C26   H14   S    
C10   H12   S    
C13   H18   S    
C1    O8    A    
C14   C20   S    
C15   C21   S    
C19   C22   S    
C22   O14   D    
O7    Zn2   S    
C3    H5    S    
C16   C18   A    
O11   Zn2   S    
C16   O5    S    
C2    H4    S    
O13   Zn1   S    
C12   O7    A    
C28   H22   S    
C25   H9    S    
C6    C8    S    
C26   H13   S    
C12   C30   S    
C20   C21   D    
O9    Zn1   S    
H7    O2    S    
C3    N1    A    
C29   H2    S    
C32   N2    A    
O1    Zn1   S    
C32   H3    S    
O8    Zn2   S    
N1    Zn1   S    
N2    Zn2   S    
C10   C13   A    
C23   C31   A    
