data_mof_unit_3213.cif
_audit_creation_date              2012-12-10T17:18:54-0500
_audit_creation_method            fapswitch 2.2
_symmetry_space_group_name_H-M    P1
_symmetry_Int_Tables_number       1
_space_group_crystal_system       triclinic
_cell_length_a                    9.603711
_cell_length_b                    10.850312
_cell_length_c                    13.387407
_cell_angle_alpha                 93.6324
_cell_angle_beta                  72.803064
_cell_angle_gamma                 88.506045
_cell_volume                      1328.49973832

loop_
_atom_site_label
_atom_site_type_symbol
_atom_type_description
_atom_site_fract_x
_atom_site_fract_y
_atom_site_fract_z
_atom_type_partial_charge
C1    C     C_R   0.497768 0.738186 0.498134 0.783580
C2    C     C_R   0.440993 0.495901 0.978365 0.124130
C3    C     C_R   0.475162 0.461059 0.869841 0.066559
C4    C     C_R   0.551692 0.483556 0.028659 -0.032590
C5    C     C_R   0.683229 0.413261 0.975438 -0.024244
C6    C     C_R   0.706063 0.365382 0.872295 -0.178628
C7    C     C_R   0.604512 0.389288 0.820187 -0.208000
C8    C     C_R   0.536146 0.538672 0.130042 0.330976
C9    C     C_R   0.758306 0.428714 0.132848 -0.357916
C10   C     C_R   0.375953 0.495060 0.815002 -0.126825
C11   C     C_R   0.219111 0.899076 0.523926 -0.300230
C12   C     C_R   0.422123 0.495968 0.699904 0.771697
C13   C     C_R   0.087210 0.969617 0.567373 0.352401
C14   C     C_R   0.090515 0.088682 0.614225 0.453285
C15   C     C_R   0.224838 0.139173 0.606194 -0.243149
C16   C     C_R   0.357446 0.073293 0.552138 0.040964
C17   C     C_R   0.355289 0.946040 0.525097 0.075591
C18   C     C_R   0.489984 0.873781 0.499038 -0.096691
C19   C     C_R   0.621622 0.933278 0.484528 -0.183598
C20   C     C_R   0.622960 0.060548 0.492914 -0.209945
C21   C     C_R   0.492243 0.131512 0.522861 -0.093511
C22   C     C_R   0.903853 0.316613 0.380545 -0.229610
C23   C     C_R   0.497378 0.263917 0.509293 0.801716
C24   C     C_R   0.978765 0.203602 0.353112 -0.416644
C25   C     C_R   0.117256 0.190675 0.363604 0.346360
C26   C     C_R   0.187520 0.299397 0.380876 0.453601
C27   C     C_R   0.099675 0.405143 0.440902 0.070582
C28   C     C_R   0.950171 0.408861 0.440611 0.176124
C29   C     C_R   0.899852 0.585945 0.558213 -0.041241
C30   C     C_R   0.047703 0.586209 0.557919 -0.077326
C31   C     C_R   0.578732 0.503340 0.300375 0.832156
C32   C     C_R   0.787794 0.387645 0.027221 0.455833
C33   C     C_R   0.628485 0.495973 0.185765 -0.215266
C34   C     C_R   0.234199 0.539585 0.871631 -0.160909
C35   C     C_R   0.192604 0.553845 0.980384 -0.145196
C36   C     C_R   0.294663 0.533527 0.033518 -0.133797
Cu1   Cu    Cu3+1 0.359340 0.500010 0.500010 0.979276
Cu2   Cu    Cu3+1 0.640660 0.499990 0.499990 0.942094
H1    H     H_    0.834139 0.403367 0.174752 0.167708
H2    H     H_    0.211937 0.812044 0.483355 0.180680
H3    H     H_    0.223987 0.231005 0.643048 0.183340
H4    H     H_    0.726897 0.103368 0.474902 0.191770
H5    H     H_    0.823013 0.656348 0.606303 0.152906
H6    H     H_    0.807653 0.325762 0.357196 0.222080
H7    H     H_    0.931772 0.128114 0.319236 0.162610
H8    H     H_    0.802873 0.308587 0.831174 0.227492
H9    H     H_    0.081021 0.656473 0.605951 0.136172
H10   H     H_    0.155168 0.563510 0.831853 0.168218
H11   H     H_    0.254675 0.541634 0.118033 0.186302
H12   H     H_    0.081309 0.583151 0.023743 0.157620
H13   H     H_    0.625951 0.345168 0.742142 0.182732
H14   H     H_    0.725307 0.881342 0.463716 0.183010
N1    N     N_R   0.852480 0.498790 0.499000 -0.179926
N2    N     N_R   0.148360 0.498710 0.498970 -0.176203
O1    O     O_R   0.381190 0.680360 0.500010 -0.600821
O2    O     O_R   0.618760 0.680340 0.500000 -0.581248
O3    O     O_R   0.323240 0.499990 0.650990 -0.586378
O4    O     O_R   0.560820 0.499960 0.650980 -0.573171
O5    O     O_R   0.381240 0.319660 0.500000 -0.531534
O6    O     O_R   0.618810 0.319640 0.499990 -0.604690
O7    O     O_R   0.439180 0.500040 0.349020 -0.512168
O8    O     O_R   0.676760 0.500010 0.349010 -0.607806
O9    O     O_3   0.955249 0.924734 0.564013 -0.774836
H15   H     H_    0.972738 0.843536 0.523108 0.310411
O10   O     O_3   0.965922 0.161389 0.663467 -0.755532
H16   H     H_    0.878591 0.114386 0.664481 0.360043
O11   O     O_3   0.195250 0.078423 0.339703 -0.740822
H17   H     H_    0.130027 0.013101 0.328285 0.330059
O12   O     O_3   0.336344 0.302914 0.333856 -0.561781
C37   C     C_3   0.383204 0.255319 0.227038 0.099812
H18   H     H_    0.421094 0.332049 0.177848 0.130612
H19   H     H_    0.297673 0.215519 0.195671 0.138875
C38   C     C_3   0.510409 0.160821 0.210590 -0.300725
H20   H     H_    0.603830 0.207532 0.226873 0.185796
H21   H     H_    0.477843 0.087754 0.266378 0.264479
C39   C     C_3   0.558089 0.100548 0.098896 -0.928850
H22   H     H_    0.467489 0.049028 0.083044 0.276200
H23   H     H_    0.652467 0.034660 0.088822 0.251275
H24   H     H_    0.590982 0.171628 0.041404 0.252249
O13   O     O_3   0.919325 0.325103 0.972785 -0.590185
C40   C     C_3   0.942168 0.216267 0.020563 0.080508
H25   H     H_    0.950849 0.135631 0.963223 0.167606
H26   H     H_    0.851364 0.197017 0.091086 0.088045
C41   C     C_3   0.083612 0.222487 0.051231 -0.369760
H27   H     H_    0.084363 0.311683 0.096658 0.213439
H28   H     H_    0.088524 0.146709 0.102387 0.175253
C42   C     C_3   0.218597 0.208958 0.955347 -0.758345
H29   H     H_    0.226359 0.115483 0.914607 0.233551
H30   H     H_    0.318070 0.221502 0.980387 0.224892
H31   H     H_    0.213624 0.279274 0.899742 0.285164
O14   O     O_3   0.434239 0.635036 0.172016 -0.742556
H32   H     H_    0.458391 0.679774 0.231183 0.324817

loop_
_geom_bond_atom_site_label_1
_geom_bond_atom_site_label_2
_ccdc_geom_bond_type
C42   H29   S    
C16   C21   A    
C38   H20   S    
C31   O7    A    
C35   C36   A    
C25   O11   S    
C41   C42   S    
C4    C8    A    
C40   H25   S    
C27   N2    A    
C23   O5    A    
C30   N2    A    
C1    C18   S    
C29   C30   A    
C24   H7    S    
C1    O2    A    
C41   H28   S    
C34   C35   A    
C3    C7    A    
C5    C6    A    
C15   C16   A    
C9    H1    S    
C18   C19   A    
C9    C32   A    
Cu2   O4    S    
C19   H14   S    
C22   H6    S    
C19   C20   A    
C16   C17   A    
C39   H24   S    
C37   H18   S    
C5    C32   A    
C12   O4    A    
C22   C28   A    
C13   C14   A    
C29   H5    S    
C9    C33   A    
C38   H21   S    
C31   O8    A    
C11   H2    S    
C35   H12   S    
C40   H26   S    
C39   H22   S    
C23   O6    A    
O11   H17   S    
C30   H9    S    
C24   C25   A    
C15   H3    S    
O14   H32   S    
C4    C5    A    
C25   C26   A    
C2    C4    A    
Cu1   Cu2   S    
C32   O13   S    
Cu1   O7    S    
C13   O9    S    
C37   C38   S    
C31   C33   S    
C17   C18   A    
C26   C27   A    
C10   C34   A    
C8    O14   S    
C41   H27   S    
Cu1   O5    S    
C10   C12   S    
Cu2   O6    S    
Cu1   N2    S    
C21   C23   S    
C38   C39   S    
C22   C24   A    
C34   H10   S    
C12   O3    A    
C40   C41   S    
C2    C36   A    
C11   C17   A    
C6    H8    S    
C39   H23   S    
O13   C40   S    
C20   H4    S    
C28   N1    A    
C6    C7    A    
C42   H30   S    
C2    C3    A    
C1    O1    A    
C7    H13   S    
C3    C10   A    
C11   C13   A    
Cu2   N1    S    
C29   N1    A    
C14   O10   S    
C8    C33   A    
O12   C37   S    
O9    H15   S    
Cu1   O1    S    
Cu2   O2    S    
C20   C21   A    
O10   H16   S    
C42   H31   S    
C27   C28   A    
C26   O12   S    
C14   C15   A    
C37   H19   S    
Cu1   O3    S    
C36   H11   S    
Cu2   O8    S    
