data_mof_unit_3019.cif
_audit_creation_date              2012-12-10T20:38:22-0500
_audit_creation_method            fapswitch 2.2
_symmetry_space_group_name_H-M    P1
_symmetry_Int_Tables_number       1
_space_group_crystal_system       triclinic
_cell_length_a                    9.863498
_cell_length_b                    10.701239
_cell_length_c                    16.777027
_cell_angle_alpha                 90.106382
_cell_angle_beta                  84.43708
_cell_angle_gamma                 90.578756
_cell_volume                      1762.41221043

loop_
_atom_site_label
_atom_site_type_symbol
_atom_type_description
_atom_site_fract_x
_atom_site_fract_y
_atom_site_fract_z
_atom_type_partial_charge
C1    C     C_R   0.500786 0.740249 0.501733 0.909017
C2    C     C_R   0.352402 0.485688 0.787137 -0.206191
C3    C     C_R   0.432798 0.501558 0.135452 -0.224815
C4    C     C_R   0.422546 0.518482 0.217557 -0.183235
C5    C     C_R   0.658883 0.457098 0.219156 -0.210162
C6    C     C_R   0.668697 0.439185 0.136866 -0.167371
C7    C     C_R   0.554584 0.458050 0.095296 0.069770
C8    C     C_2   0.458887 0.373323 0.979267 -0.354085
C9    C     C_2   0.562912 0.434110 0.009074 0.458025
C10   C     C_R   0.534659 0.493910 0.259964 -0.024863
C11   C     C_R   0.378614 0.934926 0.509894 0.076743
C12   C     C_R   0.480346 0.493483 0.652808 0.863184
C13   C     C_R   0.501255 0.872427 0.512091 -0.232713
C14   C     C_R   0.620483 0.939112 0.527882 0.491616
C15   C     C_R   0.613798 0.068615 0.533784 -0.337961
C16   C     C_R   0.495826 0.129422 0.515520 -0.177414
C17   C     C_R   0.375787 0.062163 0.511077 0.142847
C18   C     C_3   0.273000 0.068035 0.451375 -0.463398
C19   C     C_3   0.276341 0.926455 0.449945 -0.474242
C20   C     C_R   0.917291 0.506751 0.570282 0.214820
C21   C     C_R   0.939163 0.482362 0.431101 -0.162482
C22   C     C_R   0.082936 0.482286 0.431096 -0.134606
C23   C     C_R   0.498928 0.260276 0.502935 0.914344
C24   C     C_R   0.059812 0.507226 0.570240 0.224002
C25   C     C_3   0.056369 0.611135 0.629672 -0.525525
C26   C     C_3   0.902381 0.609770 0.630258 -0.489009
C27   C     C_R   0.519890 0.500339 0.346762 0.848126
C28   C     C_R   0.467092 0.454013 0.735680 -0.035170
C29   C     C_R   0.565763 0.374275 0.761760 -0.245809
C30   C     C_R   0.554961 0.333977 0.840442 -0.060732
C31   C     C_R   0.447357 0.376015 0.893745 0.208882
C32   C     C_R   0.342550 0.446550 0.866406 -0.203985
H1    H     H_    0.652158 0.344525 0.721624 0.155552
H2    H     H_    0.763787 0.407651 0.105978 0.152192
H3    H     H_    0.702883 0.121399 0.547516 0.175687
H4    H     H_    0.173953 0.105624 0.477812 0.200836
H5    H     H_    0.314233 0.111545 0.393789 0.199675
H6    H     H_    0.180109 0.881848 0.475913 0.198799
H7    H     H_    0.319347 0.887333 0.391520 0.198517
H8    H     H_    0.894291 0.470171 0.375299 0.146491
H9    H     H_    0.145407 0.469666 0.375183 0.150700
H10   H     H_    0.091027 0.580954 0.687542 0.199664
H11   H     H_    0.326691 0.549322 0.247856 0.143077
H12   H     H_    0.105294 0.698315 0.604247 0.214301
H13   H     H_    0.849063 0.578071 0.688241 0.204359
H14   H     H_    0.861527 0.696280 0.605742 0.257500
H15   H     H_    0.746879 0.438279 0.250988 0.144922
H16   H     H_    0.259313 0.479624 0.907720 0.131693
H17   H     H_    0.345353 0.521463 0.103352 0.126092
H18   H     H_    0.274249 0.544899 0.767087 0.141301
H19   H     H_    0.369422 0.344715 0.018145 0.124207
H20   H     H_    0.635366 0.277941 0.861218 0.156773
N1    N     N_R   0.857140 0.500860 0.500530 -0.109127
N2    N     N_R   0.142780 0.500820 0.500530 -0.106253
O1    O     O_R   0.385310 0.683210 0.499990 -0.616842
O2    O     O_R   0.614650 0.683240 0.500000 -0.578277
O3    O     O_R   0.371780 0.500000 0.615800 -0.615920
O4    O     O_R   0.601120 0.500040 0.615800 -0.618529
O5    O     O_R   0.385350 0.316760 0.500000 -0.612465
O6    O     O_R   0.614690 0.316790 0.500010 -0.624931
O7    O     O_R   0.398880 0.499960 0.384200 -0.628860
O8    O     O_R   0.628220 0.500000 0.384200 -0.633392
Zn1   Zn    Zn3+2 0.346870 0.499980 0.499990 0.940360
Zn2   Zn    Zn3+2 0.653130 0.500020 0.500010 0.941709
O9    O     O_3   0.739584 0.877321 0.540698 -0.640714
C33   C     C_3   0.847317 0.909382 0.481745 0.075057
H21   H     H_    0.943390 0.879336 0.504855 0.152897
H22   H     H_    0.858331 0.011746 0.471515 0.127067
C34   C     C_3   0.833637 0.840979 0.402312 -0.330057
H23   H     H_    0.831802 0.738532 0.412522 0.252804
H24   H     H_    0.737112 0.867955 0.378169 0.204617
C35   C     C_3   0.952302 0.872230 0.340130 -0.984183
H25   H     H_    0.959922 0.974738 0.330023 0.269565
H26   H     H_    0.935971 0.825655 0.282586 0.264787
H27   H     H_    0.049203 0.838036 0.360256 0.267667
O10   O     O_3   0.679795 0.465867 0.959639 -0.651978
C36   C     C_3   0.704672 0.596422 0.960626 0.070349
H28   H     H_    0.814911 0.611651 0.942462 0.163301
H29   H     H_    0.684403 0.639333 0.021079 0.133421
C37   C     C_3   0.623142 0.662785 0.900221 -0.339851
H30   H     H_    0.644623 0.618950 0.840281 0.241889
H31   H     H_    0.512483 0.653011 0.919160 0.218630
C38   C     C_3   0.659841 0.801469 0.893986 -0.963538
H32   H     H_    0.637573 0.847772 0.953054 0.264083
H33   H     H_    0.598627 0.846672 0.850134 0.270757
H34   H     H_    0.769549 0.814043 0.873286 0.266009

loop_
_geom_bond_atom_site_label_1
_geom_bond_atom_site_label_2
_ccdc_geom_bond_type
C10   C27   S    
C33   H22   S    
C3    H17   S    
C22   N2    A    
C36   H28   S    
C23   O5    A    
C5    H15   S    
C11   C19   S    
C12   C28   S    
C28   C29   A    
C27   O8    A    
C18   H5    S    
C3    C7    A    
C37   C38   S    
C5    C6    A    
C37   H30   S    
N1    Zn2   S    
C22   H9    S    
C16   C17   A    
N2    Zn1   S    
C24   N2    A    
C15   C16   A    
C29   H1    S    
C2    C32   A    
C18   C19   S    
C34   H24   S    
O8    Zn2   S    
C27   O7    A    
C26   H13   S    
C31   C32   A    
C8    C9    D    
O1    Zn1   S    
O2    Zn2   S    
C9    O10   S    
C2    H18   S    
C12   O4    A    
C33   H21   S    
C21   C22   A    
C32   H16   S    
C35   H27   S    
C25   H12   S    
C15   H3    S    
O3    Zn1   S    
C36   H29   S    
O4    Zn2   S    
C23   O6    A    
C20   C24   A    
O10   C36   S    
C35   H26   S    
C20   N1    A    
C25   C26   S    
C6    H2    S    
C34   C35   S    
C29   C30   A    
C19   H6    S    
C38   H32   S    
O7    Zn1   S    
C17   C18   S    
C24   C25   S    
C8    H19   S    
C19   H7    S    
C12   O3    A    
C37   H31   S    
C38   H33   S    
C16   C23   S    
C1    C13   S    
C4    C10   A    
C3    C4    A    
C36   C37   S    
C7    C9    S    
C30   H20   S    
C11   C17   A    
C8    C31   S    
C1    O2    A    
C35   H25   S    
C25   H10   S    
C6    C7    A    
C4    H11   S    
O5    Zn1   S    
O6    Zn2   S    
C1    O1    A    
C5    C10   A    
C21   N1    A    
C11   C13   A    
C30   C31   A    
C21   H8    S    
C20   C26   S    
C14   O9    S    
C34   H23   S    
C26   H14   S    
C33   C34   S    
C38   H34   S    
O9    C33   S    
C14   C15   A    
C2    C28   A    
C13   C14   A    
C18   H4    S    
