data_mof_unit_3305.cif
_audit_creation_date              2012-12-10T18:46:20-0500
_audit_creation_method            fapswitch 2.2
_symmetry_space_group_name_H-M    P1
_symmetry_Int_Tables_number       1
_space_group_crystal_system       triclinic
_cell_length_a                    9.874362
_cell_length_b                    10.640656
_cell_length_c                    13.336343
_cell_angle_alpha                 90.31167
_cell_angle_beta                  71.542025
_cell_angle_gamma                 90.035149
_cell_volume                      1329.13936203

loop_
_atom_site_label
_atom_site_type_symbol
_atom_type_description
_atom_site_fract_x
_atom_site_fract_y
_atom_site_fract_z
_atom_type_partial_charge
C1    C     C_R   0.499875 0.739649 0.500534 1.058901
C2    C     C_R   0.383257 0.517799 0.819812 -0.200628
C3    C     C_R   0.609287 0.935714 0.429192 0.506148
C4    C     C_R   0.423455 0.507653 0.703518 0.910841
C5    C     C_R   0.607742 0.064418 0.429728 0.578447
C6    C     C_R   0.497078 0.127741 0.504865 -0.382636
C7    C     C_R   0.386642 0.064005 0.581250 -0.016751
C8    C     C_R   0.388364 0.933871 0.578677 0.601060
C9    C     C_R   0.499138 0.871851 0.502771 -0.442623
C10   C     C_R   0.944258 0.398329 0.463349 0.610568
C11   C     C_R   0.087537 0.398390 0.463685 -0.235173
C12   C     C_R   0.441592 0.476827 0.981600 0.044464
C13   C     C_R   0.057284 0.602350 0.534855 -0.165357
C14   C     C_R   0.914294 0.602912 0.534019 0.674046
C15   C     C_R   0.498900 0.260321 0.501989 0.997903
C16   C     C_R   0.577703 0.493345 0.297594 0.946480
C17   C     C_R   0.782346 0.372904 0.025178 0.091880
C18   C     C_R   0.620986 0.465358 0.185523 -0.212703
C19   C     C_R   0.240021 0.536965 0.880117 0.622868
C20   C     C_R   0.195896 0.519082 0.988882 -0.199676
C21   C     C_R   0.294225 0.484570 0.038900 -0.206236
C22   C     C_3   0.271068 0.133009 0.665917 -0.686793
C23   C     C_R   0.486778 0.498043 0.872529 -0.160686
C24   C     C_3   0.875064 0.407383 0.782781 -0.755421
C25   C     C_3   0.910912 0.289964 0.976335 -0.778474
C26   C     C_R   0.547127 0.453732 0.030341 0.024579
C27   C     C_R   0.687523 0.413718 0.969976 -0.013221
C28   C     C_R   0.729073 0.434132 0.859528 0.051081
C29   C     C_R   0.635471 0.501414 0.820845 0.663894
C30   C     C_R   0.519720 0.484489 0.135430 -0.290704
C31   C     C_R   0.749182 0.403828 0.132863 0.644330
F1    F     F_    0.840398 0.372432 0.186656 -0.609651
F2    F     F_    0.711374 0.127513 0.355219 -0.534828
F3    F     F_    0.284927 0.867066 0.650446 -0.620569
F4    F     F_    0.894672 0.296687 0.424561 -0.552319
F5    F     F_    0.834164 0.707285 0.567744 -0.560838
F6    F     F_    0.143247 0.575082 0.833997 -0.650994
F7    F     F_    0.692761 0.593783 0.750226 -0.596494
F8    F     F_    0.714938 0.873200 0.355137 -0.585170
H1    H     H_    0.154273 0.317111 0.434260 0.203469
H2    H     H_    0.955861 0.464066 0.803177 0.311638
H3    H     H_    0.899784 0.305758 0.779755 0.219329
H4    H     H_    0.001605 0.344502 0.925076 0.237250
H5    H     H_    0.949728 0.245084 0.037025 0.295455
H6    H     H_    0.881568 0.211341 0.932350 0.239917
H7    H     H_    0.099345 0.684140 0.563287 0.234632
H8    H     H_    0.421488 0.532297 0.177787 0.198125
H9    H     H_    0.253134 0.463729 0.122352 0.184740
H10   H     H_    0.084296 0.529773 0.034552 0.204802
H11   H     H_    0.320067 0.201227 0.707515 0.196498
H12   H     H_    0.199990 0.183735 0.629887 0.240914
H13   H     H_    0.203379 0.068536 0.726353 0.281263
H14   H     H_    0.881295 0.432117 0.700875 0.227852
N1    N     N_R   0.142790 0.500030 0.500030 -0.150633
N2    N     N_R   0.857180 0.499940 0.500010 -0.207117
O1    O     O_R   0.385370 0.683250 0.500010 -0.605729
O2    O     O_R   0.614700 0.683220 0.500010 -0.518489
O3    O     O_R   0.328400 0.499990 0.653620 -0.565175
O4    O     O_R   0.557730 0.499960 0.653620 -0.588180
O5    O     O_R   0.385300 0.316780 0.499990 -0.647186
O6    O     O_R   0.614630 0.316750 0.499990 -0.531012
O7    O     O_R   0.442270 0.500040 0.346380 -0.641739
O8    O     O_R   0.671600 0.500010 0.346380 -0.535207
Zn1   Zn    Zn3+2 0.346870 0.500020 0.500000 0.998709
Zn2   Zn    Zn3+2 0.653130 0.499980 0.500000 1.146329

loop_
_geom_bond_atom_site_label_1
_geom_bond_atom_site_label_2
_ccdc_geom_bond_type
C29   F7    S    
C2    C4    S    
O1    Zn1   S    
C6    C7    A    
C3    C9    A    
C16   O8    A    
C1    O2    A    
C24   H14   S    
C7    C22   S    
C24   H3    S    
C15   O5    A    
C31   F1    S    
O5    Zn1   S    
C22   H11   S    
C21   H9    S    
C17   C25   S    
C25   H4    S    
O8    Zn2   S    
C14   N2    A    
C15   O6    A    
C3    F8    S    
C7    C8    A    
C8    F3    S    
C13   C14   A    
O4    Zn2   S    
C14   F5    S    
C24   H2    S    
C12   C23   A    
C26   C27   A    
C20   H10   S    
C11   N1    A    
N1    Zn1   S    
C18   C30   A    
C10   N2    A    
C23   C29   A    
C4    O4    A    
C22   H13   S    
C28   C29   A    
N2    Zn2   S    
C1    O1    A    
C26   C30   A    
O6    Zn2   S    
O3    Zn1   S    
C5    C6    A    
C17   C31   A    
C10   F4    S    
C10   C11   A    
C11   H1    S    
C17   C27   A    
C25   H6    S    
C30   H8    S    
C27   C28   A    
C1    C9    S    
C20   C21   A    
C25   H5    S    
C24   C28   S    
C16   C18   S    
C13   N1    A    
C4    O3    A    
C2    C23   A    
C13   H7    S    
C8    C9    A    
O7    Zn1   S    
C18   C31   A    
C19   F6    S    
C3    C5    A    
C6    C15   S    
C2    C19   A    
C12   C21   A    
C16   O7    A    
C19   C20   A    
C12   C26   A    
C22   H12   S    
O2    Zn2   S    
C5    F2    S    
