data_mof_unit_4042.cif
_audit_creation_date              2012-12-11T17:06:27-0500
_audit_creation_method            fapswitch 2.2
_symmetry_space_group_name_H-M    P1
_symmetry_Int_Tables_number       1
_space_group_crystal_system       triclinic
_cell_length_a                    6.944041
_cell_length_b                    14.534341
_cell_length_c                    15.963698
_cell_angle_alpha                 90.461032
_cell_angle_beta                  89.935945
_cell_angle_gamma                 90.02702
_cell_volume                      1611.11576507

loop_
_atom_site_label
_atom_site_type_symbol
_atom_type_description
_atom_site_fract_x
_atom_site_fract_y
_atom_site_fract_z
_atom_type_partial_charge
O1    O     O_R   0.494400 0.415450 0.412630 -0.527438
O2    O     O_R   0.823940 0.405730 0.586760 -0.544403
O3    O     O_R   0.994240 0.584550 0.587370 -0.525816
C1    C     C_R   0.654816 0.384121 0.615704 0.731824
O4    O     O_R   0.824110 0.404430 0.413240 -0.519426
O5    O     O_R   0.994420 0.583240 0.412620 -0.541226
C2    C     C_R   0.655158 0.382242 0.384112 0.724942
O6    O     O_R   0.494230 0.416760 0.587380 -0.543131
O7    O     O_3   0.660800 0.558670 0.500000 -0.367769
V1    V     V_3+5 0.935650 0.489120 0.500000 1.542920
O8    O     O_R   0.324140 0.594270 0.413240 -0.536840
C3    C     C_R   0.155152 0.615921 0.384190 0.785451
O9    O     O_R   0.323960 0.595570 0.586760 -0.538534
C4    C     C_R   0.154932 0.617481 0.615632 0.711699
V2    V     V_3+5 0.435660 0.510880 0.500000 1.528743
O10   O     O_3   0.160640 0.441330 0.500000 -0.362706
C5    C     C_3   0.961164 0.712856 0.734424 0.329476
C6    C     C_3   0.069120 0.705972 0.818436 -0.282662
H1    H     H_    0.014764 0.671596 0.875637 0.151073
C7    C     C_3   0.122242 0.809022 0.810741 -0.093835
C8    C     C_3   0.013332 0.814357 0.727586 0.381480
C9    C     C_3   0.197326 0.790108 0.677970 -0.205250
C10   C     C_3   0.308757 0.783944 0.762373 -0.117748
C11   C     C_3   0.255547 0.680210 0.769134 -0.152785
C12   C     C_3   0.143899 0.687030 0.685559 -0.088400
H2    H     H_    0.248325 0.825002 0.620456 0.161474
H3    H     H_    0.453007 0.814109 0.774570 0.159949
H4    H     H_    0.356864 0.624231 0.785785 0.154861
C13   C     C_R   0.259035 0.818133 0.241436 -0.001245
C14   C     C_R   0.119052 0.809288 0.178531 -0.192349
C15   C     C_R   0.980161 0.737544 0.187715 0.336070
C16   C     C_R   0.989090 0.678394 0.257311 -0.149491
H5    H     H_    0.884090 0.623503 0.262054 0.166918
C17   C     C_R   0.141195 0.683529 0.315540 -0.235252
C18   C     C_R   0.271363 0.756279 0.307374 0.132643
C19   C     C_3   0.486026 0.755911 0.305085 0.201435
C20   C     C_3   0.473009 0.824560 0.233722 -0.395814
H6    H     H_    0.548541 0.687797 0.287818 0.099754
H7    H     H_    0.525617 0.796694 0.172934 0.195045
H8    H     H_    0.527258 0.894446 0.250014 0.177951
C21   C     C_R   0.506213 0.245911 0.683981 -0.061750
C22   C     C_R   0.645687 0.315394 0.683334 -0.146072
C23   C     C_R   0.781298 0.316632 0.748595 -0.090674
H9    H     H_    0.886518 0.371401 0.751279 0.168790
C24   C     C_R   0.771189 0.254086 0.815563 0.399174
C25   C     C_R   0.624590 0.185167 0.816367 -0.185356
C26   C     C_R   0.497330 0.181656 0.748387 -0.041597
C27   C     C_3   0.282224 0.180307 0.749493 0.224855
C28   C     C_3   0.290412 0.252406 0.680520 0.585698
H10   H     H_    0.221756 0.205968 0.809768 0.152128
C29   C     C_R   0.477345 0.302670 0.267482 -0.023928
C30   C     C_R   0.642722 0.310975 0.317320 -0.106841
C31   C     C_R   0.791900 0.246748 0.303603 -0.064453
H11   H     H_    0.919195 0.247761 0.342718 0.161198
C32   C     C_R   0.780865 0.182025 0.237446 -0.105432
H12   H     H_    0.900468 0.135378 0.227538 0.129626
C33   C     C_R   0.619644 0.179274 0.183591 -0.085505
C34   C     C_R   0.465404 0.238162 0.202519 -0.064011
C35   C     C_3   0.359071 0.303968 0.147358 0.608594
C36   C     C_3   0.375794 0.374946 0.218155 0.236846
H13   H     H_    0.470610 0.434475 0.203739 0.103106
O11   O     O_R   0.771650 0.079500 0.908680 -0.525482
O12   O     O_R   0.441690 0.091800 0.082800 -0.549499
O13   O     O_R   0.271460 0.912980 0.083410 -0.541009
C37   C     C_R   0.610474 0.113795 0.112036 0.717114
O14   O     O_R   0.441930 0.090510 0.909280 -0.526740
O15   O     O_R   0.271690 0.911670 0.908660 -0.538020
C38   C     C_R   0.611462 0.114746 0.882620 0.770984
O16   O     O_R   0.771410 0.080810 0.083440 -0.545811
O17   O     O_3   0.605100 0.937580 0.996050 -0.378873
V3    V     V_3+5 0.330220 0.007110 0.996030 1.496732
O18   O     O_R   0.941980 0.900620 0.909250 -0.536246
C39   C     C_R   0.110969 0.878727 0.880432 0.787502
O19   O     O_R   0.941740 0.901920 0.082770 -0.549054
C40   C     C_R   0.110715 0.877906 0.110009 0.677048
V4    V     V_3+5 0.830220 0.985300 0.996000 1.487391
O20   O     O_3   0.105210 0.054870 0.996020 -0.369448
O21   O     O_3   0.563030 0.794973 0.378196 -0.626123
H14   H     H_    0.704910 0.792469 0.371141 0.294492
O22   O     O_3   0.898590 0.267471 0.880868 -0.617359
H15   H     H_    0.844289 0.240572 0.932481 0.316324
Cl1   Cl    Cl    0.190738 0.070137 0.718571 -0.603246
O23   O     O_3   0.222850 0.338203 0.708914 -0.654639
H16   H     H_    0.185002 0.374145 0.659107 0.320105
O24   O     O_3   0.207683 0.224736 0.603520 -0.620948
H17   H     H_    0.292399 0.177793 0.576988 0.309156
O25   O     O_3   0.778364 0.676527 0.718298 -0.636090
H18   H     H_    0.700286 0.692076 0.768391 0.281658
O26   O     O_3   0.169104 0.275622 0.131922 -0.591788
H19   H     H_    0.176791 0.225105 0.089954 0.317476
Cl2   Cl    Cl    0.485945 0.336160 0.054156 -0.641944
Cl3   Cl    Cl    0.152930 0.407740 0.265693 -0.617532
O27   O     O_3   0.883379 0.884111 0.707253 -0.607018
H20   H     H_    0.836723 0.868654 0.650195 0.309122
O28   O     O_3   0.842637 0.717971 0.127893 -0.643816
H21   H     H_    0.889601 0.739120 0.072768 0.289594

loop_
_geom_bond_atom_site_label_1
_geom_bond_atom_site_label_2
_ccdc_geom_bond_type
O14   C38   A    
O25   H18   S    
O12   C37   A    
O27   H20   S    
C21   C22   A    
O28   H21   S    
O18   V4    S    
C1    C22   S    
C31   H11   S    
O19   V4    S    
O23   H16   S    
C6    C11   S    
C19   C20   S    
C2    C30   S    
C17   C18   A    
C20   H8    S    
O5    C3    A    
C14   C15   A    
C37   O16   A    
V2    O10   S    
O16   V4    S    
C6    H1    S    
C35   O26   S    
O13   V3    S    
O8    V2    S    
C26   C27   S    
C9    C12   S    
C10   C11   S    
O17   V3    S    
O15   C39   A    
C10   H3    S    
O7    V1    S    
C6    C7    S    
C1    O6    A    
C36   Cl3   S    
C35   C36   S    
O1    C2    A    
C8    C9    S    
O11   V4    S    
C21   C28   S    
C31   C32   A    
O19   C40   A    
C29   C30   A    
C28   O24   S    
V4    O20   S    
O4    C2    A    
O21   H14   S    
O18   C39   A    
C34   C35   S    
O24   H17   S    
C5    C8    S    
C36   H13   S    
C18   C19   S    
C16   C17   A    
O2    C1    A    
C23   H9    S    
C25   C38   S    
C13   C14   A    
O14   V3    S    
C7    C10   S    
C32   H12   S    
C5    C6    S    
C21   C26   A    
C29   C34   A    
C35   Cl2   S    
C11   C12   S    
C23   C24   A    
O3    C4    A    
O1    V2    S    
C27   C28   S    
O12   V3    S    
O6    V2    S    
C32   C33   A    
O9    V2    S    
O17   V4    S    
C22   C23   A    
C3    C17   S    
O2    V1    S    
V3    O20   S    
C30   C31   A    
C25   C26   A    
C5    O25   S    
C15   C16   A    
C11   H4    S    
C33   C37   S    
O22   H15   S    
O5    V1    S    
O8    C3    A    
C13   C18   A    
O11   C38   A    
C5    C12   S    
C16   H5    S    
C28   O23   S    
C19   H6    S    
O7    V2    S    
O4    V1    S    
C20   H7    S    
O3    V1    S    
C19   O21   S    
C14   C40   S    
C33   C34   A    
C8    O27   S    
C15   O28   S    
C27   H10   S    
O13   C40   A    
C27   Cl1   S    
C7    C39   S    
C24   O22   S    
O15   V3    S    
C4    C12   S    
C24   C25   A    
C7    C8    S    
C9    H2    S    
C13   C20   S    
C9    C10   S    
V1    O10   S    
C29   C36   S    
O26   H19   S    
O9    C4    A    
