data_mof_unit_3119.cif
_audit_creation_date              2012-12-10T17:22:53-0500
_audit_creation_method            fapswitch 2.2
_symmetry_space_group_name_H-M    P1
_symmetry_Int_Tables_number       1
_space_group_crystal_system       triclinic
_cell_length_a                    10.079673
_cell_length_b                    10.544867
_cell_length_c                    10.943665
_cell_angle_alpha                 86.519849
_cell_angle_beta                  95.089844
_cell_angle_gamma                 80.492078
_cell_volume                      1139.31952536

loop_
_atom_site_label
_atom_site_type_symbol
_atom_type_description
_atom_site_fract_x
_atom_site_fract_y
_atom_site_fract_z
_atom_type_partial_charge
C1    C     C_R   0.443267 0.508697 0.267415 0.925823
C2    C     C_R   0.556733 0.491304 0.732584 0.925812
C3    C     C_R   0.503224 0.256694 0.509717 0.855863
C4    C     C_R   0.496776 0.743305 0.490284 0.855869
C5    C     C_3   0.595189 0.033303 0.431987 0.029436
C6    C     C_3   0.404814 0.966694 0.568022 0.029443
C7    C     C_3   0.469301 0.981834 0.381066 -0.011201
C8    C     C_3   0.530703 0.018164 0.618942 -0.011196
C9    C     C_3   0.493487 0.878637 0.489473 -0.077440
C10   C     C_3   0.506516 0.121362 0.510534 -0.077436
C11   C     C_3   0.620260 0.928794 0.540631 -0.262315
C12   C     C_3   0.379743 0.071203 0.459377 -0.262324
C13   C     C_2   0.410853 0.510515 0.136057 -0.408594
C14   C     C_2   0.589147 0.489487 0.863942 -0.408668
C15   C     C_2   0.512372 0.503845 0.065005 -0.183721
C16   C     C_2   0.487629 0.496153 0.934995 -0.183693
C17   C     C_2   0.074101 0.490646 0.491472 -0.141521
C18   C     C_2   0.925899 0.509353 0.508529 -0.141525
H1    H     H_    0.717195 0.865951 0.576128 0.141347
H2    H     H_    0.282805 0.134042 0.423880 0.141328
H3    H     H_    0.384051 0.496488 0.897251 0.188097
H4    H     H_    0.615953 0.503508 0.102749 0.188082
H5    H     H_    0.882978 0.384312 0.388504 0.174863
H6    H     H_    0.117022 0.615690 0.611495 0.174853
N1    N     N_2   0.157310 0.552180 0.551120 -0.193167
N2    N     N_2   0.842690 0.447820 0.448880 -0.193168
O1    O     O_R   0.568940 0.489500 0.307530 -0.617437
O2    O     O_R   0.431060 0.510500 0.692470 -0.617437
O3    O     O_R   0.348880 0.522990 0.340350 -0.612382
O4    O     O_R   0.651120 0.477010 0.659650 -0.612386
O5    O     O_R   0.610000 0.297210 0.483560 -0.606627
O6    O     O_R   0.390000 0.702790 0.516440 -0.606633
O7    O     O_R   0.389940 0.330700 0.516390 -0.624169
O8    O     O_R   0.610060 0.669300 0.483610 -0.624175
Zn1   Zn    Zn3+2 0.646930 0.477640 0.478080 0.932615
Zn2   Zn    Zn3+2 0.353070 0.522360 0.521920 0.932616
C19   C     C_R   0.423754 0.980603 0.246699 0.111368
C20   C     C_R   0.366474 0.097937 0.179626 -0.181717
C21   C     C_R   0.319766 0.100379 0.055803 -0.141172
C22   C     C_R   0.330673 0.986073 0.997361 -0.070446
C23   C     C_R   0.388576 0.868820 0.062545 -0.129555
C24   C     C_R   0.435255 0.865880 0.187180 -0.156578
H7    H     H_    0.356705 0.187971 0.223281 0.117096
H8    H     H_    0.275912 0.191061 0.004911 0.129102
H9    H     H_    0.295509 0.989989 0.901204 0.154620
H10   H     H_    0.398564 0.780591 0.016215 0.149496
H11   H     H_    0.480905 0.774959 0.236236 0.124167
C25   C     C_R   0.576271 0.019392 0.753304 0.111341
C26   C     C_R   0.633508 0.902049 0.820382 -0.181725
C27   C     C_R   0.680281 0.899605 0.944189 -0.141214
C28   C     C_R   0.669478 0.013921 0.002613 -0.070500
C29   C     C_R   0.611610 0.131182 0.937425 -0.129548
C30   C     C_R   0.564872 0.134123 0.812805 -0.156548
H12   H     H_    0.643207 0.812012 0.776738 0.117102
H13   H     H_    0.724108 0.808918 0.995084 0.129102
H14   H     H_    0.704702 0.010007 0.098756 0.154628
H15   H     H_    0.601712 0.219421 0.983735 0.149482
H16   H     H_    0.519265 0.225053 0.763744 0.124145
C31   C     C_R   0.707585 0.068554 0.359729 0.121949
C32   C     C_R   0.840173 0.998423 0.382022 -0.163329
C33   C     C_R   0.944705 0.035832 0.320146 -0.145789
C34   C     C_R   0.918576 0.143589 0.235613 -0.155836
C35   C     C_R   0.787486 0.213257 0.211730 -0.170605
C36   C     C_R   0.682148 0.175065 0.272045 -0.088472
H17   H     H_    0.864322 0.914925 0.447214 0.130397
H18   H     H_    0.046330 0.981561 0.338342 0.148839
H19   H     H_    0.999811 0.172851 0.188389 0.136588
H20   H     H_    0.767412 0.296330 0.145711 0.128920
H21   H     H_    0.581484 0.230312 0.251994 0.127960
C37   C     C_R   0.292418 0.931459 0.640285 0.121937
C38   C     C_R   0.159852 0.001634 0.618033 -0.163381
C39   C     C_R   0.055322 0.964256 0.679928 -0.145798
C40   C     C_R   0.081427 0.856484 0.764442 -0.155774
C41   C     C_R   0.212496 0.786775 0.788289 -0.170607
C42   C     C_R   0.317834 0.824933 0.727951 -0.088534
H22   H     H_    0.135726 0.085151 0.552866 0.130404
H23   H     H_    0.953720 0.018565 0.661769 0.148856
H24   H     H_    0.000193 0.827249 0.811684 0.136605
H25   H     H_    0.232556 0.703697 0.854300 0.128940
H26   H     H_    0.418484 0.769658 0.747982 0.127966
H27   H     H_    0.693109 0.486043 0.902124 0.148747
H28   H     H_    0.306889 0.513964 0.097874 0.148742
H29   H     H_    0.886865 0.576747 0.573145 0.164903
H30   H     H_    0.113135 0.423251 0.426857 0.164898

loop_
_geom_bond_atom_site_label_1
_geom_bond_atom_site_label_2
_ccdc_geom_bond_type
C16   H3    S    
C23   C24   A    
C18   N2    D    
C6    C9    S    
O3    Zn2   S    
C11   H1    S    
C31   C36   A    
C39   H23   S    
O4    Zn1   S    
O6    Zn2   S    
C5    C11   S    
C6    C12   S    
C38   H22   S    
C3    O7    A    
C26   H12   S    
O7    Zn2   S    
C7    C9    S    
O8    Zn1   S    
C40   C41   A    
H5    N2    S    
C19   C24   A    
C33   H18   S    
C15   H4    S    
C23   H10   S    
C37   C38   A    
C42   H26   S    
C31   C32   A    
C7    C12   S    
C18   H29   S    
C25   C30   A    
C4    O8    A    
C41   C42   A    
C5    C31   S    
C28   C29   A    
H6    N1    S    
C21   C22   A    
C5    C7    S    
C6    C8    S    
C27   C28   A    
C13   H28   S    
C32   C33   A    
C8    C25   S    
C19   C20   A    
O1    Zn1   S    
C40   H24   S    
C12   H2    S    
C34   C35   A    
C1    O3    A    
C17   C18   S    
C7    C19   S    
C36   H21   S    
C3    O5    A    
C9    C11   S    
C4    O6    A    
C10   C12   S    
C34   H19   S    
C22   C23   A    
C32   H17   S    
C41   H25   S    
C13   C15   D    
O5    Zn1   S    
C1    C13   S    
C29   C30   A    
C6    C37   S    
C35   H20   S    
C25   C26   A    
C28   H14   S    
C39   C40   A    
C30   H16   S    
C21   H8    S    
C27   H13   S    
C2    O4    A    
C17   H30   S    
C17   N1    D    
C20   H7    S    
C3    C10   S    
C20   C21   A    
C8    C11   S    
C14   C16   D    
C24   H11   S    
C33   C34   A    
C2    C14   S    
C29   H15   S    
N1    Zn2   S    
C35   C36   A    
N2    Zn1   S    
C5    C10   S    
C38   C39   A    
C22   H9    S    
O2    Zn2   S    
C8    C10   S    
C26   C27   A    
C37   C42   A    
C1    O1    A    
C2    O2    A    
C14   H27   S    
C4    C9    S    
C15   C16   S    
