data_mof_unit_4004.cif
_audit_creation_date              2012-12-11T14:56:25-0500
_audit_creation_method            fapswitch 2.2
_symmetry_space_group_name_H-M    P1
_symmetry_Int_Tables_number       1
_space_group_crystal_system       triclinic
_cell_length_a                    10.531178
_cell_length_b                    10.713911
_cell_length_c                    17.10544
_cell_angle_alpha                 79.995956
_cell_angle_beta                  89.957815
_cell_angle_gamma                 119.405398
_cell_volume                      1647.45077212

loop_
_atom_site_label
_atom_site_type_symbol
_atom_type_description
_atom_site_fract_x
_atom_site_fract_y
_atom_site_fract_z
_atom_type_partial_charge
C1    C     C_R   0.222181 0.853845 0.128644 0.542477
C2    C     C_R   0.797780 0.422163 0.263236 -0.190980
C3    C     C_R   0.788016 0.408095 0.184815 -0.154396
C4    C     C_R   0.650490 0.339998 0.157071 -0.025745
C5    C     C_1   0.685131 0.831623 0.201794 -0.019886
C6    C     C_1   0.703714 0.807509 0.270483 -0.024079
C7    C     C_1   0.180383 0.825384 0.211276 -0.038050
C8    C     C_1   0.151381 0.820252 0.279774 -0.025584
C9    C     C_1   0.661542 0.356372 0.780258 0.083693
C10   C     C_1   0.684214 0.400104 0.709746 0.089473
C11   C     C_R   0.624200 0.713058 0.805663 0.330335
C12   C     C_R   0.636235 0.279653 0.086365 0.557053
C13   C     C_R   0.605306 0.697414 0.727845 0.317922
C14   C     C_R   0.668693 0.821503 0.665799 -0.089200
C15   C     C_R   0.751925 0.961340 0.682819 0.339343
C16   C     C_R   0.763412 0.977624 0.761528 0.335791
C17   C     C_R   0.692795 0.853083 0.823284 -0.090236
C18   C     C_R   0.243202 0.968365 0.758660 -0.134349
C19   C     C_R   0.230121 0.955176 0.680255 -0.167625
C20   C     C_R   0.162126 0.816392 0.661381 0.021338
C21   C     C_R   0.122655 0.691328 0.721186 0.374007
C22   C     C_R   0.138660 0.705495 0.800119 -0.085161
C23   C     C_R   0.643491 0.855747 0.124312 0.547397
C24   C     C_R   0.192966 0.843256 0.819038 -0.036781
C25   C     C_R   0.711479 0.772734 0.353584 0.537510
C26   C     C_R   0.688920 0.396167 0.394641 0.581132
C27   C     C_R   0.103885 0.810609 0.359203 0.548703
C28   C     C_R   0.677489 0.799332 0.585804 0.606176
C29   C     C_R   0.717116 0.445281 0.625972 0.572349
C30   C     C_R   0.100644 0.801883 0.585802 0.552090
C31   C     C_R   0.225082 0.864614 0.898850 0.543266
C32   C     C_R   0.640208 0.290248 0.861770 0.583817
C33   C     C_R   0.648208 0.867193 0.899609 0.593909
C34   C     C_R   0.523517 0.300005 0.205976 -0.086671
C35   C     C_R   0.533375 0.315205 0.284908 0.364692
C36   C     C_R   0.670259 0.370448 0.314462 0.035178
Cr1   Cr    Cr6+3 0.402240 0.783890 0.019450 1.074919
Cr2   Cr    Cr6+3 0.382360 0.097900 0.991800 1.091560
Cr3   Cr    Cr6+3 0.715380 0.118170 0.988700 1.102069
Cr4   Cr    Cr6+3 0.936650 0.882420 0.465510 1.115041
Cr5   Cr    Cr6+3 0.605770 0.565620 0.493360 1.129375
Cr6   Cr    Cr6+3 0.921340 0.550490 0.496380 1.134179
H1    H     H_    0.264247 0.052924 0.634912 0.182498
H2    H     H_    0.905879 0.473300 0.283776 0.158344
H3    H     H_    0.887015 0.441818 0.147447 0.155911
O1    O     O_R   0.521780 0.757110 0.108900 -0.498766
O2    O     O_R   0.513330 0.228330 0.898660 -0.474361
O3    O     O_R   0.739230 0.266130 0.888050 -0.461713
O4    O     O_R   0.712580 0.991850 0.918770 -0.446969
O5    O     O_3   0.499990 0.999980 0.999980 -0.288252
O6    O     O_R   0.083770 0.911170 0.376030 -0.469117
O7    O     O_R   0.808770 0.880340 0.383890 -0.482027
O8    O     O_R   0.584340 0.689460 0.394160 -0.482638
O9    O     O_R   0.614320 0.443940 0.423590 -0.464690
O10   O     O_R   0.805020 0.410040 0.421340 -0.511575
O11   O     O_R   0.049240 0.685450 0.403290 -0.515158
O12   O     O_R   0.275160 0.783810 0.101120 -0.495881
O13   O     O_R   0.077520 0.903010 0.551800 -0.505814
O14   O     O_R   0.802980 0.872780 0.546830 -0.457226
O15   O     O_R   0.578090 0.681300 0.569920 -0.442611
O16   O     O_R   0.608530 0.436370 0.586530 -0.470959
O17   O     O_R   0.798770 0.401880 0.597100 -0.404516
O18   O     O_R   0.043450 0.677890 0.566230 -0.447828
O19   O     O_3   0.821250 0.666180 0.485090 -0.360145
O20   O     O_R   0.237900 0.972600 0.090980 -0.508115
O21   O     O_R   0.511190 0.220540 0.061620 -0.500316
O22   O     O_R   0.736920 0.257720 0.063840 -0.515657
O23   O     O_R   0.710450 0.984050 0.081720 -0.499290
O24   O     O_R   0.524090 0.765520 0.933110 -0.452490
O25   O     O_R   0.277300 0.791600 0.938160 -0.503215
O26   O     O_R   0.240210 0.981010 0.915190 -0.500845
H4    H     H_    0.415836 0.247352 0.185130 0.167498
F1    F     F_    0.060031 0.555160 0.704569 -0.567751
H5    H     H_    0.106518 0.609434 0.846374 0.168169
F2    F     F_    0.409844 0.270407 0.332844 -0.605533
F3    F     F_    0.563597 0.591009 0.864393 -0.574278
F4    F     F_    0.526096 0.559881 0.713699 -0.572877
F5    F     F_    0.818620 0.081730 0.623331 -0.542452
F6    F     F_    0.834227 0.114960 0.776753 -0.530017
H6    H     H_    0.294250 0.077196 0.771822 0.184612

loop_
_geom_bond_atom_site_label_1
_geom_bond_atom_site_label_2
_ccdc_geom_bond_type
Cr1   O24   S    
C19   H1    S    
Cr3   O23   S    
C35   C36   A    
Cr5   O16   S    
C26   O10   A    
C7    C8    T    
C20   C30   S    
C35   F2    S    
C18   C24   A    
C25   O8    A    
C34   C35   A    
C11   F3    S    
C5    C6    T    
C15   F5    S    
C33   O4    A    
C15   C16   A    
C21   F1    S    
C18   C19   A    
C9    C32   S    
Cr6   O11   S    
C29   O17   A    
C31   O25   A    
C19   C20   A    
C2    H2    S    
C16   C17   A    
C1    O20   A    
C13   C14   A    
C4    C12   S    
C9    C10   T    
Cr6   O17   S    
C33   O24   A    
C31   O26   A    
Cr4   O14   S    
C21   C22   A    
C32   O3    A    
C17   C33   S    
C26   O9    A    
C27   O6    A    
C13   F4    S    
C28   O15   A    
C12   O22   A    
C29   O16   A    
Cr4   O13   S    
Cr2   O21   S    
C27   O11   A    
Cr4   O7    S    
C12   O21   A    
C3    H3    S    
C23   O23   A    
C1    O12   A    
Cr6   O10   S    
C5    C23   S    
Cr2   O20   S    
Cr5   O8    S    
Cr2   O2    S    
C26   C36   S    
Cr3   O4    S    
C32   O2    A    
C22   C24   A    
C22   H5    S    
C3    C4    A    
Cr6   O19   S    
C28   O14   A    
C2    C36   A    
Cr2   O26   S    
C11   C17   A    
C1    C7    S    
Cr3   O22   S    
Cr5   O15   S    
Cr2   O5    S    
Cr4   O6    S    
Cr4   O19   S    
C16   F6    S    
Cr1   O25   S    
C2    C3    A    
C24   C31   S    
Cr1   O5    S    
C11   C13   A    
C10   C29   S    
C30   O13   A    
C4    C34   A    
Cr5   O9    S    
C25   O7    A    
C34   H4    S    
C6    C25   S    
Cr3   O5    S    
C20   C21   A    
C18   H6    S    
C23   O1    A    
C8    C27   S    
C14   C15   A    
Cr5   O19   S    
C14   C28   S    
Cr1   O1    S    
C30   O18   A    
Cr6   O18   S    
Cr1   O12   S    
Cr3   O3    S    
