data_mof_unit_1832.cif
_audit_creation_date              2012-12-11T15:50:38-0500
_audit_creation_method            fapswitch 2.2
_symmetry_space_group_name_H-M    P1
_symmetry_Int_Tables_number       1
_space_group_crystal_system       monoclinic
_cell_length_a                    6.919403
_cell_length_b                    14.558608
_cell_length_c                    16.10248
_cell_angle_alpha                 90.0
_cell_angle_beta                  89.999929
_cell_angle_gamma                 90.0
_cell_volume                      1622.11352897

loop_
_atom_site_label
_atom_site_type_symbol
_atom_type_description
_atom_site_fract_x
_atom_site_fract_y
_atom_site_fract_z
_atom_type_partial_charge
O1    O     O_R   0.638140 0.833910 0.163320 -0.532770
O2    O     O_R   0.361860 0.166090 0.836680 -0.532898
O3    O     O_R   0.361860 0.166090 0.663320 -0.532770
O4    O     O_R   0.638140 0.833910 0.336680 -0.532898
O5    O     O_R   0.138140 0.666090 0.336680 -0.532770
O6    O     O_R   0.861860 0.333910 0.663320 -0.532898
O7    O     O_R   0.861860 0.333910 0.836680 -0.532770
O8    O     O_R   0.138140 0.666090 0.163320 -0.532898
O9    O     O_R   0.308390 0.844930 0.336080 -0.518603
O10   O     O_R   0.691610 0.155070 0.663920 -0.556589
O11   O     O_R   0.691610 0.155070 0.836080 -0.518604
O12   O     O_R   0.308390 0.844930 0.163920 -0.556589
O13   O     O_R   0.808390 0.655070 0.163920 -0.518604
O14   O     O_R   0.191610 0.344930 0.836080 -0.556589
O15   O     O_R   0.191610 0.344930 0.663920 -0.518603
O16   O     O_R   0.808390 0.655070 0.336080 -0.556589
C1    C     C_R   0.476754 0.868441 0.364016 0.685613
C2    C     C_R   0.522801 0.130721 0.636828 0.670917
C3    C     C_R   0.523246 0.131559 0.864016 0.685613
C4    C     C_R   0.477199 0.869279 0.136828 0.670917
C5    C     C_R   0.976754 0.631559 0.135984 0.685613
C6    C     C_R   0.022800 0.369279 0.863171 0.670916
C7    C     C_R   0.023246 0.368441 0.635984 0.685614
C8    C     C_R   0.977199 0.630721 0.363171 0.670917
O17   O     O_3   0.471620 0.691320 0.250000 -0.353731
O18   O     O_3   0.528380 0.308680 0.750000 -0.353731
O19   O     O_3   0.971620 0.808680 0.250000 -0.353731
O20   O     O_3   0.028380 0.191320 0.750000 -0.353731
V1    V     V_3+5 0.196770 0.760880 0.250000 1.528461
V2    V     V_3+5 0.803230 0.239120 0.750000 1.528461
V3    V     V_3+5 0.696770 0.739120 0.250000 1.528461
V4    V     V_3+5 0.303230 0.260880 0.750000 1.528461
C9    C     C_R   0.849014 0.489624 0.440462 -0.018222
C10   C     C_R   0.154673 0.506850 0.555760 0.022139
C11   C     C_R   0.150986 0.510376 0.940461 -0.018222
C12   C     C_R   0.845327 0.493150 0.055760 0.022139
C13   C     C_R   0.349014 0.010376 0.059538 -0.018222
C14   C     C_R   0.654673 0.993150 0.944240 0.022139
C15   C     C_R   0.650986 0.989623 0.559538 -0.018222
C16   C     C_R   0.345327 0.006850 0.444240 0.022140
C17   C     C_R   0.863377 0.429701 0.508897 -0.085372
C18   C     C_R   0.137133 0.568448 0.489298 -0.144566
C19   C     C_R   0.136623 0.570299 0.008897 -0.085371
C20   C     C_R   0.862866 0.431552 0.989298 -0.144566
C21   C     C_R   0.363377 0.070299 0.991103 -0.085372
C22   C     C_R   0.637134 0.931552 0.010702 -0.144566
C23   C     C_R   0.636622 0.929701 0.491103 -0.085372
C24   C     C_R   0.362867 0.068448 0.510702 -0.144567
H1    H     H_    0.758751 0.374778 0.515627 0.171958
H2    H     H_    0.242351 0.623298 0.483254 0.120297
H3    H     H_    0.241249 0.625222 0.015627 0.171958
H4    H     H_    0.757649 0.376702 0.983254 0.120298
H5    H     H_    0.258750 0.125222 0.984373 0.171958
H6    H     H_    0.742351 0.876702 0.016746 0.120298
H7    H     H_    0.741249 0.874778 0.484373 0.171958
H8    H     H_    0.257649 0.123298 0.516746 0.120297
C25   C     C_R   0.015113 0.436365 0.566632 -0.124258
C26   C     C_R   0.986991 0.561142 0.430988 -0.134909
C27   C     C_R   0.984887 0.563635 0.066633 -0.124259
C28   C     C_R   0.013009 0.438858 0.930988 -0.134909
C29   C     C_R   0.515113 0.063635 0.933367 -0.124258
C30   C     C_R   0.486991 0.938858 0.069012 -0.134909
C31   C     C_R   0.484887 0.936365 0.433367 -0.124258
C32   C     C_R   0.513009 0.061142 0.569011 -0.134909
C33   C     C_2   0.695580 0.472293 0.377791 0.378307
H9    H     H_    0.709560 0.497812 0.314867 0.053742
O21   O     O_2   0.552007 0.427546 0.395440 -0.523819
C34   C     C_2   0.316121 0.522640 0.613973 0.367419
H10   H     H_    0.322429 0.586196 0.649056 0.031075
O22   O     O_2   0.449582 0.468114 0.618796 -0.504191
C35   C     C_2   0.304420 0.527707 0.877791 0.378307
H11   H     H_    0.290440 0.502188 0.814867 0.053742
O23   O     O_2   0.447993 0.572454 0.895439 -0.523819
C36   C     C_2   0.683879 0.477360 0.113974 0.367420
H12   H     H_    0.677573 0.413805 0.149057 0.031074
O24   O     O_2   0.550417 0.531886 0.118796 -0.504190
C37   C     C_2   0.195580 0.027706 0.122209 0.378307
H13   H     H_    0.209560 0.002188 0.185133 0.053742
O25   O     O_2   0.052007 0.072454 0.104561 -0.523819
C38   C     C_2   0.816121 0.977360 0.886026 0.367420
H14   H     H_    0.822428 0.913804 0.850943 0.031074
O26   O     O_2   0.949583 0.031886 0.881204 -0.504191
C39   C     C_2   0.804420 0.972293 0.622209 0.378307
H15   H     H_    0.790440 0.997812 0.685133 0.053742
O27   O     O_2   0.947992 0.927546 0.604560 -0.523819
C40   C     C_2   0.183879 0.022640 0.386026 0.367418
H16   H     H_    0.177571 0.086196 0.350944 0.031075
O28   O     O_2   0.050418 0.968114 0.381204 -0.504190

loop_
_geom_bond_atom_site_label_1
_geom_bond_atom_site_label_2
_ccdc_geom_bond_type
O17   V3    S    
O18   V4    S    
C9    C26   A    
O12   V1    S    
O19   V1    S    
C10   C18   A    
C12   C27   A    
C2    C32   S    
C18   C26   A    
C13   C30   A    
C9    C33   S    
O15   V4    S    
C37   H13   S    
O16   V3    S    
C15   C32   A    
O11   C3    A    
C16   C31   A    
C36   O24   D    
C22   C30   A    
O8    V1    S    
O2    V4    S    
O10   C2    A    
C5    C27   S    
C6    C28   S    
C3    C29   S    
C40   O28   D    
C24   C32   A    
O1    V3    S    
O3    C2    A    
C7    C25   S    
C16   C40   S    
C16   C24   A    
O11   V2    S    
C34   H10   S    
C33   O21   D    
C10   C25   A    
C11   C19   A    
O9    V1    S    
C14   C29   A    
C20   H4    S    
O15   C7    A    
C11   C35   S    
O16   C8    A    
O7    V2    S    
C22   H6    S    
C17   H1    S    
O5    V1    S    
C37   O25   D    
O17   V1    S    
C36   H12   S    
O19   V3    S    
O20   V4    S    
C38   O26   D    
C10   C34   S    
C35   O23   D    
C40   H16   S    
C15   C23   A    
C13   C37   S    
C21   H5    S    
C11   C28   A    
O10   V2    S    
C39   H15   S    
O12   C4    A    
O8    C5    A    
O13   C5    A    
C12   C36   S    
C18   H2    S    
O4    C1    A    
O9    C1    A    
O6    V2    S    
O18   V2    S    
C12   C20   A    
C13   C21   A    
C23   H7    S    
C24   H8    S    
O1    C4    A    
C39   O27   D    
O2    C3    A    
O13   V3    S    
O14   V4    S    
C38   H14   S    
C19   C27   A    
O7    C6    A    
C9    C17   A    
O14   C6    A    
O20   V2    S    
C15   C39   S    
C35   H11   S    
C1    C31   S    
C23   C31   A    
C19   H3    S    
O5    C8    A    
C14   C38   S    
C20   C28   A    
O6    C7    A    
C21   C29   A    
C4    C30   S    
O3    V4    S    
C14   C22   A    
O4    V3    S    
C17   C25   A    
C8    C26   S    
C33   H9    S    
C34   O22   D    
