data_mof_unit_4348.cif
_audit_creation_date              2013-03-05T16:55:20-0500
_audit_creation_method            fapswitch 2.2
_symmetry_space_group_name_H-M    P1
_symmetry_Int_Tables_number       1
_space_group_crystal_system       triclinic
_cell_length_a                    17.582151
_cell_length_b                    16.735781
_cell_length_c                    14.964418
_cell_angle_alpha                 90.300817
_cell_angle_beta                  90.263615
_cell_angle_gamma                 90.037851
_cell_volume                      4403.18706327

loop_
_atom_site_label
_atom_site_type_symbol
_atom_site_description
_atom_site_fract_x
_atom_site_fract_y
_atom_site_fract_z
_atom_type_partial_charge
O1    O     O_R   0.389110 0.566570 0.500000 -0.580432
O2    O     O_R   0.610890 0.433430 0.500000 -0.613363
O3    O     O_R   0.610890 0.566570 0.500000 -0.607641
O4    O     O_R   0.389110 0.433430 0.500000 -0.574111
C1    C     C_R   0.352997 0.499993 0.497888 0.927551
C2    C     C_R   0.646740 0.500000 0.498280 0.990426
O5    O     O_R   0.499980 0.566550 0.367850 -0.608038
O6    O     O_R   0.500020 0.433450 0.632150 -0.627189
O7    O     O_R   0.500020 0.566550 0.632150 -0.630035
O8    O     O_R   0.499980 0.433450 0.367850 -0.642138
C3    C     C_R   0.497754 0.499878 0.326867 0.896613
C4    C     C_R   0.502219 0.500291 0.673296 0.868423
Zn1   Zn    Zn3+2 0.500000 0.588860 0.500000 0.950743
Zn2   Zn    Zn3+2 0.500000 0.411140 0.500000 0.943651
C5    C     C_R   0.569090 0.464644 0.814147 0.113918
C6    C     C_R   0.439017 0.544470 0.185703 0.147088
C7    C     C_R   0.508347 0.501762 0.768638 -0.080628
C8    C     C_R   0.494474 0.500116 0.231703 -0.090076
C9    C     C_R   0.452763 0.544679 0.812782 -0.248552
C10   C     C_R   0.551555 0.459038 0.188201 -0.227009
C11   C     C_R   0.452429 0.548798 0.904702 -0.019304
C12   C     C_R   0.556820 0.461481 0.096309 -0.017905
C13   C     C_R   0.508764 0.507517 0.953685 -0.093478
C14   C     C_R   0.504063 0.507277 0.047284 -0.099332
C15   C     C_R   0.568888 0.465897 0.909106 -0.024967
C16   C     C_R   0.445864 0.551509 0.091881 -0.042936
C17   C     C_R   0.396031 0.593642 0.947876 0.344587
C18   C     C_R   0.615316 0.419575 0.053684 0.336223
C19   C     C_R   0.396645 0.600435 0.040704 0.344274
C20   C     C_R   0.625449 0.426810 0.961518 0.339845
H1    H     H_    0.408842 0.574418 0.774140 0.177872
H2    H     H_    0.593139 0.426303 0.227418 0.191574
C21   C     C_R   0.840911 0.549329 0.411030 0.075130
C22   C     C_R   0.153454 0.431391 0.444522 0.074490
C23   C     C_R   0.150331 0.572891 0.488977 0.080383
C24   C     C_R   0.852723 0.446795 0.527215 0.080039
C25   C     C_R   0.762640 0.554369 0.427849 0.389717
C26   C     C_R   0.232715 0.431366 0.453686 0.402869
C27   C     C_R   0.228692 0.570827 0.505506 0.404788
C28   C     C_R   0.773341 0.443230 0.533533 0.378279
C29   C     C_R   0.728954 0.499876 0.487543 -0.354134
C30   C     C_R   0.270176 0.500264 0.487077 -0.383419
C31   C     C_R   0.885377 0.498040 0.463754 -0.027102
C32   C     C_R   0.113420 0.502581 0.460765 -0.033291
C33   C     C_1   0.965593 0.500379 0.456200 0.023710
C34   C     C_1   0.032994 0.501867 0.455271 0.025367
C35   C     C_R   0.451015 0.831520 0.441941 0.090129
C36   C     C_R   0.453171 0.167987 0.558852 0.087668
C37   C     C_R   0.549158 0.832496 0.556777 0.097370
C38   C     C_R   0.546861 0.167908 0.440047 0.099728
C39   C     C_R   0.452283 0.747143 0.443944 -0.004083
C40   C     C_R   0.454466 0.252397 0.557651 0.004414
C41   C     C_R   0.547584 0.748097 0.555855 -0.046448
C42   C     C_R   0.545305 0.252305 0.441730 -0.055954
H3    H     H_    0.415017 0.712928 0.400504 0.156371
H4    H     H_    0.418847 0.286248 0.602867 0.152273
H5    H     H_    0.584794 0.714632 0.599633 0.141433
H6    H     H_    0.580627 0.286084 0.396468 0.141206
N1    N     N_R   0.500000 0.707230 0.500000 -0.136232
N2    N     N_R   0.500000 0.292770 0.500000 -0.133561
C43   C     C_R   0.500136 0.875402 0.499134 0.106797
C44   C     C_R   0.500053 0.124556 0.499289 0.108459
C45   C     C_1   0.500125 0.963472 0.498920 -0.013218
C46   C     C_1   0.500118 0.036480 0.499003 -0.012590
C47   C     C_3   0.633165 0.426520 0.761090 -0.729774
H7    H     H_    0.636156 0.361495 0.774797 0.268771
H8    H     H_    0.627686 0.432889 0.688137 0.249341
H9    H     H_    0.687530 0.456745 0.777049 0.245840
C48   C     C_3   0.370926 0.577617 0.236253 -0.809992
H10   H     H_    0.317280 0.561008 0.201416 0.253426
H11   H     H_    0.365055 0.553118 0.304408 0.191631
H12   H     H_    0.375919 0.643334 0.243467 0.258253
O9    O     O_3   0.342759 0.636555 0.899425 -0.614839
C49   C     C_3   0.273745 0.593073 0.896212 0.133192
H13   H     H_    0.262238 0.558599 0.958427 0.146167
H14   H     H_    0.275015 0.550657 0.838787 0.114356
C50   C     C_3   0.207911 0.650885 0.883363 -0.824760
H15   H     H_    0.215624 0.685963 0.821408 0.242451
H16   H     H_    0.153627 0.617168 0.878362 0.198090
H17   H     H_    0.204856 0.692615 0.941212 0.270873
O10   O     O_3   0.666374 0.374654 0.103078 -0.612349
C51   C     C_3   0.640888 0.294677 0.104200 0.127603
H18   H     H_    0.640877 0.268516 0.035593 0.171580
H19   H     H_    0.582584 0.290299 0.132770 0.125351
C52   C     C_3   0.694327 0.245780 0.162366 -0.844013
H20   H     H_    0.695261 0.270442 0.231435 0.245381
H21   H     H_    0.674692 0.182737 0.164394 0.206414
H22   H     H_    0.752791 0.247546 0.134631 0.263916
O11   O     O_3   0.346510 0.653659 0.079709 -0.597554
C53   C     C_3   0.380772 0.730033 0.081880 0.136151
H23   H     H_    0.394336 0.751121 0.013271 0.170033
H24   H     H_    0.433886 0.729247 0.122824 0.125754
C54   C     C_3   0.325853 0.789385 0.123793 -0.836851
H25   H     H_    0.310713 0.770120 0.192333 0.249781
H26   H     H_    0.352707 0.849391 0.127516 0.206425
H27   H     H_    0.273216 0.793209 0.082717 0.261339
O12   O     O_3   0.687439 0.388899 0.923554 -0.608181
C55   C     C_3   0.753578 0.435187 0.939499 0.135689
H28   H     H_    0.767871 0.437951 0.011902 0.190671
H29   H     H_    0.746406 0.497271 0.914200 0.115102
C56   C     C_3   0.820425 0.396947 0.891254 -0.841655
H30   H     H_    0.809045 0.393925 0.818254 0.263801
H31   H     H_    0.872656 0.432899 0.903025 0.204382
H32   H     H_    0.829908 0.335515 0.916715 0.261991
C57   C     C_3   0.877278 0.597935 0.337568 -0.862291
H33   H     H_    0.835019 0.629707 0.295559 0.267937
H34   H     H_    0.916771 0.642657 0.367293 0.223561
H35   H     H_    0.909732 0.557757 0.292425 0.239181
C58   C     C_3   0.111331 0.355880 0.417684 -0.855706
H36   H     H_    0.149319 0.303515 0.409557 0.269522
H37   H     H_    0.069184 0.340472 0.469877 0.234099
H38   H     H_    0.081103 0.365551 0.353334 0.226076
C59   C     C_3   0.105561 0.649262 0.502892 -0.856944
H39   H     H_    0.141916 0.701089 0.520984 0.269791
H40   H     H_    0.074841 0.664700 0.440312 0.235170
H41   H     H_    0.063580 0.640725 0.557229 0.223833
C60   C     C_3   0.902635 0.397231 0.588387 -0.874525
H42   H     H_    0.869834 0.365161 0.640208 0.266286
H43   H     H_    0.934712 0.352662 0.548344 0.226139
H44   H     H_    0.943530 0.436707 0.624234 0.236698
O13   O     O_3   0.717463 0.606373 0.379229 -0.587526
C61   C     C_3   0.721969 0.683376 0.418394 0.130740
H45   H     H_    0.780908 0.707482 0.416225 0.131601
H46   H     H_    0.703139 0.682571 0.489314 0.143264
C62   C     C_3   0.670498 0.739896 0.366747 -0.799260
H47   H     H_    0.611446 0.716404 0.365332 0.273746
H48   H     H_    0.670592 0.799729 0.399203 0.201128
H49   H     H_    0.691071 0.745845 0.297043 0.242841
O14   O     O_3   0.273243 0.362777 0.433173 -0.580256
C63   C     C_3   0.293248 0.364887 0.341838 0.123600
H50   H     H_    0.328931 0.418033 0.327006 0.130541
H51   H     H_    0.241684 0.365878 0.298337 0.131715
C64   C     C_3   0.339143 0.290661 0.318896 -0.787790
H52   H     H_    0.304984 0.236171 0.332074 0.244617
H53   H     H_    0.355052 0.291638 0.247182 0.194955
H54   H     H_    0.391819 0.288931 0.359949 0.271232
O15   O     O_3   0.265507 0.639613 0.534017 -0.581872
C65   C     C_3   0.271454 0.638691 0.628173 0.117225
H55   H     H_    0.296589 0.581783 0.653030 0.114935
H56   H     H_    0.214455 0.647135 0.658802 0.135303
C66   C     C_3   0.323086 0.706886 0.658016 -0.787213
H57   H     H_    0.299050 0.764926 0.635985 0.245579
H58   H     H_    0.328730 0.707379 0.731847 0.235065
H59   H     H_    0.380500 0.699241 0.628658 0.273023
O16   O     O_3   0.739056 0.389313 0.590501 -0.616857
C67   C     C_3   0.734850 0.313878 0.547644 0.136567
H60   H     H_    0.792446 0.288045 0.537541 0.139953
H61   H     H_    0.705948 0.317922 0.481427 0.144823
C68   C     C_3   0.689689 0.256971 0.605957 -0.822654
H62   H     H_    0.631575 0.280863 0.617038 0.267528
H63   H     H_    0.685210 0.197662 0.572709 0.209508
H64   H     H_    0.718555 0.249757 0.671590 0.251676
C69   C     C_3   0.397529 0.873475 0.378947 -0.916703
H65   H     H_    0.362965 0.830352 0.339333 0.236411
H66   H     H_    0.358157 0.912224 0.417498 0.252529
H67   H     H_    0.430523 0.910838 0.331811 0.244271
C70   C     C_3   0.401986 0.125455 0.623465 -0.913028
H68   H     H_    0.369171 0.168191 0.665211 0.236806
H69   H     H_    0.361001 0.087273 0.586050 0.251350
H70   H     H_    0.436624 0.087399 0.668554 0.245959
C71   C     C_3   0.603137 0.875555 0.618798 -0.934965
H71   H     H_    0.637477 0.833156 0.659121 0.234166
H72   H     H_    0.642704 0.913039 0.579349 0.245237
H73   H     H_    0.570573 0.914347 0.665303 0.252967
C72   C     C_3   0.598502 0.125334 0.375571 -0.946236
H74   H     H_    0.631713 0.168061 0.334808 0.235290
H75   H     H_    0.639194 0.087260 0.413042 0.247521
H76   H     H_    0.564222 0.087239 0.329659 0.251831

loop_
_geom_bond_atom_site_label_1
_geom_bond_atom_site_label_2
_geom_bond_distance
_ccdc_geom_bond_type
C1    C30   1.464406 S    
C27   O15   1.384760 S    
C3    C8    1.425013 S    
C54   H25   1.110257 S    
C17   C19   1.393162 A    
C60   H42   1.109084 S    
O9    C49   1.414975 S    
C57   H33   1.108918 S    
C63   H51   1.113859 S    
C65   H55   1.115125 S    
O3    C2    1.280610 A    
C9    H1    1.085293 S    
C19   O11   1.382555 S    
O16   C67   1.414756 S    
C41   N1    1.361308 A    
C42   N2    1.361760 A    
C50   H15   1.108753 S    
O5    C3    1.270910 A    
C57   H34   1.110487 S    
C20   O12   1.384224 S    
C72   H74   1.109827 S    
C49   H14   1.112041 S    
C28   O16   1.384352 S    
O1    C1    1.282243 A    
C9    C11   1.376943 A    
C14   C16   1.429168 A    
C59   H39   1.108795 S    
C66   H58   1.108825 S    
C42   H6    1.082338 S    
C50   H17   1.110927 S    
C5    C47   1.520032 S    
C43   C45   1.473932 S    
C48   H11   1.106457 S    
O7    Zn1   2.014411 S    
C54   H26   1.110454 S    
C44   C46   1.473997 S    
C40   N2    1.361435 A    
C58   H37   1.110325 S    
C53   H24   1.114677 S    
C70   H68   1.110792 S    
C47   H8    1.101242 S    
C2    C29   1.455133 S    
C4    C7    1.430385 S    
C62   H49   1.110529 S    
C13   C14   1.403497 A    
C69   H66   1.110358 S    
C37   C71   1.505118 S    
O3    Zn1   1.985293 S    
C59   H41   1.110413 S    
C52   H21   1.110498 S    
C11   C17   1.402048 A    
C70   H69   1.110414 S    
C12   C18   1.399572 A    
C25   C29   1.411780 A    
C68   H63   1.110544 S    
O2    C2    1.280125 A    
C71   H72   1.110435 S    
C32   C34   1.416120 S    
O12   C55   1.415476 S    
C27   C30   1.414998 A    
C67   H61   1.113917 S    
C50   H16   1.110464 S    
C6    C16   1.415222 A    
C57   H35   1.110587 S    
C37   C43   1.415293 A    
C49   H13   1.117044 S    
C67   H60   1.112006 S    
C21   C31   1.404570 A    
C56   H30   1.110554 S    
C24   C28   1.400601 A    
C22   C32   1.404865 A    
O8    Zn2   2.014411 S    
C66   H59   1.109969 S    
O11   C53   1.412812 S    
C41   H5    1.082243 S    
C35   C39   1.412784 A    
C35   C69   1.505202 S    
C39   H3    1.082328 S    
C52   H20   1.110971 S    
C49   C50   1.521283 S    
C21   C25   1.402652 A    
C58   H38   1.110391 S    
C48   H12   1.107932 S    
C23   C27   1.399142 A    
C26   O14   1.385293 S    
C23   C32   1.405440 A    
C64   H54   1.109508 S    
C67   C68   1.520891 S    
C36   C70   1.505264 S    
C36   C44   1.415260 A    
C36   C40   1.413057 A    
O6    C4    1.274538 A    
C47   H9    1.105679 S    
C38   C72   1.504890 S    
O10   C51   1.411429 S    
C21   C57   1.514669 S    
C38   C42   1.412814 A    
C69   H67   1.110395 S    
C24   C60   1.515808 S    
C31   C33   1.415951 S    
O13   C61   1.414919 S    
C65   H56   1.112705 S    
C25   O13   1.385644 S    
C68   H64   1.110636 S    
C6    C8    1.405591 A    
C28   C29   1.408661 A    
C10   C12   1.379467 A    
C55   H28   1.111818 S    
C54   H27   1.110706 S    
C51   H19   1.115014 S    
C11   C13   1.412512 A    
C62   H47   1.110026 S    
C38   C44   1.415035 A    
C12   C14   1.409465 A    
C60   H44   1.110546 S    
C63   C64   1.520384 S    
O1    Zn1   1.984811 S    
C61   H46   1.113322 S    
C55   C56   1.521879 S    
C71   H73   1.110407 S    
C53   C54   1.520753 S    
C62   H48   1.110631 S    
O14   C63   1.413481 S    
C10   H2    1.085840 S    
C52   H22   1.110757 S    
C15   C20   1.425156 A    
C5    C7    1.410290 A    
O6    Zn2   2.010558 S    
C18   O10   1.384929 S    
C22   C26   1.399678 A    
C6    C48   1.522513 S    
O4    C1    1.283046 A    
C65   C66   1.521731 S    
C35   C43   1.415444 A    
C17   O9    1.385233 S    
C26   C30   1.415261 A    
C72   H76   1.110340 S    
Zn1   N1    1.981014 S    
C70   H70   1.110425 S    
C51   C52   1.520228 S    
Zn2   N2    1.981014 S    
O15   C65   1.412537 S    
C55   H29   1.114747 S    
C56   H31   1.110443 S    
C61   C62   1.520985 S    
C60   H43   1.110167 S    
C63   H50   1.112029 S    
C69   H65   1.110500 S    
C47   H7    1.109710 S    
C71   H71   1.110791 S    
C66   H57   1.110602 S    
C53   H23   1.114214 S    
C64   H52   1.110608 S    
C37   C41   1.412738 A    
C18   C20   1.397353 A    
C7    C9    1.381740 A    
C23   C59   1.515454 S    
C8    C10   1.380534 A    
C13   C15   1.431878 A    
O4    Zn2   1.985295 S    
C48   H10   1.110091 S    
O2    Zn2   1.984809 S    
O7    C4    1.271725 A    
C5    C15   1.421079 A    
O8    C3    1.273017 A    
C45   C46   1.221845 T    
C33   C34   1.185433 T    
O5    Zn1   2.010558 S    
C39   N1    1.361572 A    
C16   C19   1.416779 A    
C72   H75   1.110398 S    
C51   H18   1.113993 S    
C58   H36   1.108759 S    
C64   H53   1.110458 S    
C22   C58   1.515753 S    
C24   C31   1.407098 A    
C56   H32   1.110728 S    
C61   H45   1.112473 S    
C68   H62   1.110313 S    
C40   H4    1.082268 S    
C59   H40   1.110650 S    
