data_mof_unit_1297.cif
_audit_creation_date              2012-12-10T16:47:17-0500
_audit_creation_method            fapswitch 2.2
_symmetry_space_group_name_H-M    P1
_symmetry_Int_Tables_number       1
_space_group_crystal_system       monoclinic
_cell_length_a                    12.019308
_cell_length_b                    12.196034
_cell_length_c                    7.864898
_cell_angle_alpha                 90.0
_cell_angle_beta                  94.699357
_cell_angle_gamma                 90.0
_cell_volume                      1149.0231026

loop_
_atom_site_label
_atom_site_type_symbol
_atom_type_description
_atom_site_fract_x
_atom_site_fract_y
_atom_site_fract_z
_atom_type_partial_charge
C1    C     C_R   0.354791 0.850927 0.455453 0.953947
C2    C     C_2   0.725861 0.768079 0.567978 -0.350521
C3    C     C_2   0.725861 0.231921 0.567978 -0.350521
C4    C     C_2   0.274139 0.768079 0.432022 -0.350521
C5    C     C_2   0.774139 0.731921 0.432022 -0.350521
C6    C     C_2   0.225861 0.268079 0.567978 -0.350521
C7    C     C_2   0.225861 0.731921 0.567978 -0.350521
C8    C     C_2   0.774139 0.268079 0.432022 -0.350521
C9    C     C_R   0.645209 0.149073 0.544547 0.953946
C10   C     C_R   0.645209 0.850927 0.544547 0.953946
C11   C     C_R   0.354791 0.149073 0.455453 0.953946
C12   C     C_R   0.854791 0.350927 0.455453 0.953947
C13   C     C_R   0.145209 0.649073 0.544547 0.953946
C14   C     C_R   0.145209 0.350927 0.544547 0.953946
C15   C     C_R   0.854791 0.649073 0.455453 0.953946
C16   C     C_2   0.274139 0.231921 0.432022 -0.350521
H1    H     H_    0.754753 0.762877 0.303263 0.203335
H2    H     H_    0.245248 0.237123 0.696737 0.203335
H3    H     H_    0.245247 0.762877 0.696737 0.203335
H4    H     H_    0.754753 0.237123 0.303263 0.203335
H5    H     H_    0.254752 0.262877 0.303263 0.203335
H6    H     H_    0.745247 0.737123 0.696737 0.203335
H7    H     H_    0.745247 0.262877 0.696737 0.203335
H8    H     H_    0.254753 0.737123 0.303263 0.203335
I1    I     I_    0.705696 0.000000 0.992928 -0.236849
I2    I     I_    0.294304 0.000000 0.007072 -0.236849
I3    I     I_    0.205696 0.500000 0.992928 -0.236849
I4    I     I_    0.794304 0.500000 0.007072 -0.236849
N1    N     N_2   0.541470 0.000000 0.055820 0.023503
N2    N     N_2   0.458530 0.000000 0.944180 0.023503
N3    N     N_2   0.041470 0.500000 0.055820 0.023503
N4    N     N_2   0.958530 0.500000 0.944180 0.023503
O1    O     O_R   0.375700 0.885870 0.609240 -0.608327
O2    O     O_R   0.597720 0.114130 0.675960 -0.606269
O3    O     O_R   0.597720 0.885870 0.675960 -0.606269
O4    O     O_R   0.402280 0.114130 0.324040 -0.606269
O5    O     O_R   0.902280 0.385870 0.324040 -0.606269
O6    O     O_R   0.097720 0.614130 0.675960 -0.606269
O7    O     O_R   0.097720 0.385870 0.675960 -0.606269
O8    O     O_R   0.902280 0.614130 0.324040 -0.606269
O9    O     O_R   0.624300 0.114130 0.390760 -0.608327
O10   O     O_R   0.624300 0.885870 0.390760 -0.608327
O11   O     O_R   0.375700 0.114130 0.609240 -0.608327
O12   O     O_R   0.875700 0.385870 0.609240 -0.608327
O13   O     O_R   0.124300 0.614130 0.390760 -0.608327
O14   O     O_R   0.124300 0.385870 0.390760 -0.608327
O15   O     O_R   0.875700 0.614130 0.609240 -0.608327
O16   O     O_R   0.402280 0.885870 0.324040 -0.606269
Zn1   Zn    Zn3+2 0.482250 0.000000 0.690430 1.029016
Zn2   Zn    Zn3+2 0.517750 0.000000 0.309570 1.029016
Zn3   Zn    Zn3+2 0.982250 0.500000 0.690430 1.029016
Zn4   Zn    Zn3+2 0.017750 0.500000 0.309570 1.029016

loop_
_geom_bond_atom_site_label_1
_geom_bond_atom_site_label_2
_ccdc_geom_bond_type
C2    H6    S    
O7    Zn3   S    
C1    O16   A    
C11   O11   A    
C16   H5    S    
C3    C9    S    
C6    C14   S    
N1    N2    D    
C11   C16   S    
C3    H7    S    
N3    N4    D    
C15   O15   A    
N3    Zn4   S    
C8    C12   S    
C1    C4    S    
O16   Zn2   S    
C1    O1    A    
N4    Zn3   S    
C13   O13   A    
C10   O10   A    
I4    N4    S    
C13   O6    A    
C8    H4    S    
O10   Zn2   S    
C4    C7    D    
C6    H2    S    
O3    Zn1   S    
O12   Zn3   S    
C11   O4    A    
N2    Zn1   S    
I2    N2    S    
C7    H3    S    
N1    Zn2   S    
I3    N3    S    
I1    N1    S    
C9    O2    A    
C4    H8    S    
C10   O3    A    
C15   O8    A    
C5    C15   S    
C2    C5    D    
C5    H1    S    
C6    C16   D    
C2    C10   S    
O14   Zn4   S    
O9    Zn2   S    
C7    C13   S    
O4    Zn2   S    
C12   O12   A    
C3    C8    D    
O1    Zn1   S    
C12   O5    A    
O5    Zn4   S    
O11   Zn1   S    
O2    Zn1   S    
O15   Zn3   S    
O6    Zn3   S    
O13   Zn4   S    
C14   O7    A    
O8    Zn4   S    
C9    O9    A    
C14   O14   A    
