data_mof_unit_60.cif
_audit_creation_date              2012-12-10T20:46:35-0500
_audit_creation_method            fapswitch 2.2
_symmetry_space_group_name_H-M    P1
_symmetry_Int_Tables_number       1
_space_group_crystal_system       triclinic
_cell_length_a                    10.941946
_cell_length_b                    8.936322
_cell_length_c                    8.112662
_cell_angle_alpha                 89.97906
_cell_angle_beta                  104.267669
_cell_angle_gamma                 90.024345
_cell_volume                      768.793891333

loop_
_atom_site_label
_atom_site_type_symbol
_atom_type_description
_atom_site_fract_x
_atom_site_fract_y
_atom_site_fract_z
_atom_type_partial_charge
C1    C     C_R   0.500003 0.217999 0.500017 0.932684
C2    C     C_1   0.499995 0.934813 0.499975 -0.197315
C3    C     C_3   0.840664 0.399571 0.196540 -0.703020
C4    C     C_3   0.159340 0.600420 0.803460 -0.703040
C5    C     C_R   0.499997 0.782001 0.499983 0.932684
C6    C     C_R   0.259299 0.504878 0.429682 0.926598
C7    C     C_R   0.740701 0.495122 0.570318 0.926594
C8    C     C_2   0.124943 0.491338 0.389387 -0.430476
C9    C     C_2   0.875056 0.508663 0.610614 -0.430471
C10   C     C_2   0.062025 0.533340 0.504118 0.218389
C11   C     C_2   0.937975 0.466659 0.495883 0.218392
C12   C     C_1   0.500005 0.065187 0.500025 -0.197315
H1    H     H_    0.915986 0.578657 0.718846 0.166610
H2    H     H_    0.111565 0.665480 0.885878 0.219043
H3    H     H_    0.084014 0.421344 0.281156 0.166610
H4    H     H_    0.835939 0.269667 0.410678 0.222636
H5    H     H_    0.738163 0.376060 0.153685 0.250992
H6    H     H_    0.888434 0.334499 0.114123 0.219040
H7    H     H_    0.856504 0.520960 0.179571 0.236937
H8    H     H_    0.164058 0.730331 0.589327 0.222640
H9    H     H_    0.261836 0.623944 0.846319 0.250992
H10   H     H_    0.143512 0.479032 0.820423 0.236947
N1    N     N_1   0.500020 0.500000 0.073650 -0.051841
N2    N     N_1   0.499980 0.500000 0.926350 -0.051840
N3    N     N_2   0.888285 0.352817 0.372179 -0.311350
N4    N     N_2   0.111715 0.647178 0.627825 -0.311354
O1    O     O_R   0.499990 0.285340 0.636850 -0.613039
O2    O     O_R   0.500010 0.714660 0.363150 -0.613039
O3    O     O_R   0.500010 0.285340 0.363150 -0.619151
O4    O     O_R   0.499990 0.714660 0.636850 -0.619150
O5    O     O_R   0.317810 0.500000 0.585760 -0.595897
O6    O     O_R   0.682190 0.500000 0.414240 -0.595900
O7    O     O_R   0.317820 0.500000 0.312020 -0.620489
O8    O     O_R   0.682180 0.500000 0.687980 -0.620489
Zn1   Zn    Zn3+2 0.499990 0.500000 0.682780 0.968695
Zn2   Zn    Zn3+2 0.500010 0.500000 0.317220 0.968694

loop_
_geom_bond_atom_site_label_1
_geom_bond_atom_site_label_2
_ccdc_geom_bond_type
C4    N4    S    
N1    N2    T    
C3    H7    S    
N1    Zn2   S    
C5    O2    A    
C4    H10   S    
C6    O7    A    
C2    C12   T    
C10   N4    S    
C1    O3    A    
C6    O5    A    
C4    H9    S    
C9    C11   D    
O3    Zn2   S    
C1    C12   S    
H8    N4    S    
O4    Zn1   S    
O6    Zn2   S    
C3    H5    S    
C8    H3    S    
C4    H2    S    
C7    O8    A    
O5    Zn1   S    
C2    C5    S    
C10   C11   S    
C11   N3    S    
N2    Zn1   S    
C7    C9    S    
C3    N3    S    
O7    Zn2   S    
O2    Zn2   S    
C3    H6    S    
C8    C10   D    
O8    Zn1   S    
C5    O4    A    
H4    N3    S    
C1    O1    A    
C9    H1    S    
C6    C8    S    
C7    O6    A    
O1    Zn1   S    
