data_mof_unit_1027.cif
_audit_creation_date              2012-12-10T19:13:39-0500
_audit_creation_method            fapswitch 2.2
_symmetry_space_group_name_H-M    P1
_symmetry_Int_Tables_number       1
_space_group_crystal_system       triclinic
_cell_length_a                    11.029168
_cell_length_b                    15.97939
_cell_length_c                    14.76535
_cell_angle_alpha                 89.448718
_cell_angle_beta                  103.326638
_cell_angle_gamma                 90.040093
_cell_volume                      2532.04229194

loop_
_atom_site_label
_atom_site_type_symbol
_atom_type_description
_atom_site_fract_x
_atom_site_fract_y
_atom_site_fract_z
_atom_type_partial_charge
C1    C     C_R   0.499712 0.340867 0.500259 0.834661
C2    C     C_R   0.500347 0.659174 0.499770 0.799276
C3    C     C_R   0.520996 0.574768 0.955395 0.250857
C4    C     C_R   0.483335 0.422863 0.045556 0.324233
C5    C     C_R   0.498619 0.500299 0.902738 -0.292289
C6    C     C_R   0.503895 0.497563 0.097828 -0.295900
C7    C     C_R   0.476794 0.425161 0.948044 0.325433
C8    C     C_R   0.527401 0.572403 0.052892 0.302057
C9    C     C_1   0.499406 0.499863 0.802527 0.379741
C10   C     C_1   0.501409 0.499040 0.197661 0.383916
C11   C     C_R   0.261475 0.499856 0.461989 0.750335
C12   C     C_R   0.738698 0.501255 0.537943 0.749079
C13   C     C_2   0.125126 0.499793 0.438727 0.216088
C14   C     C_2   0.875250 0.506002 0.560555 0.249535
C15   C     C_2   0.066756 0.526731 0.503551 -0.187745
C16   C     C_2   0.931519 0.523985 0.490907 -0.188938
C17   C     C_R   0.484622 0.955319 0.581391 0.199510
C18   C     C_R   0.515518 0.044772 0.420709 0.282359
C19   C     C_R   0.514354 0.913319 0.505461 -0.235156
C20   C     C_R   0.485801 0.086871 0.496493 -0.214524
C21   C     C_R   0.539223 0.957750 0.428622 0.263004
C22   C     C_R   0.462287 0.042689 0.574036 0.291446
C23   C     C_1   0.509214 0.823312 0.502528 0.223733
C24   C     C_1   0.490785 0.176835 0.498517 0.231357
C25   C     C_1   0.495671 0.251862 0.499974 -0.061444
C26   C     C_1   0.504396 0.748257 0.500282 -0.041047
Cu1   Cu    Cu3+1 0.500030 0.500000 0.589230 1.075928
Cu2   Cu    Cu3+1 0.499970 0.500000 0.410770 1.076238
H1    H     H_    0.876041 0.535090 0.420911 0.198034
H2    H     H_    0.120960 0.549778 0.569514 0.215148
N1    N     N_1   0.500040 0.499980 0.276720 -0.142746
N2    N     N_1   0.499960 0.500020 0.723280 -0.141216
O1    O     O_R   0.500060 0.380310 0.575330 -0.579037
O2    O     O_R   0.499940 0.619690 0.424670 -0.576497
O3    O     O_R   0.500000 0.380310 0.424640 -0.514032
O4    O     O_R   0.500000 0.619690 0.575360 -0.531757
O5    O     O_R   0.320710 0.500010 0.547660 -0.589817
O6    O     O_R   0.679290 0.499990 0.452340 -0.592162
O7    O     O_R   0.320650 0.500010 0.396960 -0.550411
O8    O     O_R   0.679350 0.499990 0.603040 -0.538783
S1    S     S_3+6 0.960751 0.486589 0.676678 0.024934
O9    O     O_2   0.066241 0.427357 0.676010 -0.297643
O10   O     O_2   0.014087 0.567714 0.718920 -0.272090
O11   O     O_3   0.869985 0.444107 0.742278 -0.484511
H3    H     H_    0.841092 0.491768 0.774284 0.377848
S2    S     S_3+6 0.043628 0.459178 0.329771 0.047094
O12   O     O_2   0.947423 0.397174 0.344784 -0.197902
O13   O     O_2   0.978821 0.529612 0.269433 -0.342939
O14   O     O_3   0.141588 0.410595 0.275144 -0.445993
H4    H     H_    0.164359 0.453319 0.232924 0.375098
S3    S     S_3+6 0.397866 0.098154 0.656805 0.058537
O15   O     O_2   0.319042 0.042621 0.702479 -0.156158
O16   O     O_2   0.503249 0.133069 0.729988 -0.289030
O17   O     O_3   0.306382 0.177163 0.604040 -0.523256
H5    H     H_    0.337151 0.227968 0.639980 0.351670
S4    S     S_3+6 0.610606 0.903541 0.348995 0.055555
O18   O     O_2   0.510445 0.865762 0.274058 -0.215478
O19   O     O_2   0.689725 0.960500 0.305128 -0.188678
O20   O     O_3   0.702707 0.826234 0.404623 -0.573867
H6    H     H_    0.768218 0.854910 0.451174 0.359339
S5    S     S_3+6 0.486043 0.898335 0.686825 0.131217
O21   O     O_2   0.356226 0.868607 0.684963 -0.170901
O22   O     O_2   0.570574 0.823383 0.696643 -0.239106
O23   O     O_3   0.536281 0.958087 0.781139 -0.384659
H7    H     H_    0.623535 0.972173 0.780409 0.363913
S6    S     S_3+6 0.513026 0.101280 0.314902 0.117856
O24   O     O_2   0.422783 0.173194 0.303627 -0.259389
O25   O     O_2   0.641217 0.134973 0.318170 -0.193365
O26   O     O_3   0.468351 0.039572 0.221528 -0.422793
H8    H     H_    0.477299 0.074767 0.167857 0.400086
O27   O     O_3   0.552863 0.644578 0.104625 -0.565689
C27   C     C_3   0.682346 0.647910 0.143961 0.071338
H9    H     H_    0.735296 0.652056 0.088261 0.198475
H10   H     H_    0.714224 0.591699 0.188373 0.157282
C28   C     C_3   0.710160 0.725514 0.204645 -0.234248
H11   H     H_    0.681676 0.782405 0.161024 0.284280
H12   H     H_    0.655189 0.722552 0.258874 0.272709
C29   C     C_3   0.848324 0.731603 0.251840 -0.764478
H13   H     H_    0.876189 0.678533 0.301361 0.262014
H14   H     H_    0.866227 0.790932 0.291158 0.293217
H15   H     H_    0.905771 0.731028 0.199160 0.266600
O28   O     O_3   0.452884 0.352145 0.897477 -0.542894
C30   C     C_3   0.324325 0.347770 0.854446 0.092241
H16   H     H_    0.308232 0.377418 0.784241 0.169155
H17   H     H_    0.263790 0.379486 0.894939 0.169798
C31   C     C_3   0.285594 0.255820 0.844415 -0.293874
H18   H     H_    0.350485 0.221050 0.811148 0.281996
H19   H     H_    0.291343 0.228017 0.914536 0.266537
C32   C     C_3   0.153027 0.245762 0.786096 -0.712890
H20   H     H_    0.086370 0.281178 0.817267 0.282339
H21   H     H_    0.126944 0.178553 0.783370 0.278332
H22   H     H_    0.146783 0.268561 0.713905 0.283952
S7    S     S_3+6 0.542290 0.671036 0.899291 0.094019
O29   O     O_2   0.669947 0.671048 0.879511 -0.228116
O30   O     O_2   0.447284 0.679049 0.808489 -0.227207
O31   O     O_3   0.529505 0.754537 0.964986 -0.422467
H23   H     H_    0.439652 0.758200 0.964342 0.385869
S8    S     S_3+6 0.463555 0.325827 0.100831 0.073711
O32   O     O_2   0.502850 0.253862 0.049258 -0.211470
O33   O     O_2   0.539712 0.323686 0.199382 -0.214059
O34   O     O_3   0.312086 0.315346 0.101472 -0.525907
H24   H     H_    0.305080 0.258648 0.127476 0.405580

loop_
_geom_bond_atom_site_label_1
_geom_bond_atom_site_label_2
_ccdc_geom_bond_type
S6    O25   D    
S7    O29   D    
C4    S8    S    
C18   C21   A    
S1    O9    D    
O14   H4    S    
C1    O1    A    
Cu1   O1    S    
S2    O14   S    
O34   H24   S    
C19   C21   A    
C4    C7    A    
C13   S2    S    
C29   H14   S    
S6    O26   S    
C15   C16   S    
S4    O18   D    
S5    O22   D    
C23   C26   T    
C11   O5    A    
C9    N2    T    
C17   S5    S    
S2    O12   D    
C10   N1    T    
C20   C24   S    
Cu2   O3    S    
C32   H21   S    
C18   C20   A    
C2    O2    A    
S6    O24   D    
Cu2   O2    S    
O20   H6    S    
S7    O30   D    
C1    C25   S    
S1    O10   D    
O26   H8    S    
C27   C28   S    
S2    O13   D    
S3    O15   D    
C24   C25   T    
C27   H10   S    
C3    C8    A    
C5    C7    A    
C31   H18   S    
C6    C8    A    
Cu2   O7    S    
C16   H1    S    
C3    S7    S    
S3    O16   D    
C12   O8    A    
S5    O23   S    
C19   C23   S    
C28   H11   S    
C5    C9    S    
C30   H16   S    
Cu2   O6    S    
Cu1   O8    S    
O31   H23   S    
C30   C31   S    
C2    C26   S    
C32   H22   S    
C11   O7    A    
C28   H12   S    
C14   S1    S    
C4    C6    A    
C30   H17   S    
C20   C22   A    
S8    O32   D    
S7    O31   S    
S8    O33   D    
C13   C15   D    
S1    O11   S    
C14   C16   D    
O11   H3    S    
C1    O3    A    
C15   H2    S    
C2    O4    A    
O17   H5    S    
C8    O27   S    
Cu1   N2    S    
C29   H13   S    
Cu2   N1    S    
C12   C14   S    
C27   H9    S    
C3    C5    A    
C31   C32   S    
C6    C10   S    
C21   S4    S    
Cu1   O4    S    
C18   S6    S    
S8    O34   S    
C17   C22   A    
S4    O20   S    
S3    O17   S    
O23   H7    S    
O27   C27   S    
C11   C13   S    
C29   H15   S    
Cu1   O5    S    
C17   C19   A    
S4    O19   D    
C31   H19   S    
C12   O6    A    
S5    O21   D    
C28   C29   S    
C7    O28   S    
O28   C30   S    
Cu1   Cu2   S    
C32   H20   S    
C22   S3    S    
