data_mof_unit_717.cif
_audit_creation_date              2013-03-05T16:07:35-0500
_audit_creation_method            fapswitch 2.2
_symmetry_space_group_name_H-M    P1
_symmetry_Int_Tables_number       1
_space_group_crystal_system       triclinic
_cell_length_a                    21.647565
_cell_length_b                    7.070738
_cell_length_c                    14.864304
_cell_angle_alpha                 89.929258
_cell_angle_beta                  106.195776
_cell_angle_gamma                 89.945016
_cell_volume                      2184.89725316

loop_
_atom_site_label
_atom_site_type_symbol
_atom_site_description
_atom_site_fract_x
_atom_site_fract_y
_atom_site_fract_z
_atom_type_partial_charge
O1    O     O_R   0.585850 0.505770 0.002130 -0.587673
O2    O     O_R   0.414150 0.005770 0.997870 -0.587489
O3    O     O_R   0.467530 0.173560 0.861970 -0.583989
O4    O     O_R   0.532470 0.673560 0.138030 -0.586140
C1    C     C_R   0.455880 0.344638 0.825244 0.945518
C2    C     C_R   0.544300 0.844375 0.174721 0.945726
O5    O     O_R   0.588690 0.175900 0.993250 -0.603372
O6    O     O_R   0.411310 0.675900 0.006750 -0.602987
O7    O     O_R   0.536170 0.007950 0.130090 -0.584758
O8    O     O_R   0.463830 0.507950 0.869910 -0.586337
C3    C     C_R   0.615088 0.344568 0.997982 0.939611
C4    C     C_R   0.384959 0.844743 0.002266 0.938830
O9    O     O_3   0.482630 0.339970 0.044740 -0.278238
O10   O     O_3   0.517370 0.839970 0.955260 -0.278806
V1    V     V_3+5 0.503220 0.064200 0.991700 1.184858
V2    V     V_3+5 0.496780 0.564200 0.008300 1.183551
C5    C     C_R   0.275784 0.999243 0.952426 0.084624
C6    C     C_R   0.724509 0.496434 0.049849 0.089860
C7    C     C_R   0.315887 0.852764 0.999020 -0.167195
C8    C     C_R   0.684257 0.352137 0.001790 -0.174780
C9    C     C_R   0.287091 0.708371 0.038983 -0.164073
C10   C     C_R   0.713079 0.208978 0.961150 -0.161483
H1    H     H_    0.315564 0.590192 0.074315 0.147496
H2    H     H_    0.684593 0.091835 0.925052 0.148914
C11   C     C_R   0.222139 0.721662 0.039465 -0.028237
C12   C     C_R   0.778059 0.222552 0.960849 -0.023033
H3    H     H_    0.202824 0.615418 0.076342 0.185839
H4    H     H_    0.797312 0.117599 0.923218 0.186195
C13   C     C_R   0.183505 0.876487 0.997834 -0.186292
C14   C     C_R   0.816713 0.376354 0.003371 -0.193767
C15   C     C_R   0.211207 0.009689 0.951333 -0.016677
C16   C     C_R   0.789194 0.506821 0.051623 -0.017930
C17   C     C_3   0.214342 0.219623 0.960207 0.936254
C18   C     C_3   0.786515 0.717495 0.046623 0.938065
C19   C     C_3   0.284598 0.208798 0.960107 -0.663238
C20   C     C_3   0.715981 0.706252 0.045334 -0.661916
H5    H     H_    0.318792 0.251698 0.027705 0.219539
H6    H     H_    0.682315 0.753717 0.978061 0.217795
H7    H     H_    0.294627 0.270667 0.896823 0.189844
H8    H     H_    0.705463 0.763470 0.109140 0.190501
C21   C     C_R   0.927039 0.887108 0.723534 -0.101372
C22   C     C_R   0.073605 0.381384 0.275956 -0.102236
C23   C     C_R   0.571846 0.852085 0.276293 -0.149047
C24   C     C_R   0.428612 0.353373 0.723594 -0.148561
C25   C     C_R   0.936844 0.936866 0.567562 -0.158671
C26   C     C_R   0.063271 0.318526 0.430449 -0.159702
C27   C     C_R   0.964973 0.925700 0.663752 -0.140438
C28   C     C_R   0.035150 0.342430 0.334896 -0.139021
C29   C     C_R   0.860764 0.859493 0.687197 -0.236658
C30   C     C_R   0.140330 0.397629 0.312390 -0.228100
C31   C     C_R   0.830545 0.873964 0.589722 0.108475
C32   C     C_R   0.170407 0.372263 0.409268 0.109803
C33   C     C_R   0.870164 0.913683 0.530282 0.141823
C34   C     C_R   0.130287 0.331232 0.467825 0.140474
C35   C     C_R   0.762457 0.856519 0.549759 0.065557
C36   C     C_R   0.238686 0.381316 0.449489 0.066558
C37   C     C_R   0.735295 0.879345 0.451049 0.066836
C38   C     C_R   0.265432 0.349688 0.547623 0.066603
C39   C     C_R   0.777007 0.920855 0.395463 -0.150333
C40   C     C_R   0.223283 0.305118 0.602021 -0.163858
C41   C     C_R   0.842947 0.935600 0.434333 -0.174395
C42   C     C_R   0.157218 0.298167 0.562934 -0.184232
C43   C     C_R   0.720590 0.818061 0.605166 -0.219284
C44   C     C_R   0.281137 0.419964 0.394993 -0.212206
C45   C     C_R   0.654394 0.813792 0.566915 -0.071848
C46   C     C_R   0.347360 0.417027 0.433569 -0.069178
C47   C     C_R   0.626298 0.843773 0.471091 -0.018102
C48   C     C_R   0.374891 0.379791 0.528922 -0.020024
C49   C     C_R   0.667123 0.864279 0.411255 0.089729
C50   C     C_R   0.333636 0.358540 0.588027 0.089217
C51   C     C_R   0.558199 0.844947 0.432903 0.448712
C52   C     C_R   0.442898 0.371130 0.567485 0.449900
C53   C     C_R   0.532067 0.845301 0.335380 -0.233008
C54   C     C_R   0.468714 0.360129 0.664947 -0.232691
C55   C     C_R   0.638306 0.864409 0.313409 -0.219776
C56   C     C_R   0.362088 0.350886 0.685891 -0.221474
H9    H     H_    0.872874 0.968738 0.388839 0.174169
H10   H     H_    0.126810 0.262733 0.607359 0.185464
H11   H     H_    0.666142 0.866115 0.263571 0.112946
H12   H     H_    0.333993 0.348609 0.735407 0.112489
H13   H     H_    0.480372 0.842392 0.305073 0.155796
H14   H     H_    0.520375 0.354993 0.695444 0.156472
H15   H     H_    0.625692 0.779762 0.613663 0.185326
H16   H     H_    0.376607 0.450910 0.387550 0.185497
H17   H     H_    0.967093 0.968068 0.522316 0.122236
H18   H     H_    0.032652 0.286682 0.475084 0.122427
H19   H     H_    0.016204 0.949416 0.691742 0.132643
H20   H     H_    0.983517 0.328135 0.306683 0.131829
H21   H     H_    0.834264 0.834136 0.737515 0.128684
H22   H     H_    0.167101 0.425234 0.262619 0.123358
H23   H     H_    0.760149 0.948709 0.321425 0.163614
H24   H     H_    0.239993 0.268599 0.675065 0.175963
H25   H     H_    0.737258 0.790729 0.679248 0.145799
H26   H     H_    0.264908 0.452400 0.321380 0.140699
O11   O     O_R   0.036080 0.231270 0.130120 -0.585869
O12   O     O_R   0.963920 0.731270 0.869880 -0.585982
O13   O     O_R   0.911300 0.558970 0.006750 -0.562459
O14   O     O_R   0.088700 0.058970 0.993250 -0.563515
C57   C     C_R   0.884788 0.390018 0.001529 0.938365
C58   C     C_R   0.115307 0.889939 0.999040 0.940942
O15   O     O_R   0.032450 0.561140 0.138040 -0.599805
O16   O     O_R   0.967550 0.061140 0.861960 -0.600039
O17   O     O_R   0.085870 0.728910 0.002130 -0.571999
O18   O     O_R   0.914130 0.228910 0.997870 -0.574294
C59   C     C_R   0.044994 0.392241 0.174894 0.943804
C60   C     C_R   0.955250 0.892797 0.824956 0.940919
O19   O     O_3   0.017320 0.394650 0.955270 -0.246698
O20   O     O_3   0.982680 0.894650 0.044730 -0.248534
V3    V     V_3+5 0.996780 0.670490 0.008300 1.272708
V4    V     V_3+5 0.003220 0.170490 0.991700 1.272235
N1    N     N_R   0.514915 0.851126 0.491149 0.253532
O21   O     O_R   0.456849 0.784466 0.459921 -0.407357
O22   O     O_R   0.528379 0.954645 0.566427 -0.393091
N2    N     N_R   0.486365 0.367513 0.509534 0.253702
O23   O     O_R   0.544642 0.431963 0.541983 -0.405051
O24   O     O_R   0.472652 0.268327 0.432828 -0.391387
F1    F     F_    0.206045 0.281175 0.044492 -0.734518
F2    F     F_    0.795656 0.786160 0.964019 -0.734886
N3    N     N_R   0.172576 0.315886 0.878468 0.210452
O25   O     O_R   0.169872 0.259567 0.794189 -0.493338
O26   O     O_R   0.134949 0.451973 0.889434 -0.365976
N4    N     N_R   0.827784 0.807775 0.130554 0.207275
O27   O     O_R   0.828892 0.746913 0.213686 -0.475207
O28   O     O_R   0.865072 0.947132 0.122622 -0.373417

loop_
_geom_bond_atom_site_label_1
_geom_bond_atom_site_label_2
_geom_bond_distance
_ccdc_geom_bond_type
C23   C53   1.391789 A    
C46   C48   1.400346 A    
C43   C45   1.386803 A    
C18   F2    1.384473 S    
O14   V4    2.004940 S    
C25   H17   1.084150 S    
N1    O21   1.301468 A    
O1    C3    1.313064 A    
O2    C4    1.313081 A    
C2    O7    1.319615 A    
N2    O23   1.301561 A    
O5    C3    1.316397 A    
C19   H5    1.111680 S    
C37   C39   1.414299 A    
O15   V3    2.019313 S    
C52   N2    1.442294 S    
O20   V3    1.729723 S    
C40   C42   1.386349 A    
O6    V2    2.005241 S    
C53   H13   1.083752 S    
C24   C56   1.392143 A    
C9    C11   1.411104 A    
O11   C59   1.306246 A    
C17   C19   1.523131 S    
C33   C41   1.391313 A    
C30   H22   1.077167 S    
C41   H9    1.084527 S    
C45   C47   1.399776 A    
C35   C43   1.410661 A    
C30   C32   1.416281 A    
C28   H20   1.083636 S    
O16   C60   1.307975 A    
C14   C16   1.399724 A    
C6    C8    1.402448 A    
C48   C52   1.424314 A    
C25   C27   1.391135 A    
C57   O18   1.312289 A    
C25   C33   1.404287 A    
C18   N4    1.464023 S    
C23   C55   1.392625 A    
O19   V3    2.195616 S    
C54   H14   1.083776 S    
C21   C29   1.398823 A    
O13   C57   1.318791 A    
C32   C34   1.420451 A    
N3    O26   1.299566 A    
C11   C13   1.410199 A    
C17   F1    1.384919 S    
C26   C28   1.390453 A    
C3    C8    1.483570 S    
C39   C41   1.386594 A    
O15   C59   1.309512 A    
C21   C60   1.460808 S    
C20   H8    1.111890 S    
C52   C54   1.401817 A    
C51   C53   1.401396 A    
C38   C50   1.431846 A    
C39   H23   1.076295 S    
C34   C42   1.390082 A    
C31   C35   1.432737 A    
C29   C31   1.417204 A    
C14   C57   1.484772 S    
C58   O17   1.312319 A    
C51   N1    1.442924 S    
C31   C33   1.420428 A    
C16   C18   1.491646 S    
O4    V2    2.021656 S    
C19   H7    1.111963 S    
O13   V3    2.006359 S    
O6    C4    1.316200 A    
C26   C34   1.404312 A    
C36   C44   1.410852 A    
C21   C27   1.394750 A    
N1    O22   1.301264 A    
O1    V2    1.998518 S    
C22   C28   1.393942 A    
C24   C54   1.392116 A    
O2    V1    1.999236 S    
C44   C46   1.387703 A    
C22   C30   1.398922 A    
O4    C2    1.321396 A    
C1    C24   1.461984 S    
C8    C10   1.410453 A    
C12   C14   1.410929 A    
O14   C58   1.318470 A    
C2    C23   1.461538 S    
C9    H1    1.082287 S    
C50   C56   1.413615 A    
C5    C15   1.395371 A    
O19   V4    1.729034 S    
C10   H2    1.082458 S    
O16   V4    2.021704 S    
C6    C16   1.395148 A    
N4    O28   1.300270 A    
C20   H6    1.111694 S    
O3    V1    2.019264 S    
O12   C60   1.308946 A    
C15   C17   1.490339 S    
C13   C58   1.484389 S    
C7    C9    1.410714 A    
C42   H10   1.083762 S    
C56   H12   1.077775 S    
C29   H21   1.076978 S    
O3    C1    1.321310 A    
O11   V4    2.027410 S    
N2    O24   1.301364 A    
N3    O25   1.300681 A    
O20   V4    2.194646 S    
C17   N3    1.463184 S    
C11   H3    1.080300 S    
O12   V3    2.026043 S    
C43   H25   1.076015 S    
C12   H4    1.080644 S    
O17   V3    1.999645 S    
C37   C49   1.432699 A    
C35   C37   1.429191 A    
O7    V1    2.019265 S    
C44   H26   1.076153 S    
C1    O8    1.319988 A    
C13   C15   1.398264 A    
O8    V2    2.020537 S    
O18   V4    1.998927 S    
C6    C20   1.493945 S    
C55   H11   1.077521 S    
C4    C7    1.483537 S    
O5    V1    2.006662 S    
C5    C7    1.402539 A    
C18   C20   1.523809 S    
C36   C38   1.428578 A    
C49   C55   1.413626 A    
C47   C51   1.424311 A    
C22   C59   1.458351 S    
C45   H15   1.080535 S    
C46   H16   1.080569 S    
C48   C50   1.424640 A    
C10   C12   1.411271 A    
O9    V2    1.729827 S    
O10   V1    1.730514 S    
C5    C19   1.494562 S    
C47   C49   1.425320 A    
N4    O27   1.301856 A    
C40   H24   1.075363 S    
C38   C40   1.413191 A    
C32   C36   1.433016 A    
C27   H19   1.083662 S    
C26   H18   1.084194 S    
