data_mof_unit_2144.cif
_audit_creation_date              2012-12-11T15:50:41-0500
_audit_creation_method            fapswitch 2.2
_symmetry_space_group_name_H-M    P1
_symmetry_Int_Tables_number       1
_space_group_crystal_system       triclinic
_cell_length_a                    6.910594
_cell_length_b                    14.559648
_cell_length_c                    16.1251
_cell_angle_alpha                 90.0
_cell_angle_beta                  89.999985
_cell_angle_gamma                 89.999759
_cell_volume                      1622.44009636

loop_
_atom_site_label
_atom_site_type_symbol
_atom_type_description
_atom_site_fract_x
_atom_site_fract_y
_atom_site_fract_z
_atom_type_partial_charge
O1    O     O_R   0.638140 0.833910 0.163320 -0.520164
O2    O     O_R   0.361860 0.166090 0.836680 -0.520164
O3    O     O_R   0.361860 0.166090 0.663320 -0.520165
O4    O     O_R   0.638140 0.833910 0.336680 -0.520165
O5    O     O_R   0.138140 0.666090 0.336680 -0.520169
O6    O     O_R   0.861860 0.333910 0.663320 -0.520169
O7    O     O_R   0.861860 0.333910 0.836680 -0.520168
O8    O     O_R   0.138140 0.666090 0.163320 -0.520168
O9    O     O_R   0.308390 0.844930 0.336080 -0.539681
O10   O     O_R   0.691610 0.155070 0.663920 -0.539681
O11   O     O_R   0.691610 0.155070 0.836080 -0.539680
O12   O     O_R   0.308390 0.844930 0.163920 -0.539680
O13   O     O_R   0.808390 0.655070 0.163920 -0.539684
O14   O     O_R   0.191610 0.344930 0.836080 -0.539684
O15   O     O_R   0.191610 0.344930 0.663920 -0.539684
O16   O     O_R   0.808390 0.655070 0.336080 -0.539684
C1    C     C_R   0.477904 0.865551 0.366317 0.795394
C2    C     C_R   0.522096 0.134449 0.633683 0.795394
C3    C     C_R   0.522096 0.134448 0.866317 0.795393
C4    C     C_R   0.477904 0.865551 0.133683 0.795393
C5    C     C_R   0.977905 0.634449 0.133686 0.795398
C6    C     C_R   0.022095 0.365551 0.866314 0.795398
C7    C     C_R   0.022095 0.365551 0.633686 0.795399
C8    C     C_R   0.977905 0.634449 0.366314 0.795399
O17   O     O_3   0.471620 0.691320 0.250000 -0.367146
O18   O     O_3   0.528380 0.308680 0.750000 -0.367146
O19   O     O_3   0.971620 0.808680 0.250000 -0.367150
O20   O     O_3   0.028380 0.191320 0.750000 -0.367150
V1    V     V_3+5 0.196770 0.760880 0.250000 1.635709
V2    V     V_3+5 0.803230 0.239120 0.750000 1.635709
V3    V     V_3+5 0.696770 0.739120 0.250000 1.635708
V4    V     V_3+5 0.303230 0.260880 0.750000 1.635708
C9    C     C_R   0.839576 0.503864 0.447509 -0.192571
C10   C     C_R   0.160424 0.496136 0.552490 -0.192571
C11   C     C_R   0.160424 0.496136 0.947510 -0.192571
C12   C     C_R   0.839576 0.503864 0.052490 -0.192571
C13   C     C_R   0.339583 0.996141 0.052494 -0.192620
C14   C     C_R   0.660417 0.003859 0.947506 -0.192620
C15   C     C_R   0.660417 0.003859 0.552494 -0.192619
C16   C     C_R   0.339583 0.996141 0.447506 -0.192619
H1    H     H_    0.715195 0.504966 0.406607 0.188099
H2    H     H_    0.284805 0.495034 0.593393 0.188099
H3    H     H_    0.284805 0.495034 0.906607 0.188099
H4    H     H_    0.715195 0.504966 0.093393 0.188099
H5    H     H_    0.215205 0.995035 0.093388 0.188105
H6    H     H_    0.784795 0.004965 0.906612 0.188104
H7    H     H_    0.784795 0.004965 0.593388 0.188104
H8    H     H_    0.215205 0.995035 0.406612 0.188104
C17   C     C_R   0.847272 0.437453 0.510304 0.417618
C18   C     C_R   0.152728 0.562547 0.489696 0.417618
C19   C     C_R   0.152728 0.562547 0.010304 0.417619
C20   C     C_R   0.847272 0.437453 0.989696 0.417619
C21   C     C_R   0.347280 0.062556 0.989704 0.417635
C22   C     C_R   0.652720 0.937444 0.010296 0.417635
C23   C     C_R   0.652720 0.937444 0.489704 0.417635
C24   C     C_R   0.347280 0.062556 0.510296 0.417635
C25   C     C_R   0.009083 0.433189 0.564387 -0.182669
C26   C     C_R   0.990917 0.566811 0.435613 -0.182669
C27   C     C_R   0.990917 0.566811 0.064387 -0.182669
C28   C     C_R   0.009083 0.433189 0.935612 -0.182669
C29   C     C_R   0.509083 0.066813 0.935617 -0.182655
C30   C     C_R   0.490917 0.933187 0.064383 -0.182655
C31   C     C_R   0.490917 0.933187 0.435617 -0.182654
C32   C     C_R   0.509083 0.066813 0.564383 -0.182654
Cl1   Cl    Cl    0.653013 0.358951 0.514922 -0.600297
Cl2   Cl    Cl    0.346987 0.641049 0.485078 -0.600297
Cl3   Cl    Cl    0.346987 0.641049 0.014922 -0.600298
Cl4   Cl    Cl    0.653013 0.358951 0.985078 -0.600298
Cl5   Cl    Cl    0.153028 0.141057 0.985085 -0.600301
Cl6   Cl    Cl    0.846972 0.858943 0.014915 -0.600301
Cl7   Cl    Cl    0.846972 0.858943 0.485085 -0.600301
Cl8   Cl    Cl    0.153028 0.141057 0.514915 -0.600301

loop_
_geom_bond_atom_site_label_1
_geom_bond_atom_site_label_2
_ccdc_geom_bond_type
O17   V3    S    
O18   V4    S    
C9    C26   A    
O12   V1    S    
O19   V1    S    
C10   H2    S    
C12   C27   A    
C21   Cl5   S    
C13   C30   A    
O15   V4    S    
O16   V3    S    
C15   C32   A    
O11   C3    A    
C16   C31   A    
C17   Cl1   S    
O8    V1    S    
C3    C29   S    
C5    C27   S    
C6    C28   S    
C9    C17   A    
O1    V3    S    
C17   C25   A    
O3    C2    A    
O2    V4    S    
C16   H8    S    
C20   C28   A    
C21   C29   A    
C15   C23   A    
O11   V2    S    
C16   C24   A    
C23   C31   A    
C10   C25   A    
C24   C32   A    
C11   H3    S    
C12   C20   A    
O9    V1    S    
C14   C29   A    
C13   C21   A    
O15   C7    A    
C14   C22   A    
O16   C8    A    
O7    V2    S    
O5    V1    S    
O17   V1    S    
C10   C18   A    
O19   V3    S    
C18   C26   A    
O20   V4    S    
C22   C30   A    
C24   Cl8   S    
C11   C28   A    
O10   V2    S    
C22   Cl6   S    
O12   C4    A    
O8    C5    A    
O13   C5    A    
C19   Cl3   S    
C18   Cl2   S    
O4    C1    A    
O9    C1    A    
O6    V2    S    
O18   V2    S    
C11   C19   A    
C12   H4    S    
C19   C27   A    
C13   H5    S    
C15   H7    S    
C7    C25   S    
O1    C4    A    
O2    C3    A    
O13   V3    S    
O14   V4    S    
C20   Cl4   S    
O7    C6    A    
C9    H1    S    
O14   C6    A    
O20   V2    S    
C1    C31   S    
C2    C32   S    
O5    C8    A    
O10   C2    A    
O6    C7    A    
C4    C30   S    
O3    V4    S    
C14   H6    S    
O4    V3    S    
C8    C26   S    
C23   Cl7   S    
