data_mof_unit_656.cif
_audit_creation_date              2012-12-11T15:18:35-0500
_audit_creation_method            fapswitch 2.2
_symmetry_space_group_name_H-M    P1
_symmetry_Int_Tables_number       1
_space_group_crystal_system       triclinic
_cell_length_a                    16.038202
_cell_length_b                    15.975995
_cell_length_c                    17.745383
_cell_angle_alpha                 107.342762
_cell_angle_beta                  105.645497
_cell_angle_gamma                 110.082335
_cell_volume                      3708.67824213

loop_
_atom_site_label
_atom_site_type_symbol
_atom_type_description
_atom_site_fract_x
_atom_site_fract_y
_atom_site_fract_z
_atom_type_partial_charge
C1    C     C_R   0.895886 0.901205 0.669570 -0.137977
C2    C     C_R   0.916850 0.713143 0.491635 -0.136961
C3    C     C_R   0.756517 0.817756 0.253747 -0.130983
C4    C     C_R   0.081758 0.290690 0.544613 -0.119567
C5    C     C_R   0.272873 0.994117 0.576021 0.522894
C6    C     C_R   0.706458 0.725184 0.247395 0.041215
C7    C     C_R   0.337029 0.058982 0.557357 -0.068299
C8    C     C_R   0.997942 0.704989 0.531335 0.075167
C9    C     C_R   0.029087 0.995618 0.238518 0.043663
C10   C     C_1   0.614003 0.006410 0.503250 -0.074458
C11   C     C_1   0.558918 0.030248 0.524509 -0.030611
C12   C     C_R   0.998591 0.302195 0.528201 0.069149
C13   C     C_1   0.491502 0.053888 0.546004 -0.016270
C14   C     C_1   0.425364 0.063522 0.556858 -0.067983
C15   C     C_1   0.996972 0.393130 0.550236 -0.049869
C16   C     C_R   0.249736 0.179876 0.743104 0.539876
C17   C     C_1   0.996090 0.469287 0.560071 -0.000973
C18   C     C_1   0.995928 0.554934 0.559213 -0.000351
C19   C     C_1   0.996544 0.625110 0.549340 -0.052851
C20   C     C_1   0.395988 0.347481 0.810471 -0.011378
C21   C     C_2   0.540838 0.490336 0.953520 0.601740
C22   C     C_2   0.514613 0.495778 0.019422 -0.346469
C23   C     C_R   0.304851 0.270715 0.745547 -0.072592
C24   C     C_1   0.576838 0.574604 0.102501 0.134715
C25   C     C_1   0.467069 0.413220 0.871584 -0.254345
C26   C     C_1   0.633481 0.643139 0.170054 -0.047052
C27   C     C_1   0.037550 0.960517 0.158699 -0.058350
C28   C     C_R   0.735620 0.023215 0.439916 0.484212
C29   C     C_2   0.051111 0.899228 0.009978 0.146142
C30   C     C_2   0.965658 0.852200 0.940336 -0.235433
C31   C     C_1   0.961597 0.867879 0.864841 0.037389
C32   C     C_1   0.045455 0.931184 0.091969 -0.022792
C33   C     C_1   0.964239 0.893014 0.808273 -0.052858
C34   C     C_R   0.682752 0.982209 0.480883 -0.125876
C35   C     C_R   0.258802 0.271235 0.668576 -0.214726
C36   C     C_R   0.726066 0.933527 0.516260 0.100822
C37   C     C_R   0.919068 0.212142 0.471204 -0.132808
C38   C     C_R   0.056779 0.983398 0.742290 -0.111365
C39   C     C_R   0.971432 0.930705 0.746246 0.057489
C40   C     C_3   0.208364 0.115092 0.333844 -0.430874
C41   C     C_3   0.260249 0.050898 0.317057 -0.227217
C42   C     C_3   0.366874 0.113292 0.337474 -0.940879
C43   C     C_3   0.372706 0.942647 0.651128 0.264873
C44   C     C_3   0.373122 0.885607 0.706139 -0.907443
C45   C     C_R   0.743529 0.726573 0.327822 0.149188
C46   C     C_3   0.645419 0.544635 0.889505 0.292569
C47   C     C_3   0.744490 0.624642 0.909741 -0.912730
C48   C     C_3   0.148193 0.943265 0.003708 -0.386424
C49   C     C_3   0.235576 0.967539 0.083718 -0.268946
C50   C     C_3   0.328894 0.993358 0.069119 -0.913967
C51   C     C_3   0.330009 0.203183 0.883459 0.274944
C52   C     C_3   0.318685 0.147047 0.938746 -0.949926
C53   C     C_3   0.634545 0.079340 0.371888 0.253123
C54   C     C_3   0.621311 0.120807 0.305176 -0.918367
C55   C     C_3   0.673633 0.854209 0.539708 -0.390892
C56   C     C_R   0.286823 0.094316 0.511486 -0.210086
C57   C     C_3   0.675068 0.897753 0.630044 -0.237814
C58   C     C_3   0.628179 0.816295 0.655618 -0.949311
C59   C     C_3   0.690743 0.656894 0.359903 -0.461067
C60   C     C_3   0.582965 0.633617 0.333270 -0.241763
C61   C     C_3   0.537058 0.578175 0.379954 -0.940553
C62   C     C_R   0.078806 0.793661 0.564058 -0.117425
C63   C     C_R   0.943268 0.972464 0.248765 -0.150453
C64   C     C_R   0.105619 0.054304 0.319755 0.148958
H1    H     H_    0.824752 0.841394 0.646647 0.117510
H2    H     H_    0.288703 0.324628 0.645100 0.130183
H3    H     H_    0.845122 0.199272 0.442096 0.155366
H4    H     H_    0.128897 0.000466 0.784117 0.164956
H5    H     H_    0.372093 0.154541 0.297009 0.262123
H6    H     H_    0.407478 0.166558 0.407052 0.263841
H7    H     H_    0.401301 0.064383 0.323213 0.250521
H8    H     H_    0.256092 0.007048 0.355069 0.208231
H9    H     H_    0.222886 0.996057 0.248308 0.184631
H10   H     H_    0.205500 0.148760 0.287246 0.182271
H11   H     H_    0.247914 0.178553 0.398390 0.176905
H12   H     H_    0.321881 0.158325 0.501882 0.147170
H13   H     H_    0.443471 0.011236 0.685102 0.123057
H14   H     H_    0.365153 0.895216 0.586646 0.082735
H15   H     H_    0.305237 0.814339 0.673271 0.243237
H16   H     H_    0.436626 0.870041 0.715737 0.216030
H17   H     H_    0.378518 0.929700 0.770528 0.268972
H18   H     H_    0.588653 0.549316 0.840872 0.097679
H19   H     H_    0.644031 0.471494 0.862011 0.097654
H20   H     H_    0.803259 0.621494 0.957378 0.262832
H21   H     H_    0.756359 0.613836 0.849442 0.212055
H22   H     H_    0.747634 0.698417 0.937330 0.254145
H23   H     H_    0.150930 0.815003 0.609107 0.161559
H24   H     H_    0.319635 0.930961 0.013022 0.263772
H25   H     H_    0.348271 0.060333 0.057170 0.269180
H26   H     H_    0.389702 0.008700 0.127892 0.254190
H27   H     H_    0.247583 0.032292 0.139221 0.208795
H28   H     H_    0.220537 0.903328 0.099923 0.202578
H29   H     H_    0.145917 0.889449 0.945425 0.199299
H30   H     H_    0.158344 0.011765 0.995267 0.182211
H31   H     H_    0.303148 0.258702 0.902025 0.073865
H32   H     H_    0.408930 0.240949 0.898662 0.126312
H33   H     H_    0.340733 0.087923 0.919864 0.273227
H34   H     H_    0.870734 0.930612 0.197565 0.118773
H35   H     H_    0.365564 0.198654 0.008220 0.217476
H36   H     H_    0.241737 0.113553 0.930282 0.243764
H37   H     H_    0.659817 0.140064 0.436704 0.095392
H38   H     H_    0.562568 0.017836 0.354003 0.121590
H39   H     H_    0.595013 0.062113 0.239257 0.263535
H40   H     H_    0.566910 0.148835 0.306026 0.218222
H41   H     H_    0.691757 0.182578 0.320438 0.255545
H42   H     H_    0.550994 0.766697 0.608315 0.265317
H43   H     H_    0.668451 0.772105 0.657769 0.259915
H44   H     H_    0.629812 0.849823 0.720880 0.255266
H45   H     H_    0.843106 0.659593 0.471387 0.099813
H46   H     H_    0.750957 0.948648 0.679493 0.202265
H47   H     H_    0.633832 0.941126 0.630353 0.204123
H48   H     H_    0.596375 0.810610 0.491214 0.191221
H49   H     H_    0.704307 0.801731 0.533846 0.173856
H50   H     H_    0.541047 0.507317 0.363906 0.266916
H51   H     H_    0.575141 0.623471 0.451308 0.261496
H52   H     H_    0.459225 0.561859 0.358982 0.252351
H53   H     H_    0.576636 0.703299 0.348917 0.196672
H54   H     H_    0.540905 0.586603 0.262469 0.201401
H55   H     H_    0.696347 0.587329 0.335343 0.189986
H56   H     H_    0.736574 0.844590 0.206071 0.120907
H57   H     H_    0.726057 0.693079 0.431605 0.186525
H58   H     H_    0.444160 0.442951 0.010615 0.103406
H59   H     H_    0.897327 0.824648 0.947117 0.139585
H60   H     H_    0.156250 0.347844 0.582809 0.104636
N1    N     N_R   0.932430 0.938480 0.620530 -0.048346
N2    N     N_R   0.173120 0.127600 0.665820 -0.085608
N3    N     N_R   0.812300 0.005460 0.456230 -0.091479
N4    N     N_R   0.178530 0.184580 0.620530 -0.070458
N5    N     N_R   0.806890 0.948480 0.501510 -0.092343
N6    N     N_R   0.952060 0.145220 0.456230 -0.038371
N7    N     N_R   0.033360 0.987840 0.665820 -0.042940
N8    N     N_R   0.821470 0.815420 0.379470 -0.067985
N9    N     N_R   0.193110 0.051520 0.498490 -0.072619
N10   N     N_R   0.047940 0.854780 0.543770 -0.041767
N11   N     N_R   0.966640 0.012160 0.334180 -0.049924
N12   N     N_R   0.067570 0.061520 0.379470 -0.063460
N13   N     N_R   0.947010 0.805420 0.498490 -0.050112
N14   N     N_R   0.826880 0.872400 0.334180 -0.052508
N15   N     N_R   0.187700 0.994540 0.543770 -0.086580
N16   N     N_R   0.052990 0.194580 0.501510 -0.046847
Ni1   Ni    Ni4+2 0.878060 0.878060 0.500000 0.183783
Ni2   Ni    Ni4+2 0.121940 0.121940 0.500000 0.187538
Ni3   Ni    Ni4+2 0.109540 0.991270 0.603850 0.278460
Ni4   Ni    Ni4+2 0.890460 0.008730 0.396150 0.247819
O1    O     O_3   0.295140 0.966992 0.643478 -0.632362
O2    O     O_3   0.631313 0.560347 0.966745 -0.624248
O3    O     O_3   0.278005 0.135735 0.794865 -0.630329
O4    O     O_3   0.703460 0.043774 0.369676 -0.645154

loop_
_geom_bond_atom_site_label_1
_geom_bond_atom_site_label_2
_ccdc_geom_bond_type
C59   H57   S    
C64   N12   A    
C2    H45   S    
C40   C41   S    
C56   H12   S    
C6    C45   A    
C55   H48   S    
C9    C64   A    
C41   C42   S    
C52   H33   S    
C3    C6    A    
N6    N16   A    
N10   N13   A    
C56   N9    A    
N11   N12   A    
C46   O2    S    
C53   C54   S    
C43   H14   S    
N9    Ni2   S    
C33   C39   S    
C48   H30   S    
C16   O3    S    
C47   H21   S    
C54   H40   S    
N16   Ni2   S    
C18   C19   T    
C29   C32   S    
C30   C31   S    
N5    Ni1   S    
C20   C25   T    
N8    N14   A    
N2    Ni3   S    
C42   H6    S    
C37   N6    A    
C4    H60   S    
C21   C25   S    
C58   H43   S    
C12   C37   A    
N12   Ni2   S    
N10   Ni3   S    
C46   H18   S    
N15   Ni3   S    
C50   H26   S    
C7    C14   S    
C53   H37   S    
C61   H51   S    
C1    H1    S    
C31   C33   T    
C60   H54   S    
C4    C12   A    
N6    Ni4   S    
C34   C36   A    
C28   N3    A    
C50   H24   S    
C51   H32   S    
C16   C23   A    
C28   C34   A    
C59   C60   S    
C13   C14   T    
C7    C56   A    
C49   H27   S    
C5    N15   A    
C38   C39   A    
C28   O4    S    
C8    C19   S    
C5    O1    S    
C48   H29   S    
C29   C48   S    
C51   C52   S    
C47   H22   S    
C54   H39   S    
C44   H16   S    
C44   H17   S    
C3    H56   S    
N1    Ni1   S    
C5    C7    A    
C55   H49   S    
C35   H2    S    
C52   H36   S    
C42   H5    S    
C60   C61   S    
C58   H42   S    
C63   N11   A    
C43   C44   S    
N3    N5    A    
C29   C30   D    
C43   O1    S    
C4    N16   A    
N1    N7    A    
C50   H25   S    
C57   H46   S    
C20   C23   S    
C51   O3    S    
C53   H38   S    
C61   H52   S    
C17   C18   S    
C6    C26   S    
C60   H53   S    
C10   C34   S    
C3    N14   A    
C47   H20   S    
N2    N4    A    
C41   H8    S    
N11   Ni4   S    
C38   H4    S    
N9    N15   A    
C12   C15   S    
C23   C35   A    
C55   C57   S    
C22   C24   S    
C43   H13   S    
C49   H28   S    
N7    Ni3   S    
C9    C27   S    
N8    Ni1   S    
C15   C17   T    
N13   Ni1   S    
C46   C47   S    
C45   C59   S    
C59   H55   S    
C54   H41   S    
C27   C32   T    
C9    C63   A    
C2    N13   A    
C44   H15   S    
C2    C8    A    
C24   C26   T    
C63   H34   S    
C62   H23   S    
C52   H35   S    
C40   C64   S    
C40   H11   S    
C1    N1    A    
C21   O2    S    
C62   N10   A    
C36   C55   S    
N14   Ni4   S    
C36   N5    A    
C38   N7    A    
C11   C13   S    
C57   C58   S    
C57   H47   S    
C16   N2    A    
C48   C49   S    
C37   H3    S    
C42   H7    S    
C40   H10   S    
C58   H44   S    
N3    Ni4   S    
C53   O4    S    
C35   N4    A    
C10   C11   T    
C1    C39   A    
C41   H9    S    
C46   H19   S    
C30   H59   S    
C45   N8    A    
C49   C50   S    
C8    C62   A    
C61   H50   S    
C22   H58   S    
C21   C22   D    
N4    Ni2   S    
C51   H31   S    
