data_mof_unit_2313.cif
_audit_creation_date              2012-10-26T21:27:09-0400
_audit_creation_method            fapswitch 2.2
_symmetry_space_group_name_H-M    P1
_symmetry_Int_Tables_number       1
_space_group_crystal_system       monoclinic
_cell_length_a                    12.195035
_cell_length_b                    12.233893
_cell_length_c                    23.688866
_cell_angle_alpha                 90.0
_cell_angle_beta                  90.0
_cell_angle_gamma                 90.039982
_cell_volume                      3534.20628111

loop_
_atom_site_label
_atom_site_type_symbol
_atom_type_description
_atom_site_fract_x
_atom_site_fract_y
_atom_site_fract_z
_atom_type_partial_charge
C1    C     C_3   1.000000 0.000000 0.249289 0.138374
C2    C     C_R   0.900834 0.002004 0.291563 0.118719
C3    C     C_R   0.999852 0.651929 0.922329 0.579435
C4    C     C_R   0.000463 0.346602 0.076759 0.588977
C5    C     C_R   0.348959 0.999872 0.421818 0.580946
C6    C     C_R   0.654018 0.000602 0.576521 0.589668
C7    C     C_R   0.000148 0.348071 0.922329 0.579435
C8    C     C_R   0.999537 0.653398 0.076759 0.588977
C9    C     C_R   0.651041 0.000128 0.421818 0.580946
C10   C     C_R   0.345982 0.999398 0.576521 0.589668
C11   C     C_R   0.097747 0.162542 0.195579 0.286020
C12   C     C_3   1.000000 0.000000 0.750275 0.139385
C13   C     C_R   0.901668 0.838605 0.804511 0.280760
C14   C     C_R   0.839265 0.097991 0.695242 0.275146
C15   C     C_R   0.165078 0.903381 0.301885 0.282638
C16   C     C_R   0.902253 0.837458 0.195579 0.286020
C17   C     C_R   0.098332 0.161395 0.804511 0.280760
C18   C     C_R   0.160735 0.902009 0.695242 0.275145
C19   C     C_R   0.834922 0.096619 0.301885 0.282639
C20   C     C_R   0.092115 0.883301 0.827205 0.208713
C21   C     C_R   0.909103 0.113406 0.170638 0.211660
C22   C     C_R   0.884176 0.909053 0.326928 0.208335
C23   C     C_R   0.001935 0.098544 0.206749 0.114388
C24   C     C_R   0.115169 0.091657 0.672378 0.212790
C25   C     C_R   0.907885 0.116699 0.827205 0.208713
C26   C     C_R   0.090897 0.886594 0.170638 0.211660
C27   C     C_R   0.115824 0.090947 0.326928 0.208335
C28   C     C_R   0.884830 0.908343 0.672378 0.212790
C29   C     C_R   0.098569 0.238118 0.150734 0.190107
C30   C     C_R   0.901264 0.763243 0.849488 0.184384
C31   C     C_R   0.766760 0.100060 0.648816 0.200521
C32   C     C_R   0.242764 0.903286 0.345982 0.187362
C33   C     C_R   0.901431 0.761882 0.150734 0.190107
C34   C     C_R   0.997973 0.901360 0.792617 0.117023
C35   C     C_R   0.098736 0.236757 0.849488 0.184383
C36   C     C_R   0.233240 0.899940 0.648816 0.200521
C37   C     C_R   0.757236 0.096714 0.345982 0.187362
C38   C     C_R   0.095180 0.795716 0.865546 0.182597
C39   C     C_R   0.910816 0.191230 0.126914 0.194208
C40   C     C_R   0.796368 0.905768 0.365346 0.182603
C41   C     C_R   0.192162 0.089732 0.628099 0.192534
C42   C     C_R   0.904820 0.204284 0.865546 0.182597
C43   C     C_R   0.089184 0.808770 0.126914 0.194209
C44   C     C_R   0.203632 0.094232 0.365346 0.182603
C45   C     C_R   0.901248 0.001760 0.707635 0.113459
C46   C     C_R   0.807838 0.910268 0.628099 0.192534
C47   C     C_R   0.002717 0.258396 0.119282 -0.040139
C48   C     C_R   0.998957 0.737771 0.878319 -0.042203
C49   C     C_R   0.743156 0.003269 0.618911 -0.034252
C50   C     C_R   0.264242 0.999244 0.376940 -0.040815
C51   C     C_R   0.997283 0.741604 0.119282 -0.040139
C52   C     C_R   0.001043 0.262228 0.878319 -0.042203
C53   C     C_R   0.256844 0.996731 0.618911 -0.034251
C54   C     C_R   0.735757 0.000755 0.376940 -0.040815
C55   C     C_3   0.258721 0.224032 0.102055 -0.001053
C56   C     C_R   0.099166 0.997996 0.291563 0.118719
C57   C     C_3   0.363122 0.283993 0.085480 -0.356519
C58   C     C_3   0.744463 0.781068 0.900561 0.008598
C59   C     C_3   0.646242 0.718797 0.923433 -0.369739
C60   C     C_3   0.793663 0.270415 0.609097 -0.009452
C61   C     C_3   0.799252 0.256072 0.545358 -0.382451
C62   C     C_3   0.237367 0.738837 0.390823 0.007483
C63   C     C_3   0.308293 0.644555 0.410980 -0.373411
C64   C     C_3   0.741279 0.775968 0.102055 -0.001053
C65   C     C_3   0.636878 0.716007 0.085481 -0.356519
C66   C     C_3   0.255537 0.218932 0.900561 0.008598
C67   C     C_R   0.998064 0.901456 0.206749 0.114388
C68   C     C_3   0.353759 0.281202 0.923432 -0.369738
C69   C     C_3   0.206337 0.729585 0.609097 -0.009452
C70   C     C_3   0.200748 0.743928 0.545358 -0.382451
C71   C     C_3   0.762633 0.261163 0.390823 0.007483
C72   C     C_3   0.691707 0.355445 0.410981 -0.373412
C73   C     C_3   0.256826 0.704581 0.857280 0.025889
C74   C     C_3   0.351982 0.658188 0.891045 -0.375328
C75   C     C_3   0.835899 0.126708 0.045635 -0.010863
C76   C     C_3   0.729809 0.120007 0.012102 -0.340588
C77   C     C_3   0.705411 0.744444 0.357697 0.025756
C78   C     C_R   0.002027 0.098640 0.792617 0.117023
C79   C     C_3   0.659201 0.649704 0.391655 -0.375536
C80   C     C_3   0.127190 0.166960 0.547624 -0.010849
C81   C     C_3   0.122868 0.272676 0.513985 -0.338210
C82   C     C_3   0.743174 0.295419 0.857280 0.025890
C83   C     C_3   0.648018 0.341813 0.891045 -0.375328
C84   C     C_3   0.164101 0.873293 0.045635 -0.010862
C85   C     C_3   0.270191 0.879993 0.012102 -0.340588
C86   C     C_3   0.294589 0.255556 0.357697 0.025755
C87   C     C_3   0.340799 0.350296 0.391655 -0.375536
C88   C     C_3   0.872810 0.833040 0.547624 -0.010850
C89   C     C_R   0.098752 0.998240 0.707635 0.113460
C90   C     C_3   0.877131 0.727324 0.513985 -0.338211
Cu1   Cu    Cu3+1 0.889520 0.500000 0.000000 0.959023
Cu2   Cu    Cu3+1 0.110480 0.500000 0.000000 0.959023
Cu3   Cu    Cu3+1 0.500000 0.889520 0.500000 0.961796
Cu4   Cu    Cu3+1 0.500000 0.110480 0.500000 0.961796
H1    H     H_    0.213237 0.202757 0.062727 0.115662
H2    H     H_    0.595980 0.687723 0.887828 0.154602
H3    H     H_    0.878010 0.263348 0.626635 0.167920
H4    H     H_    0.766233 0.355189 0.618043 0.152265
H5    H     H_    0.717176 0.270436 0.526627 0.180550
H6    H     H_    0.857863 0.316031 0.527205 0.076115
H7    H     H_    0.827661 0.172382 0.534649 0.123330
H8    H     H_    0.167503 0.704478 0.366408 0.161516
H9    H     H_    0.204285 0.782210 0.428471 0.120270
H10   H     H_    0.379516 0.676004 0.435272 0.159927
H11   H     H_    0.259304 0.589845 0.438584 0.075606
H12   H     H_    0.282444 0.147070 0.123951 0.161197
H13   H     H_    0.338856 0.597588 0.374121 0.152549
H14   H     H_    0.786762 0.797243 0.062726 0.115663
H15   H     H_    0.717556 0.852931 0.123951 0.161196
H16   H     H_    0.589312 0.694200 0.123849 0.167281
H17   H     H_    0.585641 0.769261 0.058206 0.081118
H18   H     H_    0.657514 0.640227 0.061961 0.159044
H19   H     H_    0.286084 0.145846 0.877467 0.155681
H20   H     H_    0.204874 0.191491 0.937142 0.113082
H21   H     H_    0.404621 0.226267 0.949982 0.074838
H22   H     H_    0.404020 0.312276 0.887827 0.154602
H23   H     H_    0.410687 0.305801 0.123848 0.167281
H24   H     H_    0.325832 0.351461 0.949391 0.156561
H25   H     H_    0.121990 0.736652 0.626635 0.167920
H26   H     H_    0.233767 0.644811 0.618043 0.152265
H27   H     H_    0.282824 0.729564 0.526627 0.180550
H28   H     H_    0.142137 0.683969 0.527205 0.076115
H29   H     H_    0.172339 0.827618 0.534649 0.123330
H30   H     H_    0.832497 0.295522 0.366408 0.161515
H31   H     H_    0.795715 0.217790 0.428471 0.120270
H32   H     H_    0.620484 0.323996 0.435272 0.159927
H33   H     H_    0.740695 0.410155 0.438584 0.075607
H34   H     H_    0.414359 0.230739 0.058205 0.081118
H35   H     H_    0.661143 0.402412 0.374121 0.152548
H36   H     H_    0.290872 0.753672 0.821854 0.165070
H37   H     H_    0.209004 0.634545 0.839767 0.157832
H38   H     H_    0.320802 0.605879 0.925847 0.166792
H39   H     H_    0.405135 0.608065 0.863159 0.097505
H40   H     H_    0.401015 0.726015 0.909256 0.134565
H41   H     H_    0.856221 0.042546 0.060506 0.095336
H42   H     H_    0.902264 0.156094 0.017120 0.138879
H43   H     H_    0.705963 0.202642 0.997158 0.198999
H44   H     H_    0.741060 0.065431 0.975079 0.104393
H45   H     H_    0.342485 0.359773 0.061960 0.159044
H46   H     H_    0.663237 0.086664 0.039091 0.125332
H47   H     H_    0.754244 0.710506 0.322123 0.165702
H48   H     H_    0.634863 0.791855 0.340356 0.159685
H49   H     H_    0.609165 0.680830 0.427362 0.166831
H50   H     H_    0.606464 0.598162 0.364231 0.093820
H51   H     H_    0.727455 0.599530 0.408553 0.135922
H52   H     H_    0.042511 0.148905 0.562872 0.102186
H53   H     H_    0.154408 0.099989 0.519033 0.137944
H54   H     H_    0.206122 0.294081 0.498575 0.197684
H55   H     H_    0.067129 0.262736 0.477253 0.107853
H56   H     H_    0.713916 0.854153 0.877467 0.155681
H57   H     H_    0.091799 0.340026 0.541042 0.127457
H58   H     H_    0.709128 0.246329 0.821854 0.165070
H59   H     H_    0.790996 0.365455 0.839767 0.157832
H60   H     H_    0.679199 0.394121 0.925847 0.166792
H61   H     H_    0.594865 0.391935 0.863159 0.097505
H62   H     H_    0.598985 0.273986 0.909257 0.134565
H63   H     H_    0.143779 0.957454 0.060507 0.095337
H64   H     H_    0.097736 0.843907 0.017120 0.138879
H65   H     H_    0.294036 0.797358 0.997158 0.198999
H66   H     H_    0.258941 0.934570 0.975079 0.104392
H67   H     H_    0.795126 0.808510 0.937142 0.113082
H68   H     H_    0.336763 0.913336 0.039091 0.125332
H69   H     H_    0.245756 0.289494 0.322123 0.165702
H70   H     H_    0.365137 0.208145 0.340356 0.159685
H71   H     H_    0.390835 0.319170 0.427362 0.166831
H72   H     H_    0.393537 0.401838 0.364231 0.093820
H73   H     H_    0.272545 0.400470 0.408553 0.135922
H74   H     H_    0.957488 0.851094 0.562872 0.102186
H75   H     H_    0.845592 0.900011 0.519033 0.137944
H76   H     H_    0.793878 0.705919 0.498575 0.197684
H77   H     H_    0.932870 0.737264 0.477253 0.107853
H78   H     H_    0.674169 0.648539 0.949392 0.156561
H79   H     H_    0.908201 0.659974 0.541042 0.127457
H80   H     H_    0.242656 0.209335 0.222393 0.346685
H81   H     H_    0.755865 0.793163 0.778605 0.360882
H82   H     H_    0.789089 0.239890 0.723155 0.341861
H83   H     H_    0.215216 0.763088 0.271873 0.359292
H84   H     H_    0.757344 0.790665 0.222393 0.346685
H85   H     H_    0.244135 0.206836 0.778605 0.360882
H86   H     H_    0.210911 0.760110 0.723155 0.341861
H87   H     H_    0.784784 0.236912 0.271873 0.359292
H88   H     H_    0.233766 0.940731 0.852424 0.342672
H89   H     H_    0.595379 0.773733 0.949982 0.074838
H90   H     H_    0.753720 0.078235 0.157028 0.363292
H91   H     H_    0.943847 0.769458 0.353235 0.344202
H92   H     H_    0.084229 0.247922 0.660888 0.362463
H93   H     H_    0.766234 0.059269 0.852424 0.342672
H94   H     H_    0.246280 0.921764 0.157028 0.363292
H95   H     H_    0.056154 0.230542 0.353235 0.344202
H96   H     H_    0.915771 0.752078 0.660888 0.362463
O1    O     O_R   0.907020 0.615090 0.941240 -0.492650
O2    O     O_R   0.092980 0.615090 0.941240 -0.482599
O3    O     O_R   0.384910 0.092980 0.558760 -0.460213
O4    O     O_R   0.615090 0.907020 0.441240 -0.482485
O5    O     O_R   0.092980 0.615090 0.058760 -0.459882
O6    O     O_R   0.907020 0.384910 0.941240 -0.482599
O7    O     O_R   0.615090 0.907020 0.558760 -0.460213
O8    O     O_R   0.384910 0.092980 0.441240 -0.482485
O9    O     O_3   0.195172 0.292133 0.137621 -0.537908
O10   O     O_3   0.804227 0.711688 0.864046 -0.545322
O11   O     O_3   0.716262 0.197495 0.633564 -0.537266
O12   O     O_R   0.092980 0.384910 0.058760 -0.489043
O13   O     O_3   0.301859 0.809065 0.356973 -0.546589
O14   O     O_3   0.804828 0.707867 0.137621 -0.537908
O15   O     O_3   0.195773 0.288312 0.864046 -0.545322
O16   O     O_3   0.283738 0.802505 0.633564 -0.537266
O17   O     O_3   0.698141 0.190935 0.356973 -0.546589
O18   O     O_3   0.192165 0.770946 0.893022 -0.575726
O19   O     O_3   0.821592 0.200294 0.091076 -0.541055
O20   O     O_3   0.772447 0.809200 0.393140 -0.575343
O21   O     O_3   0.201898 0.179456 0.592832 -0.540315
O22   O     O_3   0.807835 0.229054 0.893022 -0.575726
O23   O     O_R   0.384910 0.907020 0.441240 -0.500444
O24   O     O_3   0.178408 0.799706 0.091076 -0.541055
O25   O     O_3   0.227553 0.190800 0.393140 -0.575343
O26   O     O_3   0.798102 0.820543 0.592832 -0.540315
O27   O     O_3   0.193437 0.145228 0.225499 -0.672125
O28   O     O_3   0.805470 0.856933 0.775157 -0.652220
O29   O     O_3   0.854880 0.192754 0.725877 -0.674254
O30   O     O_3   0.147666 0.808002 0.272003 -0.658010
O31   O     O_3   0.806563 0.854772 0.225499 -0.672126
O32   O     O_3   0.194529 0.143067 0.775157 -0.652220
O33   O     O_3   0.145120 0.807246 0.725877 -0.674254
O34   O     O_R   0.615090 0.092980 0.558760 -0.480452
O35   O     O_3   0.852334 0.191998 0.272003 -0.658010
O36   O     O_3   0.184121 0.947425 0.819526 -0.675352
O37   O     O_3   0.815864 0.051647 0.180069 -0.679991
O38   O     O_3   0.950395 0.818425 0.320117 -0.678965
O39   O     O_3   0.055791 0.185608 0.683128 -0.681049
O40   O     O_3   0.815878 0.052575 0.819526 -0.675351
O41   O     O_3   0.184136 0.948353 0.180069 -0.679991
O42   O     O_3   0.049605 0.181575 0.320117 -0.678965
O43   O     O_3   0.944209 0.814392 0.683128 -0.681049
O44   O     O_R   0.092980 0.384910 0.941240 -0.492649
O45   O     O_R   0.907020 0.615090 0.058760 -0.489043
O46   O     O_R   0.615090 0.092980 0.441240 -0.500444
O47   O     O_R   0.384910 0.907020 0.558760 -0.480452
O48   O     O_R   0.907020 0.384910 0.058760 -0.459882

loop_
_geom_bond_atom_site_label_1
_geom_bond_atom_site_label_2
_ccdc_geom_bond_type
C66   C68   S    
C73   H37   S    
Cu3   Cu4   S    
C85   H68   S    
C66   H19   S    
C74   H38   S    
Cu4   O3    S    
C73   C74   S    
C30   O10   S    
Cu3   O4    S    
C14   C31   A    
Cu2   O5    S    
C43   C51   A    
C24   C89   A    
C57   H34   S    
Cu2   O12   S    
C72   H35   S    
C79   H51   S    
C83   H60   S    
C76   H43   S    
C46   C49   A    
C58   O10   S    
C69   O16   S    
C38   O18   S    
C8    O5    A    
C26   C67   A    
C30   C48   A    
C65   H16   S    
C1    C56   S    
C7    C52   S    
C3    O1    A    
C75   H41   S    
C87   H72   S    
C22   O38   S    
C44   O25   S    
C74   H39   S    
C40   O20   S    
C3    C48   S    
C20   O36   S    
C39   O19   S    
H86   O33   S    
C1    C2    S    
Cu2   O44   S    
C10   C53   S    
C86   O25   S    
C65   H17   S    
C17   C35   A    
C36   C53   A    
C19   C37   A    
C68   H24   S    
C77   H48   S    
H93   O40   S    
H80   O27   S    
C27   C44   A    
C35   O15   S    
C80   H53   S    
C55   O9    S    
Cu3   O47   S    
C88   H74   S    
H82   O29   S    
C12   C78   S    
C90   H77   S    
C2    C22   A    
H84   O31   S    
C17   O32   S    
C85   H66   S    
C13   O28   S    
C63   H11   S    
H94   O41   S    
C88   O26   S    
C11   O27   S    
C38   C48   A    
C28   O43   S    
C20   C34   A    
C71   O17   S    
C64   O14   S    
C7    O44   A    
C22   C40   A    
C9    O46   A    
Cu4   O34   S    
C24   C41   A    
C37   O17   S    
C16   O31   S    
C61   H5    S    
C31   C49   A    
C70   H29   S    
C63   H13   S    
C84   O24   S    
C26   C43   A    
C64   H14   S    
C14   C45   A    
C6    O34   A    
C77   C79   S    
C21   O37   S    
C87   H73   S    
C25   O40   S    
C55   H12   S    
Cu3   O23   S    
C25   C78   A    
Cu1   O45   S    
C12   C89   S    
C15   C32   A    
H95   O42   S    
C84   C85   S    
C55   H1    S    
C60   H3    S    
C10   O3    A    
Cu1   Cu2   S    
H92   O39   S    
C28   C45   A    
C84   H64   S    
C27   C56   A    
C12   C45   S    
C83   H62   S    
H85   O32   S    
C29   O9    S    
C58   C59   S    
C81   H57   S    
H91   O38   S    
Cu1   O1    S    
C69   H25   S    
C82   O22   S    
C72   H32   S    
C60   C61   S    
Cu4   O8    S    
C25   C42   A    
C61   H7    S    
C75   C76   S    
C65   H18   S    
C62   C63   S    
C79   H49   S    
C16   C33   A    
C20   C38   A    
C70   H28   S    
C4    O12   A    
C79   H50   S    
C90   H79   S    
C63   H10   S    
C81   H54   S    
C5    O23   A    
C90   H76   S    
H96   O43   S    
C36   O16   S    
C59   H89   S    
C18   O33   S    
C8    C51   S    
C41   C53   A    
C77   O20   S    
C68   H22   S    
C80   O21   S    
C37   C54   A    
C16   C67   A    
C9    C54   S    
C73   O18   S    
C29   C47   A    
C24   O39   S    
C46   O26   S    
C60   O11   S    
C21   C23   A    
H81   O28   S    
C5    C50   S    
C61   H6    S    
C86   H70   S    
C59   H2    S    
C76   H46   S    
C12   C34   S    
C59   H78   S    
C33   O14   S    
C42   O22   S    
C86   C87   S    
C39   C47   A    
C62   H9    S    
C71   H30   S    
C44   C50   A    
C66   O15   S    
C73   H36   S    
C75   O19   S    
C88   H75   S    
C66   H20   S    
C2    C19   A    
C75   H42   S    
C18   C89   A    
C21   C39   A    
C7    O6    A    
H88   O36   S    
C72   H33   S    
C88   C90   S    
C80   C81   S    
C9    O4    A    
C6    O7    A    
C84   H63   S    
C82   H59   S    
C57   H23   S    
C1    C23   S    
C5    O8    A    
C86   H69   S    
C76   H44   S    
C26   O41   S    
C33   C51   A    
C85   H65   S    
C69   H26   S    
C40   C54   A    
C28   C46   A    
H87   O35   S    
C64   C65   S    
C32   O13   S    
C55   C57   S    
C19   O35   S    
C71   C72   S    
C3    O2    A    
C15   C56   A    
Cu1   O6    S    
C43   O24   S    
C70   H27   S    
Cu4   O46   S    
C64   H15   S    
C87   H71   S    
C81   H55   S    
Cu3   O7    S    
C74   H40   S    
Cu1   O48   S    
C11   C23   A    
C17   C78   A    
C1    C67   S    
C32   C50   A    
C6    C49   S    
C69   C70   S    
C14   O29   S    
C77   H47   S    
C62   O13   S    
C31   O11   S    
C57   H45   S    
C68   H21   S    
C41   O21   S    
C8    O45   A    
C58   H56   S    
C27   O42   S    
C13   C34   A    
C83   H61   S    
C13   C30   A    
C11   C29   A    
C10   O47   A    
C82   C83   S    
C60   H4    S    
C35   C52   A    
C4    O48   A    
C71   H31   S    
C80   H52   S    
H83   O30   S    
H90   O37   S    
C15   O30   S    
C58   H67   S    
C18   C36   A    
C82   H58   S    
Cu2   O2    S    
C42   C52   A    
C62   H8    S    
C4    C47   S    
