data_mof_unit_1343.cif
_audit_creation_date              2012-12-11T16:09:00-0500
_audit_creation_method            fapswitch 2.2
_symmetry_space_group_name_H-M    P1
_symmetry_Int_Tables_number       1
_space_group_crystal_system       triclinic
_cell_length_a                    12.973572
_cell_length_b                    13.280994
_cell_length_c                    27.725842
_cell_angle_alpha                 94.727712
_cell_angle_beta                  90.310541
_cell_angle_gamma                 119.385362
_cell_volume                      4142.62348924

loop_
_atom_site_label
_atom_site_type_symbol
_atom_type_description
_atom_site_fract_x
_atom_site_fract_y
_atom_site_fract_z
_atom_type_partial_charge
C1    C     C_R   0.627442 0.896061 0.427101 0.546487
C2    C     C_R   0.188908 0.751670 0.297769 0.003303
C3    C     C_R   0.176392 0.745343 0.197191 0.009206
C4    C     C_R   0.600919 0.221817 0.440486 0.546616
C5    C     C_R   0.185386 0.658216 0.218838 -0.132704
C6    C     C_R   0.189795 0.660437 0.268966 -0.140013
C7    C     C_R   0.159314 0.736656 0.147381 -0.127890
C8    C     C_R   0.130369 0.812473 0.126180 -0.004314
C9    C     C_R   0.205314 0.943506 0.355786 -0.137314
C10   C     C_R   0.188690 0.936653 0.305479 0.009492
C11   C     C_R   0.184450 0.842148 0.276395 0.061591
C12   C     C_R   0.580951 0.258090 0.220304 -0.112849
C13   C     C_R   0.181799 0.024786 0.283517 -0.137049
C14   C     C_R   0.168308 0.017929 0.233095 -0.137201
C15   C     C_R   0.163740 0.924007 0.204071 0.010111
C16   C     C_R   0.269762 0.876386 0.425359 0.542537
C17   C     C_R   0.175921 0.837834 0.225871 0.061369
C18   C     C_R   0.139814 0.910270 0.153996 -0.136816
C19   C     C_R   0.215006 0.855538 0.376713 -0.003494
C20   C     C_R   0.746656 0.944488 0.355488 -0.127508
C21   C     C_R   0.749107 0.936164 0.305390 -0.010984
C22   C     C_R   0.749643 0.923788 0.204366 0.032795
C23   C     C_R   0.570170 0.243292 0.269654 -0.134187
C24   C     C_R   0.838822 0.022756 0.232352 0.115205
C25   C     C_R   0.838674 0.026808 0.282827 -0.104719
C26   C     C_R   0.753845 0.912044 0.154319 -0.143826
C27   C     C_R   0.677878 0.806758 0.127182 0.021368
C28   C     C_R   0.627505 0.898244 0.564743 0.548333
C29   C     C_R   0.559870 0.763418 0.351122 -0.130686
C30   C     C_R   0.563909 0.751235 0.300778 0.020365
C31   C     C_R   0.657316 0.839538 0.277685 0.053699
C32   C     C_R   0.473236 0.655377 0.273054 -0.127871
C33   C     C_R   0.476005 0.645524 0.222721 -0.127793
C34   C     C_R   0.665419 0.313788 0.303007 0.065583
C35   C     C_R   0.569162 0.732389 0.199051 0.020926
C36   C     C_R   0.658494 0.831978 0.226985 0.014822
C37   C     C_R   0.579144 0.719815 0.148503 0.082457
C38   C     C_R   0.648710 0.862577 0.378293 -0.002069
C39   C     C_R   0.734271 0.281804 0.651495 -0.188103
C40   C     C_R   0.604454 0.228508 0.577917 0.575859
C41   C     C_R   0.752480 0.312652 0.701145 0.003527
C42   C     C_R   0.766002 0.348236 0.802579 0.076008
C43   C     C_R   0.833440 0.304957 0.778872 -0.063598
C44   C     C_R   0.826497 0.287054 0.728455 -0.110731
C45   C     C_R   0.687441 0.343088 0.203770 0.019215
C46   C     C_R   0.768147 0.362154 0.853300 0.376396
C47   C     C_R   0.698248 0.403833 0.875986 0.023403
C48   C     C_R   0.596866 0.356351 0.646827 0.397869
C49   C     C_R   0.614541 0.388675 0.696787 0.028296
C50   C     C_R   0.688745 0.361660 0.724229 -0.033068
C51   C     C_R   0.553628 0.439866 0.720514 0.419847
C52   C     C_R   0.271743 0.879251 0.563379 0.547699
C53   C     C_R   0.559441 0.455668 0.770836 -0.096922
C54   C     C_R   0.626855 0.422226 0.797996 -0.057068
C55   C     C_R   0.694801 0.378397 0.774943 0.028193
C56   C     C_1   0.695358 0.366029 0.153665 -0.052407
C57   C     C_R   0.627559 0.432740 0.848039 -0.181985
C58   C     C_R   0.649954 0.295326 0.625079 -0.015686
C59   C     C_1   0.221793 0.862043 0.610003 0.019060
C60   C     C_R   0.071011 0.749153 0.717695 -0.067836
C61   C     C_R   0.055350 0.738788 0.767294 0.384909
C62   C     C_R   0.237506 0.921548 0.785801 -0.159198
C63   C     C_R   0.253105 0.931654 0.736223 -0.096830
C64   C     C_1   0.632416 0.267951 0.394502 -0.004683
C65   C     C_R   0.170166 0.845382 0.702066 -0.009237
C66   C     C_R   0.139059 0.824812 0.801486 0.040688
C67   C     C_1   0.650914 0.293778 0.353502 -0.026088
C68   C     C_1   0.122369 0.813295 0.852453 0.010105
C69   C     C_1   0.192847 0.852575 0.651352 -0.021716
C70   C     C_1   0.099480 0.796924 0.894136 0.022023
C71   C     C_1   0.647195 0.858958 0.608767 0.026008
C72   C     C_R   0.770221 0.807987 0.714160 -0.169858
C73   C     C_R   0.782131 0.792776 0.762735 -0.136867
C74   C     C_R   0.583523 0.761555 0.775818 0.142244
C75   C     C_R   0.572224 0.777211 0.726755 0.446238
C76   C     C_R   0.773385 0.399119 0.286684 0.123498
C77   C     C_R   0.666080 0.801842 0.696236 0.054035
C78   C     C_1   0.703546 0.393846 0.112945 -0.007883
C79   C     C_R   0.690215 0.771471 0.793807 0.009382
C80   C     C_1   0.708317 0.764746 0.844562 -0.010547
C81   C     C_1   0.658148 0.830416 0.647816 0.032072
C82   C     C_1   0.725196 0.760333 0.886955 0.007864
C83   C     C_R   0.065996 0.773185 0.078907 0.545019
C84   C     C_R   0.716981 0.441194 0.067252 0.549202
C85   C     C_R   0.719158 0.783007 0.080606 0.578743
C86   C     C_R   0.056341 0.766251 0.941203 0.536404
C87   C     C_R   0.711988 0.439059 0.927891 0.573029
C88   C     C_R   0.783526 0.413129 0.236811 -0.080634
C89   C     C_R   0.198217 0.756368 0.347705 -0.128479
C90   C     C_R   0.748745 0.754305 0.936945 0.555929
Cr1   Cr    Cr6+3 0.416430 0.829200 0.492370 1.053078
Cr2   Cr    Cr6+3 0.674630 0.087020 0.504170 1.034224
Cr3   Cr    Cr6+3 0.408920 0.083740 0.503490 1.072410
Cr4   Cr    Cr6+3 0.914010 0.832750 0.013970 1.028983
Cr5   Cr    Cr6+3 0.922310 0.578600 0.003000 1.084034
Cr6   Cr    Cr6+3 0.656280 0.574630 0.003870 1.049667
F1    F     F_    0.838069 0.336202 0.880406 -0.624112
F2    F     F_    0.484943 0.470846 0.695518 -0.553034
F3    F     F_    0.521640 0.376018 0.619980 -0.545502
F4    F     F_    0.959143 0.644576 0.781933 -0.644557
F5    F     F_    0.471494 0.771570 0.708938 -0.622635
H1    H     H_    0.161276 0.085802 0.216836 0.100911
H2    H     H_    0.484064 0.699766 0.368683 0.124702
H3    H     H_    0.777638 0.237141 0.634436 0.153212
H4    H     H_    0.889519 0.282436 0.799201 0.178050
H5    H     H_    0.876211 0.249821 0.710880 0.122929
H6    H     H_    0.576460 0.468978 0.865227 0.147082
H7    H     H_    0.509293 0.492147 0.788621 0.131872
H8    H     H_    0.006956 0.681526 0.691613 0.139947
H9    H     H_    0.505725 0.204405 0.195169 0.123063
H10   H     H_    0.302501 0.988514 0.811813 0.130144
H11   H     H_    0.330770 0.005912 0.724505 0.142285
H12   H     H_    0.185979 0.098401 0.305307 0.108768
H13   H     H_    0.843382 0.827618 0.690959 0.129093
H14   H     H_    0.864330 0.800552 0.776425 0.163486
H15   H     H_    0.487024 0.176964 0.281894 0.121898
H16   H     H_    0.155542 0.662778 0.125879 0.136929
H17   H     H_    0.203862 0.687112 0.363546 0.139004
H18   H     H_    0.185443 0.586655 0.197026 0.107671
H19   H     H_    0.194886 0.591426 0.285218 0.107393
H20   H     H_    0.119836 0.970345 0.137468 0.124323
H21   H     H_    0.946056 0.525234 0.302455 0.227723
H22   H     H_    0.848940 0.524508 0.342191 0.232963
H23   H     H_    0.217731 0.019955 0.378132 0.127717
H24   H     H_    0.985949 0.089943 0.194155 0.214810
H25   H     H_    0.981995 0.187633 0.235236 0.226074
H26   H     H_    0.410270 0.611555 0.122125 0.220458
H27   H     H_    0.491526 0.545034 0.131526 0.234466
H28   H     H_    0.456228 0.654414 0.817401 0.229634
H29   H     H_    0.419277 0.741437 0.790408 0.293827
H30   H     H_    0.824612 0.981019 0.136770 0.170494
H31   H     H_    0.816043 0.021066 0.376292 0.138195
H32   H     H_    0.907703 0.101724 0.304561 0.105289
H33   H     H_    0.405163 0.568883 0.202796 0.104092
H34   H     H_    0.400338 0.587602 0.290324 0.102013
H35   H     H_    0.865422 0.479810 0.223841 0.112726
N1    N     N_3   0.871596 0.470596 0.320671 -0.626739
N2    N     N_3   0.929915 0.117986 0.209508 -0.634300
N3    N     N_3   0.493579 0.618113 0.119011 -0.597217
N4    N     N_3   0.489438 0.739060 0.807930 -0.595460
O1    O     O_R   0.296680 0.802170 0.437540 -0.522690
O2    O     O_R   0.637200 0.461990 0.052510 -0.502579
O3    O     O_R   0.664790 0.681920 0.057970 -0.449837
O4    O     O_R   0.525380 0.838530 0.443500 -0.503177
O5    O     O_R   0.815840 0.852920 0.961840 -0.488922
O6    O     O_R   0.012100 0.822630 0.963670 -0.519562
O7    O     O_R   0.037010 0.668460 0.953040 -0.477463
O8    O     O_R   0.813390 0.478970 0.949660 -0.432970
O9    O     O_R   0.632250 0.456930 0.945520 -0.543997
O10   O     O_R   0.660200 0.677230 0.958780 -0.493066
O11   O     O_3   0.830870 0.661990 0.006950 -0.288965
O12   O     O_R   0.662610 0.183990 0.557860 -0.520420
O13   O     O_R   0.702130 0.995190 0.446810 -0.517632
O14   O     O_R   0.661770 0.181390 0.458760 -0.492456
O15   O     O_R   0.499820 0.198480 0.455280 -0.505428
O16   O     O_R   0.311660 0.976250 0.449080 -0.504145
O17   O     O_R   0.297580 0.804960 0.544440 -0.490711
O18   O     O_R   0.526220 0.841130 0.542590 -0.475131
O19   O     O_R   0.703030 0.997990 0.553710 -0.516952
O20   O     O_R   0.500730 0.201280 0.562180 -0.433132
O21   O     O_R   0.312500 0.978850 0.548170 -0.494286
O22   O     O_3   0.499990 0.999990 0.500010 -0.259946
O23   O     O_R   0.820790 0.857990 0.068830 -0.529558
O24   O     O_R   0.016700 0.827330 0.062850 -0.502571
O25   O     O_R   0.041970 0.673520 0.060040 -0.517572
O26   O     O_R   0.817980 0.483660 0.048840 -0.489229

loop_
_geom_bond_atom_site_label_1
_geom_bond_atom_site_label_2
_ccdc_geom_bond_type
Cr4   O6    S    
C15   C18   A    
C66   C68   S    
C83   O24   A    
C63   C65   A    
Cr3   O15   S    
Cr3   O20   S    
C8    C83   S    
C7    H16   S    
C4    O14   A    
C35   C36   A    
C90   O10   A    
H29   N4    S    
C86   O7    A    
C85   O3    A    
C12   H9    S    
C7    C8    A    
C39   C41   A    
C53   C54   A    
C21   C31   A    
C12   C23   A    
C40   O12   A    
C26   C27   A    
C72   C77   A    
C5    H18   S    
Cr2   O19   S    
C35   C37   A    
H27   N3    S    
C27   C37   A    
C90   O5    A    
C3    C7    A    
C42   C46   A    
C30   C31   A    
C14   H1    S    
C61   C66   A    
C72   H13   S    
C9    H23   S    
C56   C78   T    
C29   H2    S    
C43   H4    S    
C63   H11   S    
C27   C85   S    
Cr1   O18   S    
C22   C26   A    
C60   H8    S    
C23   H15   S    
C46   C47   A    
C33   H33   S    
C9    C19   A    
C11   C17   A    
C62   H10   S    
C45   C56   S    
C49   C51   A    
C29   C38   A    
C16   O16   A    
Cr1   O22   S    
Cr2   O13   S    
C77   C81   S    
C29   C30   A    
C25   H32   S    
C9    C10   A    
C76   C88   A    
C52   O21   A    
Cr4   O5    S    
C13   C14   A    
C4    C64   S    
C2    C6    A    
H26   N3    S    
C20   H31   S    
C2    C11   A    
Cr5   O25   S    
C6    H19   S    
C40   C58   S    
C74   C75   A    
C62   C66   A    
C64   C67   T    
C39   H3    S    
C45   C88   A    
Cr5   O7    S    
C24   C25   A    
C88   H35   S    
C80   C82   T    
C87   O8    A    
C72   C73   A    
C24   N2    S    
Cr4   O11   S    
C76   N1    S    
Cr6   O11   S    
C74   N4    S    
C28   O19   A    
C8    C18   A    
C60   C61   A    
C51   C53   A    
C47   C87   S    
C2    C89   A    
C43   C44   A    
Cr2   O12   S    
C62   C63   A    
C19   C89   A    
C52   C59   S    
C42   C55   A    
C47   C57   A    
C20   C38   A    
C84   O2    A    
C23   C34   A    
Cr6   O10   S    
C28   O18   A    
C73   C79   A    
C89   H17   S    
C1    O13   A    
C83   O25   A    
C1    C38   S    
C59   C69   T    
C48   C49   A    
C57   H6    S    
C46   F1    S    
Cr3   O21   S    
C74   C79   A    
C37   N3    S    
C85   O23   A    
C41   C44   A    
C22   C24   A    
C28   C71   S    
Cr5   O11   S    
C42   C43   A    
C70   C86   S    
Cr5   O26   S    
Cr4   O24   S    
C41   C50   A    
C86   O6    A    
Cr1   O4    S    
Cr2   O22   S    
C52   O17   A    
C15   C17   A    
C48   F3    S    
C21   C25   A    
C54   C55   A    
H25   N2    S    
C31   C36   A    
C40   O20   A    
Cr3   O16   S    
Cr5   O8    S    
H21   N1    S    
C12   C45   A    
C3    C5    A    
C10   C13   A    
C73   H14   S    
C34   C67   S    
C60   C65   A    
C32   H34   S    
C48   C58   A    
C44   H5    S    
H24   N2    S    
C22   C36   A    
H22   N1    S    
C50   C55   A    
C82   C90   S    
C32   C33   A    
C16   O1    A    
C1    O4    A    
Cr6   O3    S    
C30   C32   A    
C39   C58   A    
C53   H7    S    
C5    C6    A    
H28   N4    S    
Cr3   O22   S    
C51   F2    S    
C16   C19   S    
C65   C69   S    
Cr6   O9    S    
C33   C35   A    
C3    C17   A    
Cr1   O17   S    
C84   O26   A    
C10   C11   A    
C18   H20   S    
Cr6   O2    S    
C79   C80   S    
C61   F4    S    
C78   C84   S    
C4    O15   A    
C20   C21   A    
C68   C70   T    
C49   C50   A    
C87   O9    A    
C75   C77   A    
C75   F5    S    
C14   C15   A    
Cr2   O14   S    
Cr1   O1    S    
Cr4   O23   S    
C13   H12   S    
C26   H30   S    
C34   C76   A    
C71   C81   T    
C54   C57   A    
