data_mof_unit_4806.cif
_audit_creation_date              2012-10-26T19:44:11-0400
_audit_creation_method            fapswitch 2.2
_symmetry_space_group_name_H-M    P1
_symmetry_Int_Tables_number       1
_space_group_crystal_system       triclinic
_cell_length_a                    13.697041
_cell_length_b                    15.035476
_cell_length_c                    15.772773
_cell_angle_alpha                 89.134633
_cell_angle_beta                  69.332906
_cell_angle_gamma                 90.505024
_cell_volume                      3038.53879743

loop_
_atom_site_label
_atom_site_type_symbol
_atom_type_description
_atom_site_fract_x
_atom_site_fract_y
_atom_site_fract_z
_atom_type_partial_charge
C1    C     C_R   0.501937 0.671157 0.496861 0.611533
C2    C     C_R   0.506143 0.767671 0.492885 0.001828
C3    C     C_R   0.497311 0.188775 0.427732 -0.138008
C4    C     C_R   0.505975 0.811218 0.570268 -0.124605
C5    C     C_R   0.496577 0.096413 0.425604 0.018431
C6    C     C_R   0.508756 0.903487 0.571549 0.018469
C7    C     C_R   0.500921 0.046692 0.500572 0.036482
C8    C     C_R   0.504786 0.953120 0.496385 0.039037
C9    C     C_R   0.500576 0.090276 0.579861 0.008917
C10   C     C_R   0.504906 0.909396 0.417195 0.022938
C11   C     C_R   0.491411 0.053166 0.349503 -0.094577
C12   C     C_R   0.498370 0.328765 0.502660 0.607664
C13   C     C_R   0.515232 0.946713 0.647167 -0.092527
C14   C     C_R   0.493291 0.960777 0.346089 -0.048538
C15   C     C_R   0.513624 0.039040 0.650433 -0.061483
C16   C     C_R   0.436488 0.504671 0.672651 0.608368
C17   C     C_R   0.563818 0.493978 0.327277 0.610099
C18   C     C_R   0.227033 0.563536 0.451611 0.106000
C19   C     C_R   0.773454 0.435011 0.546447 0.125882
C20   C     C_R   0.186856 0.436302 0.548306 0.126026
C21   C     C_R   0.811896 0.565668 0.455034 0.129323
C22   C     C_R   0.081933 0.434889 0.551734 -0.027426
C23   C     C_R   0.372027 0.476460 0.097972 0.246496
C24   C     C_R   0.914914 0.569421 0.455832 -0.040202
C25   C     C_R   0.051414 0.500010 0.500538 -0.037167
C26   C     C_R   0.947946 0.500068 0.500656 -0.034411
C27   C     C_R   0.124707 0.564892 0.448839 -0.026454
C28   C     C_R   0.877112 0.430889 0.545647 -0.032892
C29   C     C_R   0.008264 0.369123 0.602596 0.220130
C30   C     C_R   0.985658 0.639198 0.411378 0.186237
C31   C     C_R   0.910641 0.360750 0.589712 0.215932
C32   C     C_R   0.093500 0.630210 0.397715 0.235044
C33   C     C_R   0.398145 0.510279 0.772340 -0.029158
C34   C     C_R   0.626025 0.463042 0.901877 0.274798
C35   C     C_R   0.603145 0.478372 0.228299 0.005053
C36   C     C_R   0.272494 0.547301 0.919025 -0.088585
C37   C     C_R   0.732413 0.433837 0.085434 -0.086236
C38   C     C_R   0.302897 0.549976 0.824425 0.242625
C39   C     C_R   0.704623 0.446629 0.178647 0.196253
C40   C     C_R   0.463694 0.477320 0.815990 -0.089343
C41   C     C_R   0.532249 0.490288 0.183198 -0.135341
C42   C     C_R   0.442251 0.489166 0.908774 0.028126
C43   C     C_R   0.556149 0.466933 0.092229 -0.007781
C44   C     C_R   0.340560 0.516237 0.961215 -0.063124
C45   C     C_R   0.305930 0.507824 0.055166 -0.022933
C46   C     C_R   0.660164 0.445609 0.042045 -0.022097
C47   C     C_R   0.516964 0.472929 0.951516 0.062843
C48   C     C_R   0.481392 0.471285 0.048411 -0.015476
C49   C     C_R   0.693490 0.441924 0.948156 -0.070915
C50   C     C_R   0.488195 0.183582 0.585244 0.229779
C51   C     C_R   0.515058 0.815782 0.412785 0.195995
C52   C     C_R   0.495232 0.232131 0.505836 0.020543
Cu1   Cu    Cu3+1 0.402580 0.500010 0.499990 1.086288
Cu2   Cu    Cu3+1 0.597420 0.499990 0.500010 1.108594
H1    H     H_    0.224718 0.519156 0.095286 0.186699
H2    H     H_    0.811392 0.415067 0.045815 0.176004
H3    H     H_    0.498422 0.227477 0.368718 0.124009
H4    H     H_    0.504580 0.772693 0.629473 0.151256
H5    H     H_    0.484380 0.090885 0.292875 0.142751
H6    H     H_    0.522532 0.909013 0.703701 0.146934
H7    H     H_    0.481780 0.930715 0.288626 0.206626
H8    H     H_    0.525689 0.069229 0.707632 0.205410
H9    H     H_    0.119503 0.321785 0.778673 0.384591
H10   H     H_    0.832085 0.764657 0.520387 0.346823
H11   H     H_    0.728305 0.189945 0.568516 0.374960
H12   H     H_    0.775223 0.430265 0.910046 0.145794
H13   H     H_    0.334655 0.660212 0.202444 0.387072
H14   H     H_    0.862669 0.557061 0.206024 0.363820
H15   H     H_    0.250806 0.699324 0.661980 0.376384
H16   H     H_    0.367827 0.396502 0.196126 0.330485
H17   H     H_    0.744145 0.470811 0.786708 0.343535
H18   H     H_    0.324362 0.330156 0.756862 0.364103
H19   H     H_    0.701329 0.715441 0.315209 0.376951
H20   H     H_    0.283993 0.614134 0.416980 0.218204
H21   H     H_    0.714443 0.387954 0.585841 0.213729
H22   H     H_    0.215515 0.385533 0.582084 0.215017
H23   H     H_    0.785331 0.613657 0.416824 0.211110
H24   H     H_    0.458504 0.520501 0.219593 0.223778
H25   H     H_    0.529685 0.439298 0.776353 0.241971
H26   H     H_    0.196562 0.571677 0.960135 0.178231
N1    N     N_R   0.256170 0.500070 0.500040 -0.273042
N2    N     N_R   0.743830 0.499930 0.499960 -0.256952
O1    O     O_R   0.417730 0.629750 0.499970 -0.484036
O2    O     O_2   0.100644 0.225964 0.642926 -0.223997
O3    O     O_3   0.100056 0.364556 0.739163 -0.507355
O4    O     O_2   0.008836 0.818238 0.379357 -0.152770
O5    O     O_2   0.923558 0.732568 0.293413 -0.206155
O6    O     O_3   0.819660 0.763646 0.462231 -0.540321
O7    O     O_2   0.904513 0.181481 0.618289 -0.154941
O8    O     O_2   0.753417 0.267090 0.710046 -0.227261
O9    O     O_3   0.779335 0.238756 0.541276 -0.509448
O10   O     O_2   0.147906 0.724836 0.238911 -0.182049
O11   O     O_2   0.227023 0.769769 0.349482 -0.224682
O12   O     O_R   0.582270 0.370250 0.500030 -0.468307
O13   O     O_3   0.291959 0.626492 0.257774 -0.516131
O14   O     O_2   0.755207 0.360863 0.307875 -0.215477
O15   O     O_2   0.893543 0.379211 0.160072 -0.243736
O16   O     O_3   0.840047 0.517771 0.260685 -0.484905
O17   O     O_2   0.167497 0.542368 0.736631 -0.230285
O18   O     O_2   0.143694 0.661813 0.845447 -0.238237
O19   O     O_3   0.298016 0.676409 0.692229 -0.534269
O20   O     O_3   0.325445 0.445954 0.186163 -0.652829
O21   O     O_3   0.667890 0.481240 0.809766 -0.704675
O22   O     O_2   0.397298 0.175898 0.769734 -0.264105
O23   O     O_R   0.582270 0.629730 0.499980 -0.507989
O24   O     O_2   0.541558 0.282673 0.702604 -0.276818
O25   O     O_3   0.360296 0.316444 0.692113 -0.520670
O26   O     O_2   0.461402 0.713525 0.297866 -0.236410
O27   O     O_2   0.604411 0.820038 0.227196 -0.250212
O28   O     O_3   0.643073 0.681816 0.306684 -0.504616
O29   O     O_R   0.417730 0.370270 0.500020 -0.506940
O30   O     O_R   0.371590 0.500020 0.629830 -0.418633
O31   O     O_R   0.628410 0.499980 0.370170 -0.412408
O32   O     O_R   0.536130 0.499990 0.629840 -0.514866
O33   O     O_R   0.463870 0.500010 0.370160 -0.511662
O34   O     O_2   0.936024 0.270030 0.759078 -0.185602
S1    S     S_3+6 0.034942 0.303543 0.687367 0.071976
S2    S     S_3+6 0.936499 0.741172 0.383669 0.073017
S3    S     S_3+6 0.836315 0.259110 0.617884 0.085175
S4    S     S_3+6 0.190151 0.691984 0.309439 0.081472
S5    S     S_3+6 0.800449 0.422703 0.227385 0.060566
S6    S     S_3+6 0.223146 0.607786 0.775335 0.048936
S7    S     S_3+6 0.448189 0.238880 0.691193 0.012199
S8    S     S_3+6 0.554774 0.758938 0.307560 0.036749

loop_
_geom_bond_atom_site_label_1
_geom_bond_atom_site_label_2
_ccdc_geom_bond_type
O16   S5    S    
C23   C45   A    
C22   C29   A    
C2    C4    A    
O25   S7    S    
C17   O31   A    
C7    C8    A    
C13   H6    S    
Cu1   Cu2   S    
C46   C49   A    
C16   O30   A    
O14   S5    D    
C24   C26   A    
C5    C11   A    
C11   C14   A    
C23   O20   S    
Cu2   O31   S    
C18   N1    A    
O34   S1    D    
C20   H22   S    
Cu1   N1    S    
C1    C2    S    
O15   S5    D    
O28   S8    S    
C37   H2    S    
O7    S3    D    
O2    S1    D    
C22   C25   A    
O24   S7    D    
C50   C52   A    
O11   S4    D    
C19   N2    A    
C43   C48   A    
C18   C27   A    
Cu1   O29   S    
C40   C42   A    
C18   H20   S    
H11   O9    S    
C20   N1    A    
H9    O3    S    
H13   O13   S    
C51   S8    S    
C41   C43   A    
C12   O12   A    
C42   C44   A    
C32   S4    S    
C11   H5    S    
C10   C51   A    
C12   C52   S    
C24   C30   A    
C33   C40   A    
C49   H12   S    
C50   S7    S    
H19   O28   S    
O5    S2    D    
C4    C6    A    
C10   C14   A    
C41   H24   S    
O22   S7    D    
C6    C8    A    
C30   S2    S    
C25   C26   A    
C14   H7    S    
C29   S1    S    
C35   C39   A    
C16   C33   S    
C47   C48   A    
H18   O25   S    
C40   H25   S    
O4    S2    D    
O3    S1    S    
C19   C28   A    
C31   S3    S    
C38   S6    S    
O17   S6    D    
C3    H3    S    
Cu1   O30   S    
C8    C10   A    
C20   C22   A    
C13   C15   A    
C36   H26   S    
O9    S3    S    
C36   C44   A    
C1    O1    A    
O6    S2    S    
Cu2   N2    S    
C44   C45   A    
C17   O33   A    
C5    C7    A    
C7    C9    A    
H17   O21   S    
C34   C49   A    
C23   C48   A    
Cu2   O23   S    
C4    H4    S    
C27   C32   A    
C28   C31   A    
C9    C50   A    
C33   C38   A    
C3    C5    A    
C16   O32   A    
C3    C52   A    
H16   O20   S    
O27   S8    D    
H15   O19   S    
O13   S4    S    
C25   C27   A    
C26   C28   A    
O19   S6    S    
C39   S5    S    
Cu1   O1    S    
O8    S3    D    
C19   H21   S    
O10   S4    D    
C29   C31   A    
C6    C13   A    
C30   C32   A    
Cu2   O32   S    
C34   O21   S    
C36   C38   A    
C15   H8    S    
O26   S8    D    
O18   S6    D    
C42   C47   A    
C9    C15   A    
C35   C41   A    
C43   C46   A    
H14   O16   S    
Cu2   O12   S    
C2    C51   A    
C21   N2    A    
C45   H1    S    
C37   C39   A    
C21   C24   A    
C21   H23   S    
C34   C47   A    
C17   C35   S    
C37   C46   A    
H10   O6    S    
C12   O29   A    
Cu1   O33   S    
C1    O23   A    
