data_mof_unit_2478.cif
_audit_creation_date              2012-12-10T19:09:33-0500
_audit_creation_method            fapswitch 2.2
_symmetry_space_group_name_H-M    P1
_symmetry_Int_Tables_number       1
_space_group_crystal_system       triclinic
_cell_length_a                    9.591633
_cell_length_b                    10.886653
_cell_length_c                    17.026544
_cell_angle_alpha                 89.924058
_cell_angle_beta                  94.24198
_cell_angle_gamma                 90.578786
_cell_volume                      1772.9637064

loop_
_atom_site_label
_atom_site_type_symbol
_atom_type_description
_atom_site_fract_x
_atom_site_fract_y
_atom_site_fract_z
_atom_type_partial_charge
C1    C     C_R   0.500079 0.262775 0.502574 0.803460
C2    C     C_R   0.618831 0.438980 0.781051 -0.256873
C3    C     C_R   0.535332 0.448687 0.134974 -0.188903
C4    C     C_R   0.541878 0.431893 0.215989 0.124724
C5    C     C_R   0.458375 0.545761 0.099118 0.310194
C6    C     C_R   0.470993 0.513035 0.263181 -0.077091
C7    C     C_R   0.389994 0.607206 0.227606 -0.301711
C8    C     C_R   0.382253 0.623542 0.145560 0.158614
C9    C     C_R   0.625681 0.064973 0.509429 -0.012198
C10   C     C_R   0.501844 0.130438 0.512406 -0.107984
C11   C     C_R   0.380375 0.065366 0.529173 -0.262187
C12   C     C_R   0.517612 0.503139 0.650599 0.803102
C13   C     C_R   0.379141 0.936165 0.530447 0.141264
C14   C     C_R   0.500245 0.871166 0.511988 -0.103158
C15   C     C_R   0.623446 0.938729 0.506999 0.026555
C16   C     C_3   0.740549 0.934221 0.453616 0.299032
C17   C     C_3   0.748711 0.074596 0.459660 -0.052839
C18   C     C_R   0.065004 0.514853 0.431690 0.225899
C19   C     C_R   0.083536 0.466274 0.564792 -0.140450
C20   C     C_R   0.935310 0.463607 0.564807 0.246239
C21   C     C_R   0.918065 0.512677 0.431160 0.204524
C22   C     C_3   0.908379 0.616314 0.373474 -0.097589
C23   C     C_R   0.500314 0.737676 0.502741 0.795673
C24   C     C_3   0.067554 0.619285 0.375509 -0.530610
C25   C     C_R   0.482162 0.502696 0.349197 0.795493
C26   C     C_R   0.527934 0.515534 0.736283 -0.082889
C27   C     C_R   0.450001 0.604903 0.773890 0.047037
C28   C     C_R   0.460243 0.612720 0.856585 0.179713
C29   C     C_R   0.546001 0.528734 0.901349 0.334325
C30   C     C_R   0.627347 0.445612 0.862700 -0.250617
Cu1   Cu    Cu3+1 0.640670 0.499980 0.500000 0.966640
Cu2   Cu    Cu3+1 0.359330 0.500020 0.500000 0.945186
H1    H     H_    0.844766 0.110669 0.492940 0.128090
H2    H     H_    0.110792 0.592587 0.319285 0.196810
H3    H     H_    0.589161 0.384068 0.099814 0.177580
H4    H     H_    0.680455 0.371403 0.752803 0.172395
N1    N     N_2   0.553761 0.521506 0.984784 -0.254255
N2    N     N_2   0.450706 0.562873 0.016247 -0.185596
N3    N     N_R   0.147870 0.500930 0.499500 -0.184555
N4    N     N_R   0.851960 0.500890 0.499500 -0.190129
O1    O     O_R   0.618810 0.319640 0.500000 -0.581198
O2    O     O_R   0.381230 0.319680 0.499990 -0.583533
O3    O     O_R   0.631790 0.498830 0.613930 -0.538162
O4    O     O_R   0.394210 0.498870 0.613920 -0.599767
O5    O     O_R   0.618770 0.680320 0.500010 -0.572938
O6    O     O_R   0.381190 0.680360 0.500000 -0.544579
O7    O     O_R   0.605790 0.501130 0.386080 -0.567375
O8    O     O_R   0.368210 0.501170 0.386070 -0.581274
N5    N     N_3   0.615077 0.327693 0.248214 -0.584640
H5    H     H_    0.545428 0.277131 0.280114 0.203666
H6    H     H_    0.698180 0.358654 0.286225 0.245537
N6    N     N_3   0.253689 0.872786 0.547980 -0.564374
H7    H     H_    0.227046 0.901180 0.603518 0.215967
H8    H     H_    0.174361 0.900114 0.506618 0.205954
N7    N     N_3   0.864389 0.872023 0.489097 -0.605793
H9    H     H_    0.947889 0.894663 0.455591 0.193072
H10   H     H_    0.889577 0.905788 0.545964 0.204691
N8    N     N_3   0.695918 0.889915 0.374148 -0.560566
H11   H     H_    0.660715 0.799137 0.376589 0.227025
H12   H     H_    0.781890 0.892097 0.339802 0.230527
N9    N     N_3   0.719458 0.135841 0.383771 -0.559650
H13   H     H_    0.613722 0.125464 0.365008 0.240033
H14   H     H_    0.741408 0.229230 0.391624 0.233354
H15   H     H_    0.145720 0.439218 0.617360 0.147300
N10   N     N_3   0.874999 0.416040 0.632786 -0.533081
H16   H     H_    0.912288 0.468534 0.681430 0.199439
H17   H     H_    0.909599 0.326001 0.641857 0.180149
N11   N     N_3   0.841394 0.579433 0.296994 -0.564627
H18   H     H_    0.852492 0.652204 0.257747 0.229391
H19   H     H_    0.892794 0.503954 0.274941 0.225755
H20   H     H_    0.862123 0.698488 0.397379 0.207007
H21   H     H_    0.114753 0.703808 0.403267 0.206734
H22   H     H_    0.695166 0.382822 0.896476 0.161041
H23   H     H_    0.334984 0.669242 0.263969 0.150119
N12   N     N_3   0.386411 0.707054 0.894581 -0.539707
H24   H     H_    0.419420 0.792367 0.874158 0.235504
H25   H     H_    0.279660 0.696644 0.878366 0.231511
N13   N     N_3   0.300541 0.720696 0.108983 -0.552954
H26   H     H_    0.255272 0.773133 0.151596 0.211442
H27   H     H_    0.218041 0.679952 0.074464 0.221505
N14   N     N_3   0.363692 0.691261 0.729479 -0.609316
H28   H     H_    0.280453 0.644044 0.699720 0.246949
H29   H     H_    0.423310 0.734752 0.688389 0.226121
H30   H     H_    0.284952 0.113831 0.538706 0.160824

loop_
_geom_bond_atom_site_label_1
_geom_bond_atom_site_label_2
_ccdc_geom_bond_type
N7    H9    S    
C23   O5    A    
C18   C21   A    
C19   C20   A    
N12   H24   S    
N14   H28   S    
C7    C8    A    
C26   C27   A    
N1    N2    D    
Cu1   O3    S    
C18   C24   S    
C21   C22   S    
C28   C29   A    
C12   O3    A    
C20   N4    A    
N13   H27   S    
C6    C25   S    
N8    H12   S    
C15   C16   S    
C2    H4    S    
Cu1   N4    S    
Cu2   N3    S    
N9    H14   S    
C17   N9    S    
C16   C17   S    
N5    H6    S    
C9    C10   A    
C25   O7    A    
C23   O6    A    
Cu1   O7    S    
C13   C14   A    
C8    N13   S    
Cu2   O8    S    
C17   H1    S    
N14   H29   S    
N6    H8    S    
C7    H23   S    
C20   N10   S    
C27   N14   S    
C4    C6    A    
C30   H22   S    
N13   H26   S    
N11   H18   S    
N10   H17   S    
N8    H11   S    
C24   H2    S    
C12   C26   S    
C14   C23   S    
C18   N3    A    
C29   C30   A    
C13   N6    S    
Cu1   Cu2   S    
C3    H3    S    
C19   H15   S    
Cu2   O4    S    
C2    C26   A    
C16   N8    S    
N12   H25   S    
C25   O8    A    
C22   N11   S    
C19   N3    A    
C1    O1    A    
N5    H5    S    
N7    H10   S    
C22   C24   S    
C3    C4    A    
C22   H20   S    
N6    H7    S    
C24   H21   S    
C9    C17   S    
Cu1   O1    S    
Cu2   O6    S    
C1    C10   S    
C3    C5    A    
C5    C8    A    
C6    C7    A    
C11   H30   S    
C4    N5    S    
C2    C30   A    
C9    C15   A    
C16   N7    S    
C12   O4    A    
C11   C13   A    
C21   N4    A    
N9    H13   S    
C10   C11   A    
C1    O2    A    
N11   H19   S    
N10   H16   S    
Cu1   O5    S    
C29   N1    S    
C27   C28   A    
Cu2   O2    S    
C14   C15   A    
C5    N2    S    
C28   N12   S    
