data_mof_unit_2804.cif
_audit_creation_date              2012-12-10T17:33:47-0500
_audit_creation_method            fapswitch 2.2
_symmetry_space_group_name_H-M    P1
_symmetry_Int_Tables_number       1
_space_group_crystal_system       triclinic
_cell_length_a                    11.689649
_cell_length_b                    12.420538
_cell_length_c                    13.174685
_cell_angle_alpha                 116.894871
_cell_angle_beta                  76.380007
_cell_angle_gamma                 101.132585
_cell_volume                      1649.69541018

loop_
_atom_site_label
_atom_site_type_symbol
_atom_type_description
_atom_site_fract_x
_atom_site_fract_y
_atom_site_fract_z
_atom_type_partial_charge
C1    C     C_R   0.511932 0.854753 0.285504 0.757042
C2    C     C_R   0.482277 0.226387 0.837459 -0.077584
C3    C     C_R   0.602252 0.808193 0.077435 -0.042909
C4    C     C_R   0.661546 0.722143 0.977225 -0.177915
C5    C     C_R   0.642388 0.599087 0.952969 -0.124987
C6    C     C_R   0.545289 0.557807 0.019692 -0.007509
C7    C     C_R   0.489925 0.644951 0.125399 0.090672
C8    C     C_R   0.501043 0.433357 0.985792 0.043469
C9    C     C_R   0.424556 0.394527 0.066939 0.082032
C10   C     C_R   0.375257 0.482751 0.172515 -0.203443
C11   C     C_R   0.398573 0.604348 0.195286 -0.164840
C12   C     C_R   0.715690 0.999770 0.499554 0.802242
C13   C     C_R   0.520583 0.348779 0.870198 -0.201982
C14   C     C_R   0.432785 0.185696 0.922923 -0.206884
C15   C     C_R   0.527859 0.770605 0.160057 -0.169378
C16   C     C_R   0.685911 0.339006 0.318675 -0.264492
C17   C     C_R   0.326168 0.745917 0.629581 0.176659
C18   C     C_R   0.276740 0.635849 0.632148 -0.251399
C19   C     C_R   0.338522 0.535561 0.572944 -0.172491
C20   C     C_R   0.455091 0.544307 0.516543 0.018635
C21   C     C_R   0.497025 0.652506 0.500890 0.275113
C22   C     C_R   0.525573 0.443945 0.465606 -0.061454
C23   C     C_R   0.488601 0.144699 0.713788 0.842196
C24   C     C_R   0.622950 0.441596 0.378528 0.154963
C25   C     C_R   0.657170 0.542543 0.353597 -0.248154
C26   C     C_R   0.598143 0.647313 0.416222 -0.157483
C27   C     C_R   0.505346 0.347708 0.500869 0.130431
C28   C     C_R   0.654300 0.241050 0.348059 0.118664
C29   C     C_R   0.284339 0.000119 0.500283 0.842777
C30   C     C_1   0.837526 0.999867 0.499616 -0.136208
C31   C     C_1   0.940083 0.999880 0.499790 0.034857
C32   C     C_1   0.059949 0.999903 0.500039 0.042849
C33   C     C_1   0.162512 0.999965 0.500198 -0.104206
C34   C     C_R   0.396077 0.268371 0.036613 -0.020050
Cu1   Cu    Cu3+1 0.526510 0.098270 0.475420 1.013743
Cu2   Cu    Cu3+1 0.473490 0.901730 0.524580 0.969122
H1    H     H_    0.732256 0.541777 0.286896 0.155875
H2    H     H_    0.291342 0.450263 0.568290 0.178856
H3    H     H_    0.188026 0.626770 0.678198 0.182256
H4    H     H_    0.560343 0.378323 0.803473 0.194318
H5    H     H_    0.728235 0.752153 0.920191 0.208379
H6    H     H_    0.343995 0.666131 0.269507 0.173988
H7    H     H_    0.702330 0.161664 0.300790 0.144122
N1    N     N_R   0.566700 0.246290 0.438210 -0.218989
N2    N     N_R   0.434010 0.754320 0.561170 -0.246641
O1    O     O_R   0.533340 0.972510 0.318140 -0.555293
O2    O     O_R   0.488570 0.806530 0.359650 -0.612290
O3    O     O_R   0.685190 0.083000 0.479260 -0.572372
O4    O     O_R   0.640410 0.917020 0.520770 -0.592344
O5    O     O_R   0.511430 0.193470 0.640350 -0.571109
O6    O     O_R   0.466660 0.027490 0.681860 -0.557789
O7    O     O_R   0.359590 0.082980 0.479230 -0.532459
O8    O     O_R   0.314810 0.917000 0.520740 -0.582406
H8    H     H_    0.414745 0.089916 0.900083 0.236179
H9    H     H_    0.759265 0.334512 0.249459 0.150266
C35   C     C_2   0.436085 0.369420 0.616809 0.849832
O9    O     O_2   0.346332 0.304069 0.628389 -0.585189
O10   O     O_R   0.467855 0.473421 0.712408 -0.761889
H10   H     H_    0.409968 0.484171 0.786181 0.335010
C36   C     C_2   0.249229 0.845016 0.692391 0.900916
O11   O     O_2   0.155264 0.835313 0.661760 -0.588613
O12   O     O_R   0.275752 0.941848 0.794082 -0.769041
H11   H     H_    0.213656 0.001561 0.831454 0.332464
H12   H     H_    0.631490 0.719982 0.391721 0.196627
H13   H     H_    0.312765 0.460039 0.236148 0.195299
C37   C     C_2   0.324836 0.217697 0.117258 0.832802
O13   O     O_2   0.231647 0.257293 0.176109 -0.600857
O14   O     O_R   0.361132 0.118405 0.119985 -0.699913
H14   H     H_    0.304925 0.090079 0.176552 0.352137
C38   C     C_2   0.624402 0.935845 0.092958 0.869675
O15   O     O_2   0.542352 0.998821 0.130227 -0.538301
O16   O     O_R   0.738094 0.982162 0.058910 -0.768690
H15   H     H_    0.741439 0.069398 0.071377 0.331776
C39   C     C_2   0.734182 0.520854 0.866317 0.872152
O17   O     O_2   0.774464 0.532115 0.776888 -0.516733
O18   O     O_R   0.777740 0.435961 0.886093 -0.720301
H16   H     H_    0.745959 0.439594 0.965941 0.296190

loop_
_geom_bond_atom_site_label_1
_geom_bond_atom_site_label_2
_ccdc_geom_bond_type
C16   C28   A    
C37   O14   S    
C21   C26   A    
C8    C13   A    
C19   C20   A    
C12   O3    A    
C34   C37   S    
C12   O4    A    
C7    C11   A    
C39   O18   S    
C11   H6    S    
C17   N2    A    
C5    C6    A    
C1    O1    A    
C4    H5    S    
C29   C33   S    
C35   O9    D    
Cu2   O2    S    
C36   O12   S    
C18   C19   A    
C5    C39   S    
C2    C13   A    
C26   H12   S    
C13   H4    S    
Cu2   O8    S    
C25   H1    S    
O14   H14   S    
C27   N1    A    
Cu1   Cu2   S    
C8    C9    A    
C38   O15   D    
C1    C15   S    
C9    C10   A    
C7    C15   A    
C37   O13   D    
C16   C24   A    
Cu1   O3    S    
C21   N2    A    
C39   O17   D    
C3    C38   S    
C24   C25   A    
C27   C35   S    
O16   H15   S    
C23   O5    A    
C6    C8    A    
C25   C26   A    
C28   N1    A    
C36   O11   D    
C18   H3    S    
O12   H11   S    
C19   H2    S    
C23   O6    A    
C31   C32   S    
Cu1   O5    S    
C17   C18   A    
Cu2   N2    S    
O18   H16   S    
Cu1   N1    S    
Cu2   O6    S    
C14   H8    S    
C20   C22   A    
C22   C27   A    
C9    C34   A    
C22   C24   A    
C3    C4    A    
C2    C23   S    
C3    C15   A    
C10   H13   S    
C12   C30   S    
C1    O2    A    
C4    C5    A    
C14   C34   A    
C6    C7    A    
C28   H7    S    
C32   C33   T    
O10   H10   S    
C16   H9    S    
C30   C31   T    
C29   O8    A    
C35   O10   S    
C2    C14   A    
C10   C11   A    
C17   C36   S    
C20   C21   A    
Cu1   O7    S    
C38   O16   S    
Cu1   O1    S    
Cu2   O4    S    
C29   O7    A    
