data_mof_unit_195.cif
_audit_creation_date              2012-12-10T17:32:15-0500
_audit_creation_method            fapswitch 2.2
_symmetry_space_group_name_H-M    P1
_symmetry_Int_Tables_number       1
_space_group_crystal_system       triclinic
_cell_length_a                    12.346509
_cell_length_b                    13.012406
_cell_length_c                    15.054619
_cell_angle_alpha                 77.493649
_cell_angle_beta                  101.000419
_cell_angle_gamma                 116.502597
_cell_volume                      2100.80364956

loop_
_atom_site_label
_atom_site_type_symbol
_atom_type_description
_atom_site_fract_x
_atom_site_fract_y
_atom_site_fract_z
_atom_type_partial_charge
C1    C     C_R   0.854819 0.284896 0.510322 0.865611
C2    C     C_R   0.980609 0.586015 0.076360 -0.045904
C3    C     C_R   0.037458 0.325425 0.079412 0.696696
C4    C     C_R   0.038276 0.330484 0.986561 -0.205329
C5    C     C_R   0.019974 0.418383 0.923330 0.045337
C6    C     C_R   0.000644 0.504196 0.952546 -0.037375
C7    C     C_R   0.982672 0.593918 0.887580 -0.161435
C8    C     C_R   0.962791 0.678186 0.919060 0.648692
C9    C     C_R   0.962121 0.674563 0.012176 0.288550
C10   C     C_R   0.020511 0.420616 0.830937 -0.188325
C11   C     C_R   0.002156 0.507257 0.766424 -0.172221
C12   C     C_R   0.001236 0.503069 0.670481 0.852563
C13   C     C_R   0.985260 0.595809 0.793512 0.407475
C14   C     C_R   0.289118 0.014187 0.348325 -0.088256
C15   C     C_R   0.227608 0.837226 0.458533 -0.225030
C16   C     C_R   0.809027 0.073542 0.570722 0.215875
C17   C     C_R   0.727735 0.956456 0.579022 0.579452
C18   C     C_R   0.607336 0.922747 0.541544 0.569338
C19   C     C_R   0.565171 0.006564 0.494717 -0.103982
C20   C     C_R   0.652516 0.121292 0.469785 -0.140221
C21   C     C_R   0.440424 0.977251 0.463689 0.003066
C22   C     C_R   0.409446 0.049990 0.388939 -0.119454
C23   C     C_R   0.144939 0.714375 0.483731 0.903705
C24   C     C_R   0.499543 0.156501 0.354864 0.645502
C25   C     C_R   0.618636 0.192779 0.396117 -0.141743
C26   C     C_R   0.345095 0.879516 0.505414 0.397217
C27   C     C_R   0.199920 0.906021 0.379337 0.316193
C28   C     C_R   0.772684 0.158700 0.515665 -0.248776
C29   C     C_R   0.355040 0.340324 0.654168 0.490612
C30   C     C_R   0.758472 0.642348 0.372929 -0.064722
C31   C     C_R   0.665287 0.678279 0.346460 0.555487
C32   C     C_R   0.563746 0.628691 0.394859 0.547827
C33   C     C_R   0.552694 0.538383 0.469941 -0.126986
C34   C     C_R   0.998950 0.497306 0.329474 0.834848
C35   C     C_R   0.653827 0.507725 0.496005 0.194850
C36   C     C_R   0.448247 0.478465 0.521367 -0.005577
C37   C     C_R   0.451829 0.396050 0.599794 -0.092664
C38   C     C_R   0.551637 0.369227 0.623583 -0.129715
C39   C     C_R   0.649005 0.422295 0.572136 -0.093565
C40   C     C_R   0.338953 0.494323 0.498828 0.021367
C41   C     C_R   0.253845 0.364461 0.630392 0.764061
C42   C     C_R   0.980646 0.581999 0.169566 -0.151953
C43   C     C_R   0.998491 0.494476 0.233322 -0.168202
C44   C     C_R   0.014775 0.406289 0.205490 0.375924
C45   C     C_R   0.017569 0.409416 0.111468 -0.073242
C46   C     C_R   0.999740 0.499958 0.046873 -0.080158
Cu1   Cu    Cu3+1 0.098270 0.475420 0.521130 1.111540
Cu2   Cu    Cu3+1 0.901730 0.524580 0.478870 1.017320
H1    H     H_    0.968079 0.647815 0.194145 0.226087
H2    H     H_    0.265280 0.067477 0.289187 0.260106
H3    H     H_    0.684905 0.274370 0.365387 0.189495
H4    H     H_    0.554549 0.305194 0.682438 0.214124
H5    H     H_    0.323649 0.549453 0.438567 0.244850
H6    H     H_    0.835400 0.680092 0.333958 0.232311
H7    H     H_    0.719233 0.393426 0.595036 0.188284
H8    H     H_    0.053707 0.264896 0.963965 0.215494
H9    H     H_    0.033743 0.353432 0.808671 0.219465
N1    N     N_R   0.246280 0.438190 0.553160 -0.303155
N2    N     N_R   0.754320 0.561190 0.447410 -0.245825
O1    O     O_R   0.972510 0.318130 0.526570 -0.491591
O2    O     O_R   0.806530 0.359650 0.490890 -0.631271
O3    O     O_R   0.082980 0.479210 0.647590 -0.516006
O4    O     O_R   0.917000 0.520730 0.611900 -0.577379
O5    O     O_R   0.193470 0.640350 0.509110 -0.546558
O6    O     O_R   0.027490 0.681870 0.473430 -0.525791
O7    O     O_R   0.083000 0.479270 0.388100 -0.557040
O8    O     O_R   0.917020 0.520790 0.352410 -0.596958
F1    F     F_    0.472289 0.226918 0.282373 -0.625723
Cl1   Cl    Cl    0.362991 0.824290 0.623340 -0.455764
Cl2   Cl    Cl    0.955048 0.106091 0.630323 -0.323812
F2    F     F_    0.536312 0.807296 0.542693 -0.567002
F3    F     F_    0.765250 0.873983 0.624989 -0.506013
F4    F     F_    0.163543 0.315184 0.685621 -0.573335
F5    F     F_    0.359033 0.263904 0.730784 -0.571387
Cl3   Cl    Cl    0.022153 0.289483 0.289165 -0.443974
F6    F     F_    0.481347 0.674425 0.368368 -0.607497
F7    F     F_    0.674171 0.762974 0.273746 -0.537687
F8    F     F_    0.058253 0.238357 0.136286 -0.548737
Cl4   Cl    Cl    0.976686 0.711300 0.708806 -0.353683
F9    F     F_    0.941914 0.764345 0.860650 -0.502162
Cl5   Cl    Cl    0.936792 0.783759 0.045377 -0.367392
Cl6   Cl    Cl    0.057594 0.859924 0.313313 -0.498747

loop_
_geom_bond_atom_site_label_1
_geom_bond_atom_site_label_2
_ccdc_geom_bond_type
C16   C28   A    
C21   C26   A    
C13   Cl4   S    
C19   C20   A    
C34   O7    A    
Cu1   O3    S    
C7    C8    A    
C45   C46   A    
C2    C46   A    
C30   H6    S    
C5    C6    A    
C36   C37   A    
C19   C21   A    
C41   N1    A    
C30   C31   A    
C38   H4    S    
C20   C25   A    
C33   C36   A    
C35   N2    A    
C18   C19   A    
Cu1   O1    S    
C39   H7    S    
C31   C32   A    
C8    C9    A    
C1    C28   S    
Cu2   O6    S    
Cu1   O7    S    
C15   C23   S    
C21   C22   A    
C4    H8    S    
C31   F7    S    
C38   C39   A    
C40   N1    A    
C3    F8    S    
C36   C40   A    
C10   H9    S    
C16   Cl2   S    
C24   C25   A    
C1    O1    A    
Cu1   O5    S    
C12   O4    A    
C16   C17   A    
Cu2   O4    S    
C29   F5    S    
C20   C28   A    
C3    C45   A    
C44   Cl3   S    
C35   C39   A    
C43   C44   A    
C25   H3    S    
C37   C38   A    
C12   O3    A    
C15   C27   A    
Cu1   Cu2   S    
C30   N2    A    
C17   C18   A    
C23   O5    A    
C14   C27   A    
C22   C24   A    
C42   C43   A    
C3    C4    A    
C44   C45   A    
Cu2   N2    S    
C18   F2    S    
C6    C46   A    
C29   C41   A    
C27   Cl6   S    
C34   C43   S    
C4    C5    A    
C15   C26   A    
C1    O2    A    
C34   O8    A    
C32   F6    S    
C11   C12   S    
C6    C7    A    
C32   C33   A    
C14   C22   A    
C5    C10   A    
Cu1   N1    S    
C11   C13   A    
C23   O6    A    
Cu2   O2    S    
C14   H2    S    
C2    C42   A    
C33   C35   A    
Cu2   O8    S    
C10   C11   A    
C24   F1    S    
C42   H1    S    
C41   F4    S    
C7    C13   A    
C17   F3    S    
C40   H5    S    
C29   C37   A    
C8    F9    S    
C26   Cl1   S    
C2    C9    A    
C9    Cl5   S    
