data_mof_unit_4002.cif
_audit_creation_date              2013-03-05T15:43:53-0500
_audit_creation_method            fapswitch 2.2
_symmetry_space_group_name_H-M    P1
_symmetry_Int_Tables_number       1
_space_group_crystal_system       triclinic
_cell_length_a                    7.329145
_cell_length_b                    14.122583
_cell_length_c                    16.685776
_cell_angle_alpha                 90.000082
_cell_angle_beta                  95.438724
_cell_angle_gamma                 90.000035
_cell_volume                      1719.31047296

loop_
_atom_site_label
_atom_site_type_symbol
_atom_site_description
_atom_site_fract_x
_atom_site_fract_y
_atom_site_fract_z
_atom_type_partial_charge
O1    O     O_R   0.525340 0.338340 0.164530 -0.594547
O2    O     O_R   0.474660 0.661660 0.835470 -0.594502
O3    O     O_R   0.974660 0.838340 0.835470 -0.594536
O4    O     O_R   0.025340 0.161660 0.164530 -0.594514
O5    O     O_R   0.253520 0.352000 0.336710 -0.565017
O6    O     O_R   0.746480 0.648000 0.663290 -0.565080
O7    O     O_R   0.246480 0.852000 0.663290 -0.565020
O8    O     O_R   0.753520 0.148000 0.336710 -0.565076
O9    O     O_R   0.083330 0.168380 0.337300 -0.557909
O10   O     O_R   0.916670 0.831620 0.662700 -0.557917
O11   O     O_R   0.416670 0.668380 0.662700 -0.557914
O12   O     O_R   0.583330 0.331620 0.337300 -0.557914
C1    C     C_R   0.430596 0.368757 0.363726 0.768553
C2    C     C_R   0.569405 0.631233 0.636284 0.768600
C3    C     C_R   0.069404 0.868758 0.636275 0.768547
C4    C     C_R   0.930595 0.131233 0.363717 0.768604
O13   O     O_R   0.195840 0.349670 0.165140 -0.478746
O14   O     O_R   0.804160 0.650330 0.834860 -0.478401
O15   O     O_R   0.304160 0.849670 0.834860 -0.478734
O16   O     O_R   0.695840 0.150330 0.165140 -0.478404
C5    C     C_R   0.361425 0.370714 0.139770 0.781318
C6    C     C_R   0.638595 0.629341 0.860260 0.780910
C7    C     C_R   0.138575 0.870713 0.860230 0.781355
C8    C     C_R   0.861405 0.129338 0.139741 0.780894
O17   O     O_3   0.387830 0.193120 0.250910 -0.263265
O18   O     O_3   0.612170 0.806880 0.749090 -0.263522
O19   O     O_3   0.112170 0.693120 0.749090 -0.263276
O20   O     O_3   0.887830 0.306880 0.250910 -0.263529
V1    V     V_3+5 0.113010 0.264540 0.250910 1.234711
V2    V     V_3+5 0.886990 0.735460 0.749090 1.234923
V3    V     V_3+5 0.386990 0.764540 0.749090 1.234725
V4    V     V_3+5 0.613010 0.235460 0.250910 1.234912
C9    C     C_R   0.979518 0.196877 0.528977 -0.083345
C10   C     C_R   0.020472 0.803113 0.471005 -0.083359
C11   C     C_R   0.520490 0.696875 0.471024 -0.083344
C12   C     C_R   0.479512 0.303112 0.528998 -0.083359
C13   C     C_R   0.004074 0.232077 0.607228 -0.117900
C14   C     C_R   0.995820 0.767911 0.392755 -0.117824
C15   C     C_R   0.495946 0.732074 0.392772 -0.117907
C16   C     C_R   0.504165 0.267911 0.607248 -0.117826
C17   C     C_R   0.038562 0.170841 0.672742 -0.030167
C18   C     C_R   0.961218 0.829144 0.327243 -0.030102
C19   C     C_R   0.461479 0.670835 0.327259 -0.030165
C20   C     C_R   0.538771 0.329145 0.672759 -0.030102
C21   C     C_R   0.049275 0.073036 0.658711 -0.063555
C22   C     C_R   0.950563 0.926950 0.341276 -0.063696
C23   C     C_R   0.450763 0.573031 0.341290 -0.063544
C24   C     C_R   0.549426 0.426951 0.658725 -0.063696
C25   C     C_R   0.025765 0.035413 0.579834 0.008668
C26   C     C_R   0.974184 0.964575 0.420152 0.008664
C27   C     C_R   0.474252 0.535410 0.420167 0.008666
C28   C     C_R   0.525807 0.464574 0.579849 0.008663
C29   C     C_R   0.989437 0.098773 0.513443 0.025082
C30   C     C_R   0.010551 0.901215 0.486543 0.025097
C31   C     C_R   0.510572 0.598771 0.486559 0.025081
C32   C     C_R   0.489440 0.401214 0.513459 0.025095
C33   C     C_R   0.036947 0.936263 0.566679 -0.110456
C34   C     C_R   0.963046 0.063726 0.433308 -0.110471
C35   C     C_R   0.463054 0.436261 0.433323 -0.110459
C36   C     C_R   0.536953 0.563724 0.566693 -0.110469
H1    H     H_    0.951908 0.247686 0.480794 0.074715
H2    H     H_    0.048130 0.752305 0.519185 0.074688
H3    H     H_    0.548090 0.747685 0.519206 0.074718
H4    H     H_    0.451852 0.252304 0.480818 0.074686
H5    H     H_    0.994689 0.307792 0.616337 0.125952
H6    H     H_    0.005173 0.692195 0.383646 0.125999
H7    H     H_    0.505332 0.807788 0.383662 0.125946
H8    H     H_    0.494809 0.192196 0.616357 0.125996
H9    H     H_    0.076653 0.026518 0.710004 0.094270
H10   H     H_    0.923122 0.973468 0.289988 0.094320
H11   H     H_    0.423395 0.526512 0.289997 0.094272
H12   H     H_    0.576870 0.473470 0.710013 0.094315
C37   C     C_2   0.138987 0.941934 0.923547 0.168841
C38   C     C_2   0.860888 0.058260 0.076332 0.168951
C39   C     C_2   0.361016 0.441938 0.076454 0.168879
C40   C     C_2   0.639113 0.558263 0.923667 0.168902
C41   C     C_2   0.995154 0.962107 0.967794 -0.160496
C42   C     C_2   0.004474 0.038376 0.031862 -0.160263
C43   C     C_2   0.504856 0.462118 0.032211 -0.160482
C44   C     C_2   0.495533 0.538384 0.968142 -0.160175
C45   C     C_2   0.936363 0.790627 0.244159 0.915692
O21   O     O_2   0.921975 0.844195 0.186321 -0.543375
O22   O     O_R   0.929447 0.692706 0.231654 -0.739586
H13   H     H_    0.909843 0.675428 0.172487 0.378969
C46   C     C_2   0.063181 0.209348 0.755830 0.916033
O23   O     O_2   0.077064 0.155772 0.813665 -0.543180
O24   O     O_R   0.070380 0.307263 0.768343 -0.739784
H14   H     H_    0.089704 0.324531 0.827518 0.378892
C47   C     C_2   0.563629 0.290629 0.755844 0.915677
O25   O     O_2   0.577968 0.344202 0.813682 -0.543397
O26   O     O_R   0.570592 0.192705 0.768348 -0.739585
H15   H     H_    0.590191 0.175428 0.827516 0.378956
C48   C     C_2   0.436888 0.709337 0.244170 0.916056
O27   O     O_2   0.423127 0.655756 0.186336 -0.543202
O28   O     O_R   0.429581 0.807253 0.231654 -0.739774
H16   H     H_    0.410289 0.824515 0.172478 0.378897
C49   C     C_2   0.171195 0.097642 0.043414 0.994289
O29   O     O_2   0.289501 0.078432 0.097598 -0.485354
O30   O     O_R   0.188141 0.177184 0.994778 -0.686479
H17   H     H_    0.305045 0.213942 0.010125 0.334727
C50   C     C_2   0.828036 0.903175 0.955955 0.995048
O31   O     O_2   0.710172 0.922734 0.901684 -0.485470
O32   O     O_R   0.810362 0.823468 0.004322 -0.686384
H18   H     H_    0.693446 0.786826 0.988656 0.334688
C51   C     C_2   0.328858 0.597667 0.956618 0.994308
O33   O     O_2   0.210507 0.578477 0.902465 -0.485372
O34   O     O_R   0.311992 0.677184 0.005254 -0.686630
H19   H     H_    0.195115 0.713936 0.989949 0.334786
C52   C     C_2   0.671987 0.403203 0.044061 0.995095
O35   O     O_2   0.789831 0.422780 0.098331 -0.485472
O36   O     O_R   0.689684 0.323487 0.995715 -0.686417
H20   H     H_    0.806598 0.286853 0.011397 0.334669
N1    N     N_R   0.684585 0.023218 0.055505 0.120646
O37   O     O_R   0.616711 0.967874 0.107671 -0.259644
O38   O     O_R   0.578287 0.083593 0.015484 -0.286853
N2    N     N_R   0.315213 0.977090 0.944336 0.120683
O39   O     O_R   0.421812 0.916744 0.984224 -0.287391
O40   O     O_R   0.382720 0.032570 0.892171 -0.259879
N3    N     N_R   0.815419 0.523226 0.944497 0.120648
O41   O     O_R   0.883311 0.467886 0.892338 -0.259656
O42   O     O_R   0.921697 0.583593 0.984529 -0.286807
N4    N     N_R   0.184800 0.477106 0.055670 0.120699
O43   O     O_R   0.078173 0.416762 0.015796 -0.287369
O44   O     O_R   0.117329 0.532603 0.107830 -0.259933

loop_
_geom_bond_atom_site_label_1
_geom_bond_atom_site_label_2
_geom_bond_distance
_ccdc_geom_bond_type
O24   H14   1.013873 S    
O1    C5    1.314873 A    
C48   O27   1.222928 D    
C39   N4    1.396445 S    
O13   V1    2.006692 S    
O3    C7    1.314868 A    
O36   H20   1.013842 S    
C6    C40   1.458160 S    
O15   V3    2.006689 S    
C45   O21   1.222907 D    
C41   C42   1.514526 S    
C51   O34   1.397851 S    
C50   O31   1.222402 D    
C37   N2    1.396458 S    
O22   H13   1.013888 S    
O20   V1    1.755360 S    
O9    C4    1.347641 A    
C24   H12   1.082486 S    
C14   C18   1.398029 A    
O10   C3    1.347647 A    
C52   O36   1.398157 S    
O4    C8    1.314857 A    
O11   C2    1.347639 A    
C10   H2    1.082289 S    
C25   C33   1.420919 A    
N2    O39   1.296580 A    
C18   C22   1.404393 A    
C28   C36   1.420908 A    
C45   O22   1.398747 S    
C41   C50   1.478530 S    
O28   H16   1.013865 S    
C13   H5    1.083130 S    
O2    C6    1.314851 A    
O34   H19   1.013378 S    
O14   V2    2.006691 S    
C47   O26   1.398800 S    
C16   C20   1.398030 A    
O5    C1    1.353748 A    
O4    V1    2.103737 S    
O9    V1    2.007206 S    
O17   V4    1.755359 S    
O7    C3    1.353747 A    
O11   V3    2.007204 S    
O18   V3    1.755359 S    
C50   O32   1.398231 S    
O14   C6    1.355518 A    
C31   C36   1.421694 A    
O12   V4    2.007203 S    
O19   V2    1.755360 S    
C3    C33   1.503867 S    
C18   C45   1.484295 S    
C7    C37   1.458510 S    
C49   O30   1.398212 S    
C49   O29   1.222397 D    
O5    V1    2.087166 S    
N3    O42   1.296584 A    
C9    C29   1.412656 A    
C40   N3    1.396499 S    
O7    V3    2.087169 S    
C43   C52   1.478478 S    
C46   O24   1.398738 S    
C21   H9    1.082489 S    
C26   C34   1.420911 A    
O16   C8    1.355525 A    
C12   C16   1.392780 A    
O26   H15   1.013890 S    
O15   C7    1.355628 A    
C15   C19   1.398001 A    
C46   O23   1.222910 D    
C38   N1    1.396496 S    
C11   C31   1.412656 A    
C44   C51   1.478405 S    
O1    V4    2.103740 S    
O13   C5    1.355629 A    
O2    V3    2.103738 S    
O8    V4    2.087168 S    
O3    V2    2.103734 S    
C11   C15   1.392755 A    
C12   C32   1.412650 A    
O6    C2    1.353730 A    
O10   V2    2.007207 S    
O30   H17   1.013704 S    
C21   C25   1.414644 A    
C29   C34   1.421697 A    
C42   C49   1.478557 S    
C4    C34   1.503829 S    
C23   H11   1.082490 S    
O6    V2    2.087165 S    
C10   C30   1.412651 A    
C16   H8    1.083128 S    
C27   C35   1.420916 A    
N4    O44   1.303031 A    
C17   C46   1.484234 S    
N1    O37   1.303108 A    
O16   V4    2.006690 S    
C5    C39   1.458536 S    
C37   C41   1.372973 D    
O8    C4    1.353731 A    
C10   C14   1.392778 A    
C15   H7    1.083130 S    
C40   C44   1.372937 D    
C23   C27   1.414634 A    
N3    O41   1.303041 A    
C1    C35   1.503869 S    
C2    C36   1.503823 S    
C51   O33   1.222188 D    
C22   C26   1.414657 A    
C32   C35   1.421728 A    
C47   O25   1.222952 D    
C26   C30   1.429297 A    
C52   O35   1.222352 D    
C8    C38   1.458177 S    
C48   O28   1.398764 S    
C19   C23   1.404386 A    
C25   C29   1.429289 A    
C19   C48   1.484219 S    
N2    O40   1.303053 A    
C27   C31   1.429286 A    
C13   C17   1.398004 A    
C9    C13   1.392758 A    
C22   H10   1.082486 S    
C43   C44   1.514502 S    
C28   C32   1.429297 A    
C24   C28   1.414653 A    
C14   H6    1.083129 S    
O12   C1    1.347645 A    
C9    H1    1.082290 S    
C38   C42   1.372942 D    
O32   H18   1.013868 S    
C17   C21   1.404393 A    
C11   H3    1.082289 S    
N4    O43   1.296567 A    
C12   H4    1.082289 S    
C39   C43   1.373000 D    
C20   C47   1.484294 S    
C20   C24   1.404391 A    
N1    O38   1.296639 A    
C30   C33   1.421731 A    
