data_mof_unit_2460.cif
_audit_creation_date              2012-12-10T17:43:41-0500
_audit_creation_method            fapswitch 2.2
_symmetry_space_group_name_H-M    P1
_symmetry_Int_Tables_number       1
_space_group_crystal_system       triclinic
_cell_length_a                    14.936364
_cell_length_b                    10.719518
_cell_length_c                    9.888967
_cell_angle_alpha                 89.22138
_cell_angle_beta                  90.263156
_cell_angle_gamma                 91.685772
_cell_volume                      1582.48333286

loop_
_atom_site_label
_atom_site_type_symbol
_atom_type_description
_atom_site_fract_x
_atom_site_fract_y
_atom_site_fract_z
_atom_type_partial_charge
C1    C     C_R   0.505355 0.259821 0.502087 0.864563
C2    C     C_R   0.184017 0.419229 0.585087 -0.246738
C3    C     C_R   0.231719 0.499470 0.498158 -0.063008
C4    C     C_R   0.327032 0.499262 0.499659 0.862393
C5    C     C_R   0.188970 0.579336 0.408444 -0.251673
C6    C     C_R   0.512153 0.106646 0.762437 -0.169414
C7    C     C_R   0.481032 0.043086 0.877771 -0.150313
C8    C     C_R   0.434040 0.930133 0.865032 -0.159067
C9    C     C_R   0.426465 0.875006 0.738620 -0.157644
C10   C     C_R   0.465716 0.933546 0.622970 0.097277
C11   C     C_R   0.496023 0.057685 0.631456 0.094094
C12   C     C_R   0.909643 0.593907 0.411866 0.128446
C13   C     C_R   0.508606 0.125745 0.507940 -0.123049
C14   C     C_R   0.510051 0.064384 0.384179 -0.221744
C15   C     C_R   0.498819 0.937446 0.380881 -0.225211
C16   C     C_R   0.490838 0.738826 0.499519 0.874276
C17   C     C_R   0.479336 0.871238 0.500002 -0.126644
C18   C     C_R   0.381450 0.337614 0.141707 -0.165568
C19   C     C_R   0.322860 0.258111 0.071989 -0.197282
C20   C     C_R   0.322883 0.258278 0.932079 -0.159917
C21   C     C_R   0.381690 0.337624 0.861109 -0.164639
C22   C     C_R   0.441663 0.419917 0.928350 0.153311
C23   C     C_R   0.948253 0.339819 0.667231 -0.281139
C24   C     C_R   0.441623 0.419946 0.073081 0.164901
C25   C     C_R   0.555548 0.576992 0.070835 -0.121937
C26   C     C_R   0.555511 0.576973 0.927551 -0.114920
C27   C     C_R   0.672999 0.504632 0.500208 0.900220
C28   C     C_R   0.815880 0.600706 0.417998 0.139055
C29   C     C_R   0.768760 0.513122 0.500845 -0.069933
C30   C     C_R   0.812596 0.428604 0.584007 -0.278771
C31   C     C_R   0.904772 0.425234 0.583408 0.033010
C32   C     C_R   0.953690 0.506645 0.496317 0.010695
C33   C     C_3   0.767915 0.703767 0.342352 -0.922055
C34   C     C_R   0.041122 0.333170 0.665262 0.510786
C35   C     C_3   0.102682 0.140140 0.677082 0.074512
C36   C     C_3   0.026829 0.042229 0.688994 -0.854505
C37   C     C_R   0.091000 0.417298 0.582507 -0.019575
C38   C     C_R   0.046979 0.501938 0.495350 0.012382
C39   C     C_R   0.096521 0.582711 0.407970 0.155626
C40   C     C_R   0.053267 0.666192 0.322272 -0.228648
C41   C     C_R   0.960715 0.672173 0.324241 -0.213351
H1    H     H_    0.551448 0.191114 0.779150 0.171172
H2    H     H_    0.378941 0.330522 0.754015 0.203219
H3    H     H_    0.774264 0.363369 0.647584 0.156182
H4    H     H_    0.600773 0.639883 0.872928 0.155915
H5    H     H_    0.910123 0.277410 0.733901 0.170424
H6    H     H_    0.219806 0.357383 0.652490 0.166097
H7    H     H_    0.227982 0.640965 0.341855 0.146695
H8    H     H_    0.091132 0.727737 0.254385 0.146668
H9    H     H_    0.930093 0.738094 0.255851 0.162577
H10   H     H_    0.521208 0.114136 0.289311 0.172460
H11   H     H_    0.697094 0.712549 0.372451 0.251040
H12   H     H_    0.491915 0.082846 0.976790 0.144579
H13   H     H_    0.800531 0.795590 0.364984 0.233659
H14   H     H_    0.770335 0.687223 0.231863 0.239355
H15   H     H_    0.163749 0.100106 0.722543 0.159062
H16   H     H_    0.118435 0.158809 0.568276 0.124910
H17   H     H_    0.966211 0.074610 0.635273 0.242719
H18   H     H_    0.047564 0.953850 0.642687 0.221239
H19   H     H_    0.010573 0.024052 0.797079 0.265296
H20   H     H_    0.406265 0.883107 0.953577 0.139747
H21   H     H_    0.389817 0.786683 0.732310 0.162296
H22   H     H_    0.507170 0.891237 0.285143 0.170528
H23   H     H_    0.600847 0.639884 0.124188 0.147916
H24   H     H_    0.377439 0.331622 0.248926 0.208418
H25   H     H_    0.277373 0.195694 0.127039 0.152996
H26   H     H_    0.277763 0.195609 0.878061 0.158091
N1    N     N_R   0.499150 0.498800 0.142780 -0.121403
N2    N     N_R   0.499120 0.498720 0.857170 -0.126961
O1    O     O_R   0.500000 0.316780 0.614690 -0.656281
O2    O     O_R   0.499990 0.316750 0.385360 -0.638587
O3    O     O_R   0.367850 0.499980 0.614680 -0.640655
O4    O     O_R   0.367840 0.499960 0.385350 -0.637222
O5    O     O_R   0.500010 0.683250 0.614640 -0.621125
O6    O     O_R   0.500000 0.683220 0.385310 -0.627636
O7    O     O_R   0.632160 0.500040 0.614650 -0.620887
O8    O     O_R   0.632150 0.500020 0.385320 -0.605929
O9    O     O_3   0.082477 0.248520 0.750145 -0.621161
Zn1   Zn    Zn3+2 0.500010 0.500020 0.653130 0.924472
Zn2   Zn    Zn3+2 0.499990 0.499980 0.346870 0.931314

loop_
_geom_bond_atom_site_label_1
_geom_bond_atom_site_label_2
_ccdc_geom_bond_type
C33   H14   S    
N1    Zn2   S    
C27   C29   S    
C16   O6    A    
C20   H26   S    
C19   C20   A    
O7    Zn1   S    
C36   H18   S    
C7    C8    A    
C33   H11   S    
C12   C41   A    
C12   C28   A    
C16   O5    A    
C28   C29   A    
O3    Zn1   S    
C36   H17   S    
C38   C39   A    
C10   C17   A    
C40   H8    S    
C34   C37   A    
C19   H25   S    
C18   C19   A    
C26   H4    S    
C21   H2    S    
C31   C32   A    
C8    C9    A    
C18   C24   A    
C32   C38   A    
C29   C30   A    
O6    Zn2   S    
C22   N2    A    
C8    H20   S    
O1    Zn1   S    
C23   H5    S    
C13   C14   A    
C12   C32   A    
C30   H3    S    
C25   N1    A    
O2    Zn2   S    
C5    H7    S    
C9    H21   S    
C6    C11   A    
C16   C17   S    
C3    C5    A    
C25   C26   A    
C18   H24   S    
C25   H23   S    
C23   C31   A    
C37   C38   A    
C14   H10   S    
C23   C34   A    
C1    O2    A    
C4    O4    A    
C40   C41   A    
C28   C33   S    
O5    Zn1   S    
C5    C39   A    
C22   C24   A    
N2    Zn1   S    
C1    C13   S    
C7    H12   S    
C27   O7    A    
C41   H9    S    
C4    O3    A    
C9    C10   A    
O8    Zn2   S    
C33   H13   S    
C15   C17   A    
C15   H22   S    
C35   H15   S    
C27   O8    A    
C6    C7    A    
C2    H6    S    
C35   O9    S    
C1    O1    A    
C35   H16   S    
C2    C3    A    
C34   O9    S    
C11   C13   A    
C2    C37   A    
C30   C31   A    
O4    Zn2   S    
C10   C11   A    
C24   N1    A    
C39   C40   A    
C20   C21   A    
C6    H1    S    
C26   N2    A    
C36   H19   S    
C14   C15   A    
C35   C36   S    
C21   C22   A    
C3    C4    S    
