data_mof_unit_1649.cif
_audit_creation_date              2012-12-10T17:47:11-0500
_audit_creation_method            fapswitch 2.2
_symmetry_space_group_name_H-M    P1
_symmetry_Int_Tables_number       1
_space_group_crystal_system       triclinic
_cell_length_a                    11.698902
_cell_length_b                    14.701037
_cell_length_c                    14.699306
_cell_angle_alpha                 64.895774
_cell_angle_beta                  103.111675
_cell_angle_gamma                 102.855211
_cell_volume                      2206.62406368

loop_
_atom_site_label
_atom_site_type_symbol
_atom_type_description
_atom_site_fract_x
_atom_site_fract_y
_atom_site_fract_z
_atom_type_partial_charge
C1    C     C_R   0.482263 0.119956 0.312050 0.791658
C2    C     C_R   0.522497 0.880090 0.687772 0.793610
C3    C     C_R   0.479452 0.320315 0.998737 0.068600
C4    C     C_R   0.622528 0.676991 0.993418 0.067645
C5    C     C_R   0.558475 0.465097 0.048580 -0.001336
C6    C     C_R   0.539344 0.532013 0.945206 0.004084
C7    C     C_R   0.504246 0.490928 0.870297 -0.310794
C8    C     C_R   0.621805 0.505370 0.120719 -0.290349
C9    C     C_R   0.473500 0.386413 0.895887 0.427879
C10   C     C_R   0.656237 0.609683 0.093213 0.405191
C11   C     C_R   0.689202 0.280428 0.673869 -0.304637
C12   C     C_R   0.307333 0.717974 0.328621 -0.326435
C13   C     C_R   0.662064 0.201149 0.641145 0.082777
C14   C     C_R   0.338977 0.799493 0.358072 0.076005
C15   C     C_R   0.515355 0.285199 0.509314 0.009017
C16   C     C_R   0.478889 0.711835 0.494912 0.000478
C17   C     C_R   0.539204 0.369008 0.538344 -0.030640
C18   C     C_R   0.450602 0.625836 0.469032 -0.026056
C19   C     C_R   0.627564 0.364137 0.623368 0.170285
C20   C     C_R   0.363561 0.631436 0.383061 0.165770
C21   C     C_R   0.478801 0.456290 0.487038 0.064658
C22   C     C_R   0.507856 0.536870 0.522588 0.046890
C23   C     C_R   0.284134 0.000205 0.500004 0.826041
C24   C     C_R   0.715857 0.999800 0.499962 0.825480
C25   C     C_R   0.594442 0.526511 0.609375 -0.243654
C26   C     C_R   0.391285 0.466177 0.400914 -0.244242
C27   C     C_R   0.653283 0.442182 0.658093 -0.134574
C28   C     C_R   0.334544 0.551643 0.350724 -0.201595
C29   C     C_1   0.162521 0.000470 0.500049 -0.185610
C30   C     C_1   0.837428 0.999507 0.499839 -0.185309
C31   C     C_1   0.059935 0.000212 0.499972 -0.000563
C32   C     C_1   0.939981 0.999720 0.499861 -0.001969
C33   C     C_R   0.479869 0.187755 0.204016 -0.048707
C34   C     C_R   0.550593 0.812090 0.794686 -0.048679
C35   C     C_R   0.445709 0.215143 0.026201 -0.174914
C36   C     C_R   0.649606 0.782603 0.966114 -0.172643
C37   C     C_R   0.446548 0.149486 0.127906 -0.216411
C38   C     C_R   0.614367 0.849555 0.867414 -0.212245
C39   C     C_R   0.515131 0.292087 0.177369 -0.223183
C40   C     C_R   0.522303 0.707317 0.821745 -0.228195
C41   C     C_R   0.519238 0.359500 0.075617 0.051046
C42   C     C_R   0.561407 0.638343 0.919372 0.054791
Cu1   Cu    Cu3+1 0.469550 0.918260 0.475690 0.935050
Cu2   Cu    Cu3+1 0.530450 0.081740 0.524310 0.940715
H1    H     H_    0.619321 0.582599 0.641921 0.133019
H2    H     H_    0.364690 0.409261 0.369443 0.135579
H3    H     H_    0.467463 0.680713 0.765738 0.148106
H4    H     H_    0.535854 0.320033 0.237062 0.148489
H5    H     H_    0.638403 0.930441 0.847772 0.151878
H6    H     H_    0.419886 0.068918 0.146793 0.153870
H7    H     H_    0.417341 0.183200 0.969150 0.173225
H8    H     H_    0.698061 0.813935 0.020848 0.165096
H9    H     H_    0.506726 0.538441 0.790959 0.145444
H10   H     H_    0.652908 0.457116 0.197787 0.159200
H11   H     H_    0.719676 0.437964 0.724040 0.142778
H12   H     H_    0.268224 0.555922 0.284719 0.145335
H13   H     H_    0.546132 0.715629 0.557120 0.129045
H14   H     H_    0.447520 0.280773 0.447691 0.124727
H15   H     H_    0.296450 0.866781 0.315576 0.126642
H16   H     H_    0.708142 0.135649 0.681068 0.122552
H17   H     H_    0.757193 0.275876 0.738876 0.136428
H18   H     H_    0.240305 0.723056 0.262910 0.143458
N1    N     N_R   0.576230 0.204580 0.560790 -0.176792
N2    N     N_R   0.423770 0.795420 0.439210 -0.174900
O1    O     O_R   0.459870 0.022090 0.338120 -0.588885
O2    O     O_R   0.540130 0.977910 0.661880 -0.586145
O3    O     O_R   0.511290 0.160150 0.379180 -0.591280
O4    O     O_R   0.488710 0.839850 0.620820 -0.591396
O5    O     O_R   0.311490 0.930960 0.479480 -0.573843
O6    O     O_R   0.688510 0.069040 0.520520 -0.574991
O7    O     O_R   0.362910 0.069020 0.520540 -0.572585
O8    O     O_R   0.637090 0.930980 0.479460 -0.574399
O9    O     O_3   0.449164 0.347457 0.821293 -0.617030
C43   C     C_3   0.343445 0.377214 0.754648 0.068259
H19   H     H_    0.348427 0.373726 0.681626 0.184216
H20   H     H_    0.332155 0.456778 0.735870 0.128553
C44   C     C_3   0.235013 0.303910 0.797695 -0.379170
H21   H     H_    0.246028 0.225159 0.813506 0.225418
H22   H     H_    0.227341 0.307343 0.870123 0.213303
C45   C     C_3   0.121185 0.330456 0.723320 -0.896951
H23   H     H_    0.107375 0.408421 0.707628 0.255744
H24   H     H_    0.044340 0.276203 0.756624 0.252103
H25   H     H_    0.125675 0.325627 0.650835 0.260401
O10   O     O_3   0.734629 0.644870 0.160932 -0.613314
C46   C     C_3   0.671796 0.656905 0.225558 0.035529
H26   H     H_    0.649594 0.582039 0.287629 0.162657
H27   H     H_    0.588375 0.689805 0.184035 0.133337
C47   C     C_3   0.751713 0.729563 0.271034 -0.327271
H28   H     H_    0.836953 0.699873 0.310183 0.232365
H29   H     H_    0.771322 0.804806 0.208856 0.212529
C48   C     C_3   0.694093 0.742985 0.346760 -0.889359
H30   H     H_    0.606194 0.768485 0.310880 0.262410
H31   H     H_    0.751461 0.800884 0.373139 0.259120
H32   H     H_    0.683812 0.670241 0.413568 0.262565

loop_
_geom_bond_atom_site_label_1
_geom_bond_atom_site_label_2
_ccdc_geom_bond_type
C40   H3    S    
C21   C26   A    
C4    C36   A    
Cu1   O8    S    
O9    C43   S    
C23   O5    A    
Cu2   O2    S    
C28   H12   S    
C24   O6    A    
C39   C41   A    
C38   H5    S    
C44   H21   S    
C14   H15   S    
C11   C19   A    
C33   C39   A    
C43   H20   S    
C34   C40   A    
C23   C29   S    
C35   C37   A    
C2    O4    A    
C5    C6    A    
C27   H11   S    
C44   C45   S    
Cu2   O7    S    
C7    C9    A    
C1    O3    A    
Cu1   O4    S    
C22   C25   A    
C1    O1    A    
Cu2   O6    S    
C19   C27   A    
C36   H8    S    
C2    C34   S    
C40   C42   A    
Cu1   O5    S    
C34   C38   A    
C21   C22   A    
C9    O9    S    
C45   H25   S    
Cu1   N2    S    
C44   H22   S    
Cu2   N1    S    
C43   H19   S    
C46   H27   S    
C1    C33   S    
C23   O7    A    
O10   C46   S    
C45   H24   S    
C8    H10   S    
C48   H30   S    
C13   H16   S    
C20   C28   A    
C11   H17   S    
C46   H26   S    
C43   C44   S    
C33   C37   A    
Cu1   Cu2   S    
C3    C9    A    
C48   H31   S    
C12   H18   S    
C31   C32   S    
C13   N1    A    
C47   C48   S    
C3    C35   A    
Cu1   O1    S    
C14   N2    A    
C12   C20   A    
C16   C18   A    
C47   H29   S    
C35   H7    S    
C15   H14   S    
C7    H9    S    
C4    C10   A    
C25   H1    S    
C24   O8    A    
C46   C47   S    
C15   C17   A    
C5    C41   A    
C3    C41   A    
C18   C22   A    
C12   C14   A    
C45   H23   S    
C2    O2    A    
C5    C8    A    
C6    C7    A    
C25   C27   A    
C26   C28   A    
C36   C38   A    
C29   C31   T    
C48   H32   S    
C30   C32   T    
C37   H6    S    
C11   C13   A    
C4    C42   A    
C10   O10   S    
C17   C19   A    
C18   C20   A    
C16   H13   S    
C24   C30   S    
C26   H2    S    
C47   H28   S    
C8    C10   A    
C6    C42   A    
C15   N1    A    
Cu2   O3    S    
C16   N2    A    
C39   H4    S    
C17   C21   A    
