data_mof_unit_1926.cif
_audit_creation_date              2012-12-10T18:12:39-0500
_audit_creation_method            fapswitch 2.2
_symmetry_space_group_name_H-M    P1
_symmetry_Int_Tables_number       1
_space_group_crystal_system       triclinic
_cell_length_a                    12.618983
_cell_length_b                    13.134077
_cell_length_c                    15.708652
_cell_angle_alpha                 90.588932
_cell_angle_beta                  102.669979
_cell_angle_gamma                 82.354762
_cell_volume                      2517.07369666

loop_
_atom_site_label
_atom_site_type_symbol
_atom_type_description
_atom_site_fract_x
_atom_site_fract_y
_atom_site_fract_z
_atom_type_partial_charge
C1    C     C_R   0.438841 0.691259 0.492845 0.846460
C2    C     C_3   0.503444 0.498453 0.917977 0.178003
C3    C     C_3   0.428588 0.437266 0.013629 -0.157747
C4    C     C_3   0.499682 0.497211 0.082606 0.177000
C5    C     C_3   0.530730 0.401511 0.976181 -0.151073
C6    C     C_3   0.601830 0.461451 0.046985 -0.122169
C7    C     C_1   0.504284 0.499363 0.827066 -0.048552
C8    C     C_1   0.497945 0.497249 0.173345 -0.030331
C9    C     C_R   0.699730 0.067707 0.630832 -0.134382
C10   C     C_R   0.597167 0.200635 0.529317 -0.068740
C11   C     C_R   0.301215 0.836334 0.427916 -0.178848
C12   C     C_R   0.501050 0.500201 0.661925 0.893324
C13   C     C_R   0.273796 0.940358 0.407290 -0.110591
C14   C     C_R   0.347166 0.008567 0.440964 -0.176688
C15   C     C_R   0.447586 0.973788 0.499995 0.085328
C16   C     C_R   0.466580 0.871196 0.530689 0.092822
C17   C     C_R   0.529759 0.037213 0.529857 0.079838
C18   C     C_R   0.620204 0.003207 0.599226 0.155931
C19   C     C_R   0.628413 0.906455 0.637303 -0.197389
C20   C     C_R   0.552732 0.840944 0.603351 -0.203995
C21   C     C_R   0.524820 0.133508 0.492072 -0.226428
C22   C     C_R   0.687221 0.167229 0.596846 -0.193280
C23   C     C_R   0.561048 0.308880 0.510456 0.864446
C24   C     C_R   0.399354 0.800925 0.487182 -0.108496
C25   C     C_R   0.089751 0.345055 0.379597 -0.207833
C26   C     C_R   0.800677 0.628319 0.603813 -0.070172
C27   C     C_R   0.905888 0.655580 0.626281 0.443875
C28   C     C_R   0.986330 0.607129 0.585713 -0.272928
C29   C     C_R   0.962420 0.529520 0.524014 -0.050971
C30   C     C_R   0.854536 0.504033 0.504775 0.153562
C31   C     C_R   0.041150 0.476071 0.481480 -0.026633
C32   C     C_R   0.010883 0.397298 0.421045 0.036136
C33   C     C_R   0.903011 0.372667 0.403938 0.352794
C34   C     C_R   0.499127 0.499457 0.338117 0.911894
C35   C     C_R   0.827510 0.426185 0.446001 -0.273594
C36   C     C_R   0.149889 0.497658 0.496827 -0.000423
C37   C     C_R   0.195322 0.370082 0.398107 -0.013028
C38   C     C_3   0.472428 0.594120 0.024384 -0.163978
C39   C     C_3   0.574562 0.558383 0.986966 -0.165214
C40   C     C_1   0.503492 0.499969 0.751480 -0.160989
C41   C     C_1   0.497621 0.498020 0.248734 -0.132515
C42   C     C_3   0.401337 0.534191 0.953652 -0.146308
H1    H     H_    0.634262 0.607861 0.973929 0.158752
H2    H     H_    0.461734 0.160711 0.435819 0.143266
H3    H     H_    0.247617 0.783233 0.395200 0.166451
H4    H     H_    0.321875 0.088148 0.421454 0.135720
H5    H     H_    0.197578 0.967691 0.362062 0.170023
H6    H     H_    0.561173 0.766791 0.635277 0.161268
H7    H     H_    0.256623 0.329926 0.366829 0.135555
H8    H     H_    0.071792 0.285079 0.333255 0.215387
H9    H     H_    0.180299 0.555550 0.540955 0.131641
H10   H     H_    0.737196 0.665142 0.634360 0.171385
H11   H     H_    0.448457 0.672821 0.046206 0.152982
H12   H     H_    0.066274 0.631274 0.604261 0.182030
H13   H     H_    0.747229 0.405114 0.432169 0.239672
H14   H     H_    0.683680 0.431629 0.087380 0.187156
H15   H     H_    0.554702 0.322825 0.954333 0.153785
H16   H     H_    0.368889 0.387790 0.026665 0.152389
H17   H     H_    0.319433 0.564003 0.913353 0.167714
H18   H     H_    0.743596 0.219515 0.626557 0.167450
H19   H     H_    0.694064 0.880940 0.692668 0.201422
H20   H     H_    0.768461 0.042854 0.684270 0.174535
N1    N     N_R   0.222180 0.444680 0.455580 -0.104958
N2    N     N_R   0.776980 0.554790 0.543960 -0.143983
O1    O     O_R   0.366730 0.627160 0.478790 -0.616055
O2    O     O_R   0.544830 0.662520 0.507160 -0.609186
O3    O     O_R   0.410960 0.482330 0.609040 -0.606912
O4    O     O_R   0.589060 0.517690 0.637410 -0.615123
O5    O     O_R   0.455170 0.337480 0.492840 -0.611241
O6    O     O_R   0.633270 0.372840 0.521210 -0.637384
O7    O     O_R   0.410940 0.482310 0.362590 -0.616843
O8    O     O_R   0.589040 0.517670 0.390960 -0.612060
Zn1   Zn    Zn3+2 0.381080 0.476390 0.481050 0.956245
Zn2   Zn    Zn3+2 0.618920 0.523610 0.518950 0.953376
S1    S     S_3+6 0.858005 0.275573 0.330326 0.014860
O9    O     O_2   0.870456 0.302853 0.240682 -0.279382
O10   O     O_2   0.926926 0.174335 0.359110 -0.304952
O11   O     O_3   0.725547 0.263943 0.325393 -0.547594
H21   H     H_    0.725587 0.225024 0.379097 0.355168
S2    S     S_3+6 0.936457 0.750427 0.704488 -0.003311
O12   O     O_2   0.056161 0.733354 0.748066 -0.290882
O13   O     O_2   0.909389 0.854002 0.659448 -0.316117
O14   O     O_3   0.860992 0.745781 0.779949 -0.591788
H22   H     H_    0.876616 0.805279 0.817688 0.381425

loop_
_geom_bond_atom_site_label_1
_geom_bond_atom_site_label_2
_ccdc_geom_bond_type
C3    C42   S    
C30   N2    A    
C23   O5    A    
C19   C20   A    
C4    C8    S    
C14   H4    S    
C10   C22   A    
C12   O4    A    
C26   C27   A    
C30   C35   A    
C28   C29   A    
C19   H19   S    
C38   C42   S    
C22   H18   S    
C5    C6    S    
C9    C22   A    
O4    Zn2   S    
C15   C16   A    
O2    Zn2   S    
C11   C24   A    
O1    Zn1   S    
C18   C19   A    
C26   N2    A    
C25   H8    S    
C2    C7    S    
C25   C37   A    
C2    C39   S    
C33   S1    S    
C31   C32   A    
O6    Zn2   S    
C1    O1    A    
C7    C40   T    
O5    Zn1   S    
O3    Zn1   S    
C36   N1    A    
C25   C32   A    
C16   C24   A    
C13   C14   A    
C23   O6    A    
C34   C41   S    
S2    O14   S    
C37   N1    A    
C1    O2    A    
C10   C21   A    
C12   O3    A    
C4    C6    S    
C9    H20   S    
C8    C41   T    
O8    Zn2   S    
C27   S2    S    
C13   H5    S    
C28   H12   S    
O11   H21   S    
C39   H1    S    
N1    Zn1   S    
C35   H13   S    
C17   C21   A    
C12   C40   S    
S1    O9    D    
C29   C30   A    
C26   H10   S    
C21   H2    S    
C37   H7    S    
O14   H22   S    
C14   C15   A    
C16   C20   A    
C17   C18   A    
S1    O10   D    
C20   H6    S    
C36   H9    S    
S2    O13   D    
C4    C38   S    
C11   H3    S    
C2    C5    S    
C3    C4    S    
C34   O8    A    
O7    Zn1   S    
C15   C17   A    
C6    C39   S    
C6    H14   S    
S2    O12   D    
C3    C5    S    
C42   H17   S    
C10   C23   S    
C5    H15   S    
C32   C33   A    
C29   C31   A    
C11   C13   A    
C38   C39   S    
C38   H11   S    
C2    C42   S    
C33   C35   A    
S1    O11   S    
C3    H16   S    
C9    C18   A    
C1    C24   S    
C27   C28   A    
N2    Zn2   S    
C31   C36   A    
C34   O7    A    
