data_mof_unit_3263.cif
_audit_creation_date              2012-12-10T19:10:07-0500
_audit_creation_method            fapswitch 2.2
_symmetry_space_group_name_H-M    P1
_symmetry_Int_Tables_number       1
_space_group_crystal_system       triclinic
_cell_length_a                    10.810916
_cell_length_b                    10.830396
_cell_length_c                    9.566509
_cell_angle_alpha                 89.653885
_cell_angle_beta                  90.549997
_cell_angle_gamma                 91.180527
_cell_volume                      1119.80059758

loop_
_atom_site_label
_atom_site_type_symbol
_atom_type_description
_atom_site_fract_x
_atom_site_fract_y
_atom_site_fract_z
_atom_type_partial_charge
C1    C     C_R   0.499116 0.262385 0.500387 0.816430
C2    C     C_R   0.255934 0.818615 0.119242 -0.204593
C3    C     C_R   0.934264 0.567791 0.400551 -0.235013
C4    C     C_R   0.871822 0.496520 0.501444 -0.104087
C5    C     C_R   0.938747 0.427225 0.601107 0.048906
C6    C     C_R   0.067058 0.431649 0.597980 -0.148866
C7    C     C_R   0.128990 0.502775 0.497611 -0.086873
C8    C     C_R   0.062800 0.572029 0.397989 -0.023601
C9    C     C_R   0.888548 0.383806 0.850169 0.402529
C10   C     C_R   0.834508 0.309189 0.954885 -0.247829
C11   C     C_R   0.775858 0.197695 0.920382 -0.226210
C12   C     C_R   0.262647 0.502192 0.499221 0.773952
C13   C     C_R   0.770006 0.159374 0.781609 -0.097015
C14   C     C_R   0.819960 0.232907 0.674529 0.361496
C15   C     C_R   0.879185 0.347435 0.708922 -0.036860
C16   C     C_R   0.498757 0.062315 0.626094 0.050099
C17   C     C_R   0.504389 0.129112 0.500742 -0.097842
C18   C     C_R   0.521432 0.065596 0.374940 -0.163895
C19   C     C_R   0.520558 0.937222 0.374305 -0.194762
C20   C     C_R   0.504642 0.870813 0.499336 -0.085291
C21   C     C_R   0.498190 0.934818 0.624838 0.106916
C22   C     C_3   0.402843 0.922813 0.736279 -0.508901
C23   C     C_R   0.499303 0.737486 0.499605 0.835611
C24   C     C_3   0.403070 0.063276 0.738823 0.204745
C25   C     C_R   0.550924 0.597381 0.073533 0.049528
C26   C     C_R   0.437897 0.410210 0.071748 0.503877
C27   C     C_R   0.439132 0.410959 0.923974 -0.009223
C28   C     C_R   0.549587 0.597881 0.925955 0.159675
C29   C     C_3   0.679034 0.645663 0.916464 0.124910
C30   C     C_3   0.683448 0.641448 0.076294 0.166505
C31   C     C_R   0.737659 0.497786 0.500687 0.824477
C32   C     C_R   0.217907 0.858333 0.250128 -0.121879
C33   C     C_R   0.153332 0.777438 0.338618 -0.188202
C34   C     C_R   0.125923 0.655715 0.296975 0.015348
C35   C     C_R   0.164636 0.615166 0.163485 0.466050
C36   C     C_R   0.229272 0.697896 0.076197 -0.106913
Cu1   Cu    Cu3+1 0.499990 0.499980 0.640670 0.979662
Cu2   Cu    Cu3+1 0.500010 0.500020 0.359330 0.972505
H1    H     H_    0.306604 0.881380 0.051290 0.167700
H2    H     H_    0.736293 0.139850 0.001824 0.173608
H3    H     H_    0.530689 0.114417 0.276311 0.194214
H4    H     H_    0.526456 0.890508 0.275501 0.176755
H5    H     H_    0.314215 0.881424 0.697058 0.164740
H6    H     H_    0.239232 0.951761 0.283512 0.158531
H7    H     H_    0.389672 0.339446 0.866884 0.207142
H8    H     H_    0.740468 0.580847 0.863561 0.148856
H9    H     H_    0.747468 0.571355 0.118909 0.104550
N1    N     N_R   0.500790 0.500930 0.147930 -0.258863
N2    N     N_R   0.500790 0.500890 0.852020 -0.262923
O1    O     O_R   0.500000 0.319640 0.618810 -0.574617
O2    O     O_R   0.500010 0.319680 0.381230 -0.585037
O3    O     O_R   0.319640 0.499990 0.618790 -0.581329
O4    O     O_R   0.319650 0.500030 0.381210 -0.604245
O5    O     O_R   0.499990 0.680320 0.618770 -0.545728
O6    O     O_R   0.500000 0.680360 0.381190 -0.564156
O7    O     O_R   0.680350 0.499970 0.618790 -0.575237
O8    O     O_R   0.680360 0.500010 0.381210 -0.580986
H10   H     H_    0.727688 0.070657 0.757152 0.169473
O9    O     O_3   0.811308 0.187431 0.540046 -0.739716
H11   H     H_    0.855486 0.243375 0.474625 0.316524
H12   H     H_    0.440175 0.878825 0.832693 0.226285
H13   H     H_    0.314225 0.104453 0.704881 0.132046
O10   O     O_3   0.448337 0.112841 0.865479 -0.704988
H14   H     H_    0.527083 0.072252 0.890465 0.334088
O11   O     O_3   0.373904 0.314141 0.133853 -0.709437
H15   H     H_    0.337552 0.345122 0.220094 0.370556
O12   O     O_3   0.682995 0.765160 0.859381 -0.717780
H16   H     H_    0.771907 0.789335 0.855549 0.348093
O13   O     O_3   0.700558 0.757361 0.140149 -0.695379
H17   H     H_    0.638152 0.814400 0.101319 0.347389
H18   H     H_    0.125797 0.809236 0.440657 0.149618
O14   O     O_3   0.145552 0.496025 0.116126 -0.737596
H19   H     H_    0.098217 0.447125 0.185810 0.320169
H20   H     H_    0.260171 0.667907 0.974762 0.153682
H21   H     H_    0.882883 0.622912 0.325940 0.188027
H22   H     H_    0.119034 0.377534 0.673243 0.159655
O15   O     O_3   0.950709 0.492701 0.882896 -0.718071
H23   H     H_    0.939851 0.509689 0.983648 0.327372
H24   H     H_    0.839457 0.336552 0.063539 0.141650

loop_
_geom_bond_atom_site_label_1
_geom_bond_atom_site_label_2
_ccdc_geom_bond_type
C16   C21   A    
C35   C36   A    
C7    C8    A    
O15   H23   S    
C25   C28   A    
C14   O9    S    
C26   C27   A    
Cu1   Cu2   S    
C28   C29   S    
C34   C35   A    
C5    C6    A    
C2    C32   A    
C18   C19   A    
C29   O12   S    
Cu1   O7    S    
C2    H1    S    
Cu2   O6    S    
C19   C20   A    
C16   C17   A    
C31   O7    A    
C3    H21   S    
C1    O1    A    
Cu2   N1    S    
C12   O4    A    
C19   H4    S    
C26   N1    A    
C27   H7    S    
O9    H11   S    
C16   C24   S    
C13   C14   A    
O13   H17   S    
C12   O3    A    
C33   C34   A    
C7    C12   S    
O12   H16   S    
C30   H9    S    
C3    C8    A    
C18   H3    S    
Cu1   O3    S    
C4    C5    A    
C8    C34   S    
Cu2   O2    S    
C29   C30   S    
Cu2   O8    S    
Cu1   N2    S    
C28   N2    A    
C22   H5    S    
C20   C23   S    
C17   C18   A    
C32   H6    S    
C9    O15   S    
C23   O6    A    
C1    O2    A    
C25   N1    A    
C36   H20   S    
Cu1   O5    S    
C35   O14   S    
C24   O10   S    
C22   C24   S    
C3    C4    A    
C30   O13   S    
C23   O5    A    
C9    C10   A    
C2    C36   A    
C25   C30   S    
C24   H13   S    
C26   O11   S    
O14   H19   S    
C10   H24   S    
C6    H22   S    
C6    C7    A    
C13   H10   S    
C1    C17   S    
C29   H8    S    
C32   C33   A    
C31   O8    A    
C9    C15   A    
C22   H12   S    
Cu1   O1    S    
C11   C13   A    
Cu2   O4    S    
C11   H2    S    
C5    C15   S    
C4    C31   S    
C10   C11   A    
C33   H18   S    
O10   H14   S    
C20   C21   A    
O11   H15   S    
C14   C15   A    
C21   C22   S    
C27   N2    A    
