data_mof_unit_3839.cif
_audit_creation_date              2012-12-10T20:30:15-0500
_audit_creation_method            fapswitch 2.2
_symmetry_space_group_name_H-M    P1
_symmetry_Int_Tables_number       1
_space_group_crystal_system       triclinic
_cell_length_a                    9.924061
_cell_length_b                    10.688064
_cell_length_c                    13.054337
_cell_angle_alpha                 90.830461
_cell_angle_beta                  70.131253
_cell_angle_gamma                 89.971959
_cell_volume                      1302.07830278

loop_
_atom_site_label
_atom_site_type_symbol
_atom_type_description
_atom_site_fract_x
_atom_site_fract_y
_atom_site_fract_z
_atom_type_partial_charge
C1    C     C_R   0.499301 0.739782 0.501888 0.869324
C2    C     C_R   0.367423 0.495491 0.822446 -0.137235
C3    C     C_R   0.378288 0.936141 0.503171 0.075273
C4    C     C_R   0.420075 0.497017 0.704084 0.862352
C5    C     C_R   0.493460 0.871682 0.514527 -0.093603
C6    C     C_R   0.597900 0.936174 0.544289 -0.221651
C7    C     C_R   0.597156 0.065696 0.544688 -0.175547
C8    C     C_R   0.491267 0.128866 0.516157 -0.166827
C9    C     C_R   0.374801 0.063377 0.506192 0.114640
C10   C     C_3   0.301641 0.069404 0.422890 0.350129
C11   C     C_3   0.310420 0.926771 0.417527 -0.556292
C12   C     C_R   0.431221 0.481549 0.984513 0.008289
C13   C     C_R   0.887501 0.526618 0.593117 0.137020
C14   C     C_R   0.965780 0.456892 0.412963 -0.171778
C15   C     C_R   0.108192 0.453196 0.413437 0.437221
C16   C     C_R   0.498907 0.260231 0.502160 0.887641
C17   C     C_R   0.028928 0.526809 0.593153 0.035108
C18   C     C_3   0.001455 0.639428 0.666736 0.245019
C19   C     C_3   0.848835 0.641558 0.663173 0.261350
C20   C     C_R   0.579863 0.494493 0.295814 0.923051
C21   C     C_R   0.746522 0.328553 0.026407 -0.206224
C22   C     C_R   0.627774 0.466185 0.179514 -0.153712
C23   C     C_R   0.451227 0.441088 0.877639 0.039720
C24   C     C_R   0.245175 0.565862 0.879499 -0.343571
C25   C     C_R   0.208023 0.587166 0.992234 0.599186
C26   C     C_R   0.304989 0.549925 0.042431 -0.208376
C27   C     C_3   0.082183 0.099479 0.400055 -0.150120
C28   C     C_3   0.076069 0.836225 0.695265 -0.266966
C29   C     C_3   0.657596 0.719763 0.806091 -0.289454
C30   C     C_3   0.969975 0.638976 0.018848 -0.241958
C31   C     C_R   0.538453 0.452269 0.029091 0.104455
C32   C     C_R   0.648302 0.364151 0.975897 0.016037
C33   C     C_R   0.654780 0.311769 0.875097 0.379370
C34   C     C_R   0.557579 0.350855 0.826708 -0.157352
C35   C     C_R   0.540086 0.510326 0.124813 -0.253113
C36   C     C_R   0.733116 0.374935 0.129761 0.348087
Cl1   Cl    Cl    0.841456 0.306769 0.196199 -0.639181
Cl2   Cl    Cl    0.232154 0.376147 0.301449 -0.635132
Cl3   Cl    Cl    0.785359 0.200099 0.803933 -0.664184
H1    H     H_    0.682916 0.115296 0.561249 0.196338
H2    H     H_    0.183355 0.608249 0.835114 0.150345
H3    H     H_    0.276324 0.572360 0.128067 0.188537
H4    H     H_    0.565180 0.308969 0.748897 0.168153
H5    H     H_    0.683695 0.887546 0.561064 0.167626
H6    H     H_    0.037782 0.003425 0.406922 0.146847
H7    H     H_    0.146490 0.118242 0.313544 0.188207
H8    H     H_    0.990156 0.165664 0.424664 0.201657
H9    H     H_    0.151734 0.811707 0.738127 0.160059
H10   H     H_    0.966374 0.850346 0.755160 0.160743
H11   H     H_    0.108912 0.927139 0.654957 0.231574
H12   H     H_    0.366708 0.118054 0.347350 0.122683
H13   H     H_    0.589409 0.738155 0.755603 0.171864
H14   H     H_    0.721092 0.804114 0.810242 0.163747
H15   H     H_    0.585723 0.700689 0.890099 0.192159
H16   H     H_    0.957995 0.539917 0.995904 0.175498
H17   H     H_    0.978383 0.702198 0.950175 0.148761
H18   H     H_    0.870813 0.665202 0.086631 0.193362
H19   H     H_    0.205481 0.878835 0.447079 0.264651
H20   H     H_    0.385513 0.889939 0.338661 0.166884
H21   H     H_    0.942608 0.423616 0.342517 0.238785
H22   H     H_    0.009439 0.615317 0.747352 0.099904
H23   H     H_    0.824453 0.721667 0.618062 0.100888
H24   H     H_    0.829186 0.259602 0.989096 0.227692
H25   H     H_    0.467217 0.586105 0.162492 0.157827
N1    N     N_R   0.856940 0.500860 0.500710 -0.151888
N2    N     N_R   0.142580 0.500820 0.500710 -0.111980
O1    O     O_R   0.385310 0.683210 0.499990 -0.567472
O2    O     O_3   0.081213 0.744078 0.615431 -0.614390
O3    O     O_3   0.746198 0.614361 0.765714 -0.605352
O4    O     O_3   0.088027 0.655643 0.054780 -0.606070
O5    O     O_R   0.614650 0.683240 0.500000 -0.637097
O6    O     O_R   0.328390 0.499940 0.653610 -0.611342
O7    O     O_R   0.557730 0.499980 0.653620 -0.585321
O8    O     O_R   0.385350 0.316760 0.500000 -0.570578
O9    O     O_R   0.614690 0.316790 0.500010 -0.606366
O10   O     O_R   0.442270 0.500020 0.346380 -0.565025
O11   O     O_R   0.671610 0.500060 0.346390 -0.580930
O12   O     O_3   0.160505 0.116302 0.471542 -0.561840
Zn1   Zn    Zn3+2 0.346870 0.499980 0.499990 1.041336
Zn2   Zn    Zn3+2 0.653130 0.500020 0.500010 0.988527

loop_
_geom_bond_atom_site_label_1
_geom_bond_atom_site_label_2
_ccdc_geom_bond_type
C16   O9    A    
O10   Zn1   S    
C27   O12   S    
C10   O12   S    
C7    C8    A    
C21   C36   A    
C13   N1    A    
C22   C35   A    
C12   C23   A    
C17   N2    A    
C1    O5    A    
C20   O11   A    
C1    C5    S    
C36   Cl1   S    
C28   O2    S    
O6    Zn1   S    
C5    C6    A    
C29   H15   S    
C19   H23   S    
C18   O2    S    
C30   H18   S    
C20   O10   A    
C18   C19   S    
C28   H11   S    
C14   N1    A    
C8    C9    A    
C7    H1    S    
C35   H25   S    
C11   H19   S    
O9    Zn2   S    
C27   H6    S    
C8    C16   S    
N1    Zn2   S    
C6    H5    S    
C24   H2    S    
C11   H20   S    
C10   H12   S    
O5    Zn2   S    
C30   O4    S    
C33   C34   A    
C29   O3    S    
C21   C32   A    
C13   C19   S    
O1    Zn1   S    
C24   C25   A    
C25   C26   A    
C15   N2    A    
C30   H17   S    
C12   C26   A    
C2    C4    S    
C15   Cl2   S    
N2    Zn1   S    
C28   H10   S    
C31   C32   A    
C23   C34   A    
C17   C18   S    
C33   Cl3   S    
C3    C9    A    
C4    O7    A    
C27   H7    S    
C20   C22   S    
O8    Zn1   S    
C12   C31   A    
C2    C24   A    
C16   O8    A    
C19   O3    S    
C4    O6    A    
C22   C36   A    
C26   H3    S    
C9    C10   S    
O11   Zn2   S    
C27   H8    S    
C28   H9    S    
C34   H4    S    
C3    C5    A    
C18   H22   S    
C6    C7    A    
C14   H21   S    
C30   H16   S    
C13   C17   A    
C32   C33   A    
C29   H14   S    
C1    O1    A    
O7    Zn2   S    
C31   C35   A    
C21   H24   S    
C3    C11   S    
C10   C11   S    
C2    C23   A    
C14   C15   A    
C25   O4    S    
C29   H13   S    
