data_mof_unit_2471.cif
_audit_creation_date              2012-10-26T20:57:31-0400
_audit_creation_method            fapswitch 2.2
_symmetry_space_group_name_H-M    P1
_symmetry_Int_Tables_number       1
_space_group_crystal_system       triclinic
_cell_length_a                    14.623111
_cell_length_b                    14.725777
_cell_length_c                    15.856584
_cell_angle_alpha                 76.649671
_cell_angle_beta                  102.768438
_cell_angle_gamma                 115.480839
_cell_volume                      2970.16015214

loop_
_atom_site_label
_atom_site_type_symbol
_atom_type_description
_atom_site_fract_x
_atom_site_fract_y
_atom_site_fract_z
_atom_type_partial_charge
C1    C     C_R   0.879609 0.312058 0.515683 0.577730
C2    C     C_R   0.352178 0.929534 0.523362 0.019235
C3    C     C_R   0.672482 0.011415 0.603390 0.011366
C4    C     C_R   0.321379 0.002291 0.462179 0.023302
C5    C     C_R   0.528990 0.056788 0.528097 0.005486
C6    C     C_R   0.458719 0.956902 0.554560 0.012978
C7    C     C_R   0.498199 0.886058 0.604246 0.006247
C8    C     C_R   0.490931 0.131831 0.489922 -0.064227
C9    C     C_R   0.602631 0.912233 0.631276 0.252288
C10   C     C_R   0.388968 0.105795 0.453267 0.237865
C11   C     C_R   0.714999 0.663760 0.347713 -0.077210
C12   C     C_R   0.120044 0.687785 0.487793 0.578746
C13   C     C_R   0.298089 0.356079 0.662679 -0.072713
C14   C     C_R   0.796754 0.634406 0.373778 0.068695
C15   C     C_R   0.210659 0.375811 0.632515 0.069435
C16   C     C_R   0.999449 0.499737 0.660055 0.583669
C17   C     C_R   0.000500 0.500277 0.339904 0.569855
C18   C     C_R   0.715800 0.516031 0.490716 0.143955
C19   C     C_R   0.282830 0.483398 0.507682 0.144927
C20   C     C_R   0.635176 0.550009 0.472894 0.006959
C21   C     C_R   0.378655 0.476555 0.539993 0.001837
C22   C     C_R   0.631122 0.619657 0.395221 0.014150
C23   C     C_R   0.778200 0.043209 0.632119 -0.071727
C24   C     C_R   0.383355 0.405581 0.616750 -0.003081
C25   C     C_R   0.555939 0.511531 0.526692 -0.061051
C26   C     C_R   0.467243 0.533649 0.496146 -0.033224
C27   C     C_R   0.473059 0.615791 0.426065 0.224747
C28   C     C_R   0.563924 0.454751 0.611658 0.178599
C29   C     C_R   0.546244 0.647030 0.368871 0.224446
C30   C     C_R   0.474286 0.389507 0.648453 0.202872
C31   C     C_3   0.998591 0.413975 0.045928 0.271761
C32   C     C_3   0.000526 0.588473 0.953113 0.264805
C33   C     C_3   0.914199 0.423739 0.971131 -0.115097
C34   C     C_R   0.224892 0.969144 0.410710 -0.071009
C35   C     C_3   0.084918 0.578703 0.027949 -0.118064
C36   C     C_1   0.998693 0.499797 0.749505 0.105166
C37   C     C_1   0.001334 0.501025 0.250235 0.066058
C38   C     C_3   0.083190 0.489016 0.990645 -0.120204
C39   C     C_3   0.915913 0.513431 0.008455 -0.122044
C40   C     C_3   0.998842 0.500282 0.916548 -0.022787
C41   C     C_3   0.000309 0.502139 0.082572 -0.015947
C42   C     C_1   0.998488 0.499902 0.824950 0.064207
C43   C     C_1   0.001155 0.501808 0.174485 0.047408
C44   C     C_R   0.810880 0.204866 0.537217 0.010267
C45   C     C_R   0.845641 0.140857 0.602819 -0.156801
C46   C     C_R   0.187438 0.796187 0.482718 0.003668
C47   C     C_R   0.161799 0.866227 0.417179 -0.168742
C48   C     C_R   0.707486 0.169599 0.499919 0.214426
C49   C     C_R   0.275840 0.830527 0.544040 0.236207
C50   C     C_R   0.635728 0.080560 0.543750 0.001079
Cu1   Cu    Cu3+1 0.081740 0.475690 0.522610 1.072035
Cu2   Cu    Cu3+1 0.918260 0.524310 0.477390 1.079882
H1    H     H_    0.720903 0.723816 0.292553 0.188329
H2    H     H_    0.715341 0.453103 0.541311 0.164067
H3    H     H_    0.147559 0.340994 0.670361 0.131763
H4    H     H_    0.861668 0.670362 0.337995 0.133141
H5    H     H_    0.302985 0.753510 0.368556 0.365451
H6    H     H_    0.717592 0.512701 0.823193 0.389849
H7    H     H_    0.994734 0.158631 0.081386 0.389350
H8    H     H_    0.997073 0.840937 0.916442 0.391182
H9    H     H_    0.572560 0.650806 0.721134 0.407057
H10   H     H_    0.443007 0.317737 0.478267 0.314974
H11   H     H_    0.342956 0.807358 0.783062 0.399790
H12   H     H_    0.299665 0.306624 0.724477 0.190583
H13   H     H_    0.555324 0.161540 0.282222 0.399383
H14   H     H_    0.091643 0.841439 0.371908 0.146225
H15   H     H_    0.925327 0.166265 0.631504 0.150202
H16   H     H_    0.809547 0.995361 0.680399 0.209768
H17   H     H_    0.200142 0.020872 0.360958 0.210717
H18   H     H_    0.366050 0.623172 0.229248 0.353003
H19   H     H_    0.561147 0.236215 0.664591 0.322181
H20   H     H_    0.848101 0.524765 0.016231 0.176399
H21   H     H_    0.150974 0.477699 0.982770 0.178146
H22   H     H_    0.448646 0.808894 0.622781 0.251221
H23   H     H_    0.541830 0.211150 0.485903 0.166485
H24   H     H_    0.844935 0.359615 0.947347 0.192042
H25   H     H_    0.154173 0.642893 0.051645 0.182708
H26   H     H_    0.270122 0.525318 0.444418 0.187545
N1    N     N_R   0.795440 0.560790 0.443380 -0.232079
N2    N     N_R   0.204560 0.439210 0.556620 -0.235929
O1    O     O_R   0.977900 0.338120 0.529810 -0.513410
O2    O     O_2   0.401557 0.690660 0.524094 -0.293785
O3    O     O_3   0.319481 0.697176 0.361926 -0.514074
O4    O     O_2   0.735681 0.429575 0.699370 -0.289417
O5    O     O_2   0.748741 0.604688 0.651398 -0.207133
O6    O     O_3   0.652320 0.498885 0.783066 -0.446272
O7    O     O_2   0.091936 0.317353 0.175727 -0.224408
O8    O     O_2   0.904056 0.244867 0.154792 -0.207240
O9    O     O_3   0.995248 0.221930 0.042391 -0.490750
O10   O     O_2   0.098164 0.760048 0.848097 -0.201854
O11   O     O_2   0.910420 0.685050 0.820086 -0.205380
O12   O     O_R   0.022100 0.661880 0.470190 -0.511740
O13   O     O_3   0.998009 0.778268 0.955704 -0.491407
O14   O     O_2   0.718305 0.807501 0.648040 -0.221157
O15   O     O_2   0.692544 0.842523 0.782861 -0.229119
O16   O     O_3   0.542302 0.702135 0.703844 -0.460393
O17   O     O_2   0.333980 0.201510 0.298810 -0.192113
O18   O     O_2   0.251767 0.190098 0.421829 -0.255397
O19   O     O_3   0.440018 0.319085 0.415050 -0.488869
O20   O     O_2   0.160859 0.740070 0.674116 -0.236495
O21   O     O_2   0.286990 0.674569 0.668969 -0.241153
O22   O     O_3   0.351116 0.848305 0.724021 -0.489086
O23   O     O_R   0.839850 0.379180 0.491620 -0.469413
O24   O     O_2   0.657838 0.309776 0.378082 -0.268434
O25   O     O_2   0.767175 0.242392 0.340178 -0.217908
O26   O     O_3   0.574848 0.125880 0.339703 -0.465685
O27   O     O_2   0.591761 0.825729 0.260804 -0.157895
O28   O     O_2   0.557076 0.676836 0.195953 -0.261942
O29   O     O_3   0.403821 0.697183 0.230709 -0.410000
O30   O     O_2   0.483640 0.304930 0.817759 -0.163781
O31   O     O_2   0.377272 0.190730 0.711640 -0.265510
O32   O     O_3   0.572919 0.252825 0.724217 -0.420649
O33   O     O_R   0.160150 0.620820 0.508380 -0.441317
O34   O     O_R   0.069010 0.479460 0.640020 -0.501232
O35   O     O_R   0.930990 0.520540 0.359980 -0.494813
O36   O     O_R   0.930960 0.520530 0.601820 -0.461338
O37   O     O_R   0.069040 0.479470 0.398180 -0.494047
O38   O     O_2   0.506493 0.812795 0.415040 -0.195677
S1    S     S_3+6 0.425924 0.707088 0.433373 0.036964
S2    S     S_3+6 0.474938 0.282088 0.728045 0.082889
S3    S     S_3+6 0.680002 0.498139 0.685834 0.062177
S4    S     S_3+6 0.997471 0.296714 0.109110 0.069198
S5    S     S_3+6 0.001917 0.705810 0.889865 0.075528
S6    S     S_3+6 0.642517 0.815407 0.693399 0.078409
S7    S     S_3+6 0.350261 0.204601 0.395219 0.053937
S8    S     S_3+6 0.266969 0.769309 0.654871 0.048289
S9    S     S_3+6 0.677975 0.215852 0.387001 0.060959
S10   S     S_3+6 0.526826 0.714052 0.261759 0.105965

loop_
_geom_bond_atom_site_label_1
_geom_bond_atom_site_label_2
_ccdc_geom_bond_type
O15   S6    D    
C14   H4    S    
C21   C26   A    
Cu2   O23   S    
C23   C45   A    
C22   C29   A    
C27   C29   A    
O10   S5    D    
C36   C42   T    
H9    O16   S    
C39   C41   S    
C25   C28   A    
C49   S8    S    
O24   S9    D    
C46   C49   A    
C26   C27   A    
C33   C39   S    
O20   S8    D    
C19   C21   A    
O27   S10   D    
C5    C6    A    
C11   C14   A    
O19   S7    S    
O9    S4    S    
C1    O1    A    
C16   O36   A    
C9    S6    S    
H7    O9    S    
C32   C39   S    
O3    S1    S    
O38   S1    D    
C33   H24   S    
Cu1   N2    S    
C3    C23   A    
O18   S7    D    
C18   N1    A    
C45   H15   S    
C39   H20   S    
H5    O3    S    
O5    S3    D    
Cu2   N1    S    
C1    O23   A    
C47   H14   S    
C11   H1    S    
C17   O37   A    
H8    O13   S    
C40   C42   S    
O11   S5    D    
C41   C43   S    
C32   S5    S    
C2    C6    A    
O2    S1    D    
H11   O22   S    
H6    O6    S    
C3    C50   A    
C7    H22   S    
Cu2   O36   S    
C4    C34   A    
C33   C40   S    
O16   S6    S    
Cu1   Cu2   S    
Cu1   O34   S    
C32   C35   S    
C35   C38   S    
O17   S7    D    
O30   S2    D    
O32   S2    S    
O25   S9    D    
C28   S3    S    
C17   C37   S    
O4    S3    D    
O26   S9    S    
C35   H25   S    
C8    H23   S    
C13   C24   A    
O31   S2    D    
C15   H3    S    
C23   H16   S    
C37   C43   T    
C19   H26   S    
C2    C4    A    
C3    C9    A    
C2    C49   A    
C5    C8    A    
O29   S10   S    
C15   N2    A    
C1    C44   S    
H19   O32   S    
O6    S3    S    
C31   C33   S    
O21   S8    D    
Cu1   O33   S    
C14   N1    A    
O28   S10   D    
C34   H17   S    
C12   C46   S    
C20   C22   A    
C13   C15   A    
C5    C50   A    
Cu2   O12   S    
C21   C24   A    
C4    C10   A    
C10   S7    S    
H13   O26   S    
C44   C45   A    
C17   O35   A    
C12   O33   A    
Cu2   O35   S    
C7    C9    A    
Cu1   O1    S    
C46   C47   A    
H18   O29   S    
C31   C41   S    
O8    S4    D    
C12   O12   A    
O13   S5    S    
C31   S4    S    
O22   S8    S    
C16   O34   A    
O7    S4    D    
C6    C7    A    
C27   S1    S    
C11   C22   A    
C31   C38   S    
C28   C30   A    
C25   C26   A    
C16   C36   S    
C48   S9    S    
C38   C40   S    
C13   H12   S    
C30   S2    S    
C48   C50   A    
Cu1   O37   S    
C18   C20   A    
C32   C40   S    
C19   N2    A    
C35   C41   S    
C24   C30   A    
C18   H2    S    
H10   O19   S    
C8    C10   A    
C20   C25   A    
C29   S10   S    
C34   C47   A    
C44   C48   A    
C38   H21   S    
O14   S6    D    
