data_mof_unit_3073.cif
_audit_creation_date              2012-10-26T19:59:13-0400
_audit_creation_method            fapswitch 2.2
_symmetry_space_group_name_H-M    P1
_symmetry_Int_Tables_number       1
_space_group_crystal_system       triclinic
_cell_length_a                    7.531249
_cell_length_b                    8.660972
_cell_length_c                    15.581817
_cell_angle_alpha                 94.030045
_cell_angle_beta                  76.097075
_cell_angle_gamma                 103.158038
_cell_volume                      960.561687694

loop_
_atom_site_label
_atom_site_type_symbol
_atom_type_description
_atom_site_fract_x
_atom_site_fract_y
_atom_site_fract_z
_atom_type_partial_charge
C1    C     C_R   0.545228 0.799832 0.502187 0.541987
C2    C     C_R   0.613288 0.509849 0.333366 0.538310
C3    C     C_R   0.315248 0.435760 0.758930 -0.020090
C4    C     C_R   0.675349 0.507120 0.236284 -0.018082
C5    C     C_R   0.091882 0.258583 0.869017 -0.131465
C6    C     C_R   0.917375 0.547169 0.100776 -0.125044
C7    C     C_R   0.148121 0.323099 0.784097 -0.101393
C8    C     C_R   0.864905 0.549515 0.193041 -0.118901
C9    C     C_R   0.430760 0.478523 0.818059 -0.114184
C10   C     C_R   0.539442 0.459696 0.186337 -0.117646
C11   C     C_R   0.380402 0.407359 0.901250 -0.002868
C12   C     C_R   0.455143 0.200171 0.497243 0.544033
C13   C     C_R   0.589623 0.444676 0.094177 0.007409
C14   C     C_R   0.203515 0.307878 0.929946 -0.038106
C15   C     C_R   0.781650 0.495192 0.050901 -0.010496
C16   C     C_R   0.512981 0.416488 0.951329 -0.025766
C17   C     C_R   0.454249 0.389523 0.042764 -0.022755
C18   C     C_3   0.277334 0.094927 0.158516 -0.002049
C19   C     C_3   0.224606 0.032150 0.252644 -0.255445
C20   C     C_3   0.307962 0.888883 0.257795 -0.473835
C21   C     C_3   0.649864 0.194501 0.823650 0.011701
C22   C     C_3   0.735423 0.098691 0.744200 -0.276693
C23   C     C_R   0.269168 0.297001 0.074845 0.244150
C24   C     C_3   0.595791 0.947165 0.728607 -0.477577
C25   C     C_R   0.702353 0.423957 0.909498 0.244008
C26   C     C_R   0.148284 0.252799 0.016819 -0.115239
C27   C     C_R   0.836225 0.484061 0.958516 -0.113719
C28   C     C_2   0.570461 0.968089 0.503004 -0.164635
C29   C     C_2   0.430377 0.031944 0.495674 -0.163575
C30   C     C_R   0.385573 0.482498 0.666077 0.534853
Cu1   Cu    Cu3+1 0.322120 0.483240 0.490330 0.935595
Cu2   Cu    Cu3+1 0.677880 0.516760 0.509670 0.945009
H1    H     H_    0.011829 0.175735 0.039912 0.126894
H2    H     H_    0.295679 0.960400 0.488625 0.128054
H3    H     H_    0.003668 0.617087 0.569117 0.242139
H4    H     H_    0.996354 0.382912 0.430872 0.242619
H5    H     H_    0.432912 0.118989 0.135130 0.137052
H6    H     H_    0.213369 0.002189 0.114939 0.128375
H7    H     H_    0.277284 0.127204 0.297915 0.185500
H8    H     H_    0.069445 0.997524 0.274898 0.171021
H9    H     H_    0.262827 0.793955 0.210908 0.139878
H10   H     H_    0.259730 0.841468 0.325851 0.167888
H11   H     H_    0.463467 0.923830 0.241544 0.151674
H12   H     H_    0.982429 0.516535 0.925282 0.140825
H13   H     H_    0.507041 0.192103 0.816356 0.165961
H14   H     H_    0.637924 0.130377 0.885128 0.108401
H15   H     H_    0.779291 0.171533 0.683648 0.194291
H16   H     H_    0.858113 0.061429 0.756778 0.135072
H17   H     H_    0.543410 0.875422 0.789544 0.136306
H18   H     H_    0.666132 0.875063 0.675121 0.172579
H19   H     H_    0.475361 0.976418 0.708670 0.149642
H20   H     H_    0.393722 0.439385 0.220084 0.191453
H21   H     H_    0.565402 0.559620 0.797368 0.153620
H22   H     H_    0.971740 0.586439 0.230445 0.132649
H23   H     H_    0.065593 0.284047 0.736106 0.164383
H24   H     H_    0.961904 0.171763 0.887623 0.122720
H25   H     H_    0.064483 0.582843 0.068409 0.110296
H26   H     H_    0.705090 0.039654 0.510160 0.131397
N1    N     N_2   0.945180 0.542040 0.524240 -0.257348
N2    N     N_2   0.054820 0.457960 0.475760 -0.261381
O1    O     O_R   0.384450 0.714270 0.493720 -0.501976
O2    O     O_3   0.755016 0.354760 0.825816 -0.573314
O3    O     O_R   0.615550 0.285730 0.506280 -0.499726
O4    O     O_R   0.684880 0.742590 0.510050 -0.505433
O5    O     O_R   0.315120 0.257410 0.489950 -0.505111
O6    O     O_R   0.265540 0.477900 0.617090 -0.498297
O7    O     O_R   0.734460 0.522100 0.382910 -0.496972
O8    O     O_R   0.565970 0.506210 0.633420 -0.491414
O9    O     O_R   0.434030 0.493790 0.366580 -0.507541
O10   O     O_3   0.209486 0.234394 0.158748 -0.589669

loop_
_geom_bond_atom_site_label_1
_geom_bond_atom_site_label_2
_ccdc_geom_bond_type
Cu1   N2    S    
C18   O10   S    
C1    C28   S    
C2    C4    S    
C3    C9    A    
C7    H23   S    
C12   C29   S    
C25   C27   A    
C2    O9    A    
C12   O5    A    
Cu1   O1    S    
C5    H24   S    
C20   H10   S    
Cu1   Cu2   S    
C6    H25   S    
C13   C17   A    
C4    C8    A    
C10   H20   S    
C24   H19   S    
C22   H15   S    
C18   H6    S    
N1    N2    D    
C30   O6    A    
C21   C22   S    
C14   C26   A    
Cu2   O8    S    
C9    C11   A    
C23   O10   S    
C5    C14   A    
C17   C23   A    
C19   H7    S    
Cu2   O7    S    
C24   H17   S    
C3    C30   S    
C28   C29   D    
H4    N2    S    
C18   H5    S    
C22   H16   S    
C20   H9    S    
C3    C7    A    
C28   H26   S    
C25   O2    S    
C13   C15   A    
C24   H18   S    
C11   C14   A    
C22   C24   S    
C9    H21   S    
C19   H8    S    
C4    C10   A    
C1    O4    A    
C2    O7    A    
Cu1   O9    S    
C20   H11   S    
Cu2   O4    S    
H3    N1    S    
C21   H14   S    
C11   C16   A    
C23   C26   A    
C8    H22   S    
C16   C25   A    
C5    C7    A    
C12   O3    A    
Cu1   O5    S    
C18   C19   S    
C6    C8    A    
C26   H1    S    
Cu2   N1    S    
C21   O2    S    
C6    C15   A    
C27   H12   S    
Cu1   O6    S    
C15   C27   A    
C29   H2    S    
C30   O8    A    
C19   C20   S    
Cu2   O3    S    
C16   C17   A    
C21   H13   S    
C10   C13   A    
C1    O1    A    
