data_mof_unit_4874.cif
_audit_creation_date              2013-03-05T16:38:03-0500
_audit_creation_method            fapswitch 2.2
_symmetry_space_group_name_H-M    P1
_symmetry_Int_Tables_number       1
_space_group_crystal_system       triclinic
_cell_length_a                    18.915116
_cell_length_b                    18.844783
_cell_length_c                    18.760934
_cell_angle_alpha                 109.304675
_cell_angle_beta                  109.251791
_cell_angle_gamma                 109.47587
_cell_volume                      5171.99940333

loop_
_atom_site_label
_atom_site_type_symbol
_atom_site_description
_atom_site_fract_x
_atom_site_fract_y
_atom_site_fract_z
_atom_type_partial_charge
O1    O     O_R   0.409800 0.552190 0.462000 -0.559072
O2    O     O_R   0.409840 0.447810 0.357640 -0.533875
C1    C     C_R   0.382997 0.502505 0.381458 0.810526
O3    O     O_R   0.590160 0.642370 0.552180 -0.588342
O4    O     O_R   0.590190 0.537990 0.447820 -0.521135
C2    C     C_R   0.619994 0.619197 0.501361 0.903157
Cu1   Cu    Cu3+1 0.499980 0.561800 0.561790 1.053429
Cu2   Cu    Cu3+1 0.500020 0.438200 0.438210 1.185066
O5    O     O_R   0.590160 0.552190 0.642360 -0.607828
O6    O     O_R   0.590200 0.447810 0.538000 -0.544791
O7    O     O_R   0.409810 0.462010 0.552180 -0.586935
O8    O     O_R   0.409840 0.357630 0.447820 -0.539490
C3    C     C_R   0.617966 0.499737 0.619188 0.875710
C4    C     C_R   0.380918 0.381219 0.500230 0.808321
H1    H     H_    0.788610 0.896898 0.899254 0.156430
C5    C     C_R   0.713853 0.864494 0.766448 0.022967
C6    C     C_R   0.702647 0.826711 0.681406 0.022473
C7    C     C_R   0.753211 0.789322 0.664844 -0.010363
C8    C     C_R   0.815466 0.791916 0.733459 -0.062695
H2    H     H_    0.857565 0.767511 0.722870 0.192437
C9    C     C_R   0.828303 0.832009 0.817275 -0.053248
H3    H     H_    0.880449 0.839934 0.871174 0.194218
C10   C     C_R   0.776850 0.866091 0.833314 -0.228145
C11   C     C_R   0.821034 0.824550 0.579696 -0.046262
C12   C     C_R   0.815240 0.813685 0.499638 -0.136484
C13   C     C_R   0.742742 0.742596 0.420394 -0.100907
C14   C     C_R   0.681541 0.676914 0.421854 0.254574
C15   C     C_R   0.686506 0.687556 0.501762 -0.171662
C16   C     C_R   0.753954 0.764459 0.580798 -0.089909
C17   C     C_R   0.655985 0.745359 0.288561 -0.088969
H4    H     H_    0.613663 0.753459 0.313848 0.211813
C18   C     C_R   0.640583 0.742709 0.209264 -0.188342
H5    H     H_    0.586546 0.748965 0.174863 0.195082
C19   C     C_R   0.694426 0.732063 0.174847 0.410571
C20   C     C_R   0.764831 0.725728 0.222294 -0.152462
H6    H     H_    0.808052 0.718434 0.198108 0.182667
C21   C     C_R   0.780763 0.729850 0.302164 -0.172394
H7    H     H_    0.836463 0.727969 0.339142 0.127477
C22   C     C_R   0.726204 0.738672 0.335498 0.162218
H8    H     H_    0.464002 0.902328 0.585741 0.190408
C23   C     C_R   0.388255 0.766254 0.540911 0.007104
C24   C     C_R   0.350544 0.681023 0.472189 0.378986
C25   C     C_R   0.367895 0.667102 0.401987 -0.153291
C26   C     C_R   0.418959 0.739892 0.399124 0.310905
C27   C     C_R   0.450821 0.823533 0.465050 -0.087281
H9    H     H_    0.487409 0.879607 0.462689 0.245389
C28   C     C_R   0.436768 0.836552 0.535300 -0.155392
C29   C     C_R   0.251824 0.574112 0.251358 -0.113495
H10   H     H_    0.252609 0.632882 0.254183 0.168499
C30   C     C_R   0.183071 0.494175 0.181903 -0.093169
C31   C     C_R   0.174991 0.417128 0.183240 0.012406
C32   C     C_R   0.244872 0.422764 0.246660 -0.156180
H11   H     H_    0.241841 0.363851 0.245531 0.162653
C33   C     C_R   0.314825 0.503084 0.315777 -0.010821
C34   C     C_R   0.314049 0.580108 0.322020 0.121586
C35   C     C_R   0.060249 0.291324 0.169996 -0.134387
H12   H     H_    0.092630 0.322149 0.240244 0.137854
C36   C     C_R   0.985503 0.210557 0.121519 -0.137339
H13   H     H_    0.961044 0.179744 0.154237 0.174383
C37   C     C_R   0.942641 0.169119 0.031029 -0.068097
H14   H     H_    0.885239 0.105976 0.994640 0.167216
C38   C     C_R   0.973958 0.208743 0.988140 0.012254
C39   C     C_R   0.048710 0.290928 0.037392 -0.140177
H15   H     H_    0.072504 0.322476 0.004979 0.080512
C40   C     C_R   0.093093 0.332357 0.128629 0.140763
H16   H     H_    0.159881 0.566701 0.590007 0.137174
C41   C     C_R   0.251625 0.526559 0.635646 -0.058902
H17   H     H_    0.283972 0.577159 0.702519 0.146842
C42   C     C_R   0.278771 0.466087 0.613004 -0.069063
H18   H     H_    0.329780 0.468526 0.663329 0.110452
C43   C     C_R   0.236214 0.399171 0.526753 0.129223
C44   C     C_R   0.166568 0.394351 0.463243 -0.106649
H19   H     H_    0.130508 0.341087 0.397146 0.131635
C45   C     C_R   0.139176 0.454561 0.486121 0.001563
H20   H     H_    0.084436 0.449438 0.437222 0.155520
C46   C     C_R   0.181382 0.520380 0.572343 -0.018443
C47   C     C_R   0.181349 0.253191 0.503288 -0.198858
H21   H     H_    0.128509 0.259589 0.509583 0.211987
C48   C     C_R   0.185819 0.179215 0.494704 -0.086900
C49   C     C_R   0.256296 0.171030 0.491006 -0.053017
C50   C     C_R   0.320801 0.238097 0.493461 0.318286
C51   C     C_R   0.315709 0.313875 0.502433 -0.184306
C52   C     C_R   0.245834 0.321488 0.509336 -0.067828
C53   C     C_R   0.295338 0.088246 0.562524 -0.109606
H22   H     H_    0.316835 0.140803 0.624831 0.216654
C54   C     C_R   0.295358 0.012787 0.557904 -0.212944
H23   H     H_    0.317834 0.009320 0.617047 0.183153
C55   C     C_R   0.265279 0.942118 0.477558 0.396260
C56   C     C_R   0.237791 0.949572 0.402576 -0.204106
H24   H     H_    0.215269 0.896237 0.340535 0.166381
C57   C     C_R   0.237309 0.024941 0.407100 -0.100292
H25   H     H_    0.215271 0.029070 0.348299 0.196241
C58   C     C_R   0.263903 0.093967 0.486853 0.119625
H26   H     H_    0.436639 0.542612 0.827626 0.143079
C59   C     C_R   0.559669 0.604748 0.837178 -0.063592
H27   H     H_    0.569527 0.669237 0.870337 0.182676
C60   C     C_R   0.622381 0.593753 0.819236 -0.026294
H28   H     H_    0.680086 0.650422 0.838792 0.197530
C61   C     C_R   0.610064 0.510366 0.775566 0.068875
C62   C     C_R   0.534116 0.438052 0.750635 -0.043104
H29   H     H_    0.525242 0.373864 0.718461 0.209655
C63   C     C_R   0.470867 0.449023 0.769074 0.029951
C64   C     C_R   0.484424 0.532835 0.812663 -0.208813
C65   C     C_R   0.742113 0.497004 0.820961 0.340855
C66   C     C_R   0.814739 0.499862 0.813210 -0.186626
C67   C     C_R   0.823589 0.505205 0.742835 -0.138749
C68   C     C_R   0.761669 0.511661 0.682453 -0.037532
C69   C     C_R   0.687061 0.503807 0.687861 -0.090390
C70   C     C_R   0.678797 0.500239 0.759047 -0.082815
C71   C     C_R   0.974796 0.570882 0.769347 -0.084072
H30   H     H_    0.991142 0.630359 0.822154 0.116348
C72   C     C_R   0.035519 0.569229 0.743213 -0.105866
H31   H     H_    0.098404 0.626264 0.777041 0.154836
C73   C     C_R   0.013942 0.495348 0.671309 -0.060944
H32   H     H_    0.060047 0.495009 0.649282 0.161188
C74   C     C_R   0.932344 0.422294 0.626762 -0.039932
H33   H     H_    0.915320 0.367337 0.568772 0.220293
C75   C     C_R   0.872209 0.420938 0.655226 -0.065700
C76   C     C_R   0.892975 0.497137 0.726200 0.005581
O9    O     O_R   0.052200 0.909800 0.461980 -0.616243
O10   O     O_R   0.947810 0.909820 0.357620 -0.534848
C77   C     C_R   0.998596 0.879603 0.381341 0.821521
O11   O     O_R   0.962020 0.909790 0.552160 -0.543647
O12   O     O_R   0.857630 0.909810 0.447800 -0.590687
C78   C     C_R   0.881617 0.880614 0.499366 0.793894
Cu3   Cu    Cu3+1 0.061810 0.999960 0.561770 1.022867
Cu4   Cu    Cu3+1 0.938190 0.999990 0.438190 1.096758
O13   O     O_R   0.052190 0.090130 0.642340 -0.581759
O14   O     O_R   0.947800 0.090160 0.537980 -0.581179
O15   O     O_R   0.142370 0.090140 0.552150 -0.600590
O16   O     O_R   0.037980 0.090170 0.447800 -0.519419
C79   C     C_R   0.000271 0.119574 0.618538 0.804938
C80   C     C_R   0.118518 0.114751 0.496294 0.860874
O17   O     O_R   0.052200 0.461970 0.909800 -0.533921
O18   O     O_R   0.947810 0.357610 0.909840 -0.597514
C81   C     C_R   0.003542 0.381883 0.884317 0.742428
O19   O     O_R   0.142370 0.552160 0.090140 -0.573850
O20   O     O_R   0.037990 0.447800 0.090170 -0.582618
C82   C     C_R   0.117951 0.496387 0.115706 0.762610
Cu5   Cu    Cu3+1 0.061800 0.561770 0.999960 1.031624
Cu6   Cu    Cu3+1 0.938200 0.438190 0.000000 1.066549
O21   O     O_R   0.052190 0.642350 0.090120 -0.593630
O22   O     O_R   0.947800 0.537990 0.090150 -0.554244
O23   O     O_R   0.962010 0.552150 0.909780 -0.597704
O24   O     O_R   0.857630 0.447800 0.909820 -0.531640
C83   C     C_R   0.998876 0.618873 0.117399 0.841067
C84   C     C_R   0.881437 0.498860 0.879773 0.835734
H34   H     H_    0.975233 0.662391 0.566004 0.145849
C85   C     C_R   0.053954 0.748549 0.537303 -0.089723
H35   H     H_    0.107618 0.787641 0.603132 0.159307
C86   C     C_R   0.059487 0.768581 0.473219 -0.012058
H36   H     H_    0.118160 0.822375 0.490231 0.184366
C87   C     C_R   0.989742 0.719436 0.387904 0.063357
C88   C     C_R   0.916834 0.645824 0.366698 -0.183280
H37   H     H_    0.863629 0.604576 0.300564 0.169835
C89   C     C_R   0.911199 0.626105 0.430918 -0.097041
H38   H     H_    0.854000 0.570521 0.414345 0.172204
C90   C     C_R   0.979527 0.677794 0.516340 -0.108087
C91   C     C_R   0.992141 0.674651 0.250678 -0.156339
H39   H     H_    0.987301 0.616221 0.252276 0.171798
C92   C     C_R   0.998577 0.686513 0.183215 -0.100437
C93   C     C_R   0.007370 0.763073 0.181042 -0.087654
C94   C     C_R   0.003571 0.824751 0.244400 0.284959
C95   C     C_R   0.000250 0.813711 0.314674 -0.210705
C96   C     C_R   0.995825 0.738215 0.318318 -0.032212
C97   C     C_R   0.110191 0.832125 0.137246 -0.174306
H40   H     H_    0.161730 0.859400 0.202022 0.118721
C98   C     C_R   0.129773 0.847810 0.076251 -0.044232
C99   C     C_R   0.061978 0.810099 0.990274 -0.044692
C100  C     C_R   0.975627 0.758539 0.968640 -0.007882
C101  C     C_R   0.958458 0.746153 0.032276 -0.053332
H41   H     H_    0.892949 0.707578 0.016645 0.217089
C102  C     C_R   0.025259 0.781583 0.115864 0.116355
C103  C     C_R   0.295342 0.517549 0.995080 -0.335067
H42   H     H_    0.329122 0.582027 0.004886 0.194810
C104  C     C_R   0.212654 0.459003 0.923726 0.427563
C105  C     C_R   0.167682 0.374307 0.909969 -0.165529
C106  C     C_R   0.210166 0.347949 0.965581 -0.202211
C107  C     C_R   0.296710 0.407175 0.033972 0.380142
C108  C     C_R   0.338863 0.492127 0.048278 -0.155272
C109  C     C_R   0.076421 0.244273 0.764996 -0.195005
H43   H     H_    0.133193 0.237421 0.775862 0.166677
C110  C     C_R   0.001366 0.189341 0.684250 -0.034505
C111  C     C_R   0.930958 0.205166 0.666898 0.196323
C112  C     C_R   0.932274 0.265894 0.735216 -0.129586
H44   H     H_    0.877120 0.275837 0.723291 0.138530
C113  C     C_R   0.005830 0.317548 0.817366 -0.080523
C114  C     C_R   0.081112 0.310760 0.831142 0.040020
C115  C     C_R   0.866446 0.185366 0.515331 0.227310
C116  C     C_R   0.793906 0.145450 0.432341 0.192402
C117  C     C_R   0.714156 0.079668 0.410056 0.135367
C118  C     C_R   0.705998 0.054409 0.470884 0.187457
C119  C     C_R   0.776259 0.096872 0.555350 0.177635
C120  C     C_R   0.856642 0.162452 0.578053 -0.203104
N1    N     N_R   0.678031 0.728213 0.092703 0.134881
O25   O     O_R   0.613153 0.734645 0.049023 -0.366009
O26   O     O_R   0.727564 0.717860 0.060606 -0.319266
C121  C     C_2   0.376943 0.785997 0.618591 0.530913
H45   H     H_    0.420925 0.849422 0.676215 0.076080
O27   O     O_2   0.317346 0.734362 0.618695 -0.498854
N2    N     N_R   0.291890 0.609071 0.471572 0.139178
O28   O     O_R   0.212026 0.560855 0.409245 -0.385671
O29   O     O_R   0.318977 0.590807 0.532724 -0.336200
N3    N     N_R   0.435152 0.729851 0.327587 0.118717
O30   O     O_R   0.441845 0.663628 0.287361 -0.363590
O31   O     O_R   0.446323 0.788582 0.304063 -0.284890
C122  C     C_2   0.666072 0.907897 0.790714 0.442898
H46   H     H_    0.666941 0.922140 0.852100 0.061805
O32   O     O_2   0.628254 0.931244 0.745215 -0.494916
C123  C     C_2   0.929849 0.164172 0.892200 0.427059
H47   H     H_    0.956542 0.193133 0.859575 0.064156
O33   O     O_2   0.863434 0.094146 0.848350 -0.497208
C124  C     C_2   0.637374 0.823150 0.608639 0.493685
H48   H     H_    0.654783 0.846850 0.568121 0.110468
O34   O     O_2   0.562120 0.787370 0.589981 -0.553715
N4    N     N_R   0.393387 0.230843 0.491051 0.137764
O35   O     O_R   0.382061 0.168929 0.423449 -0.317667
O36   O     O_R   0.471365 0.288786 0.554300 -0.383968
N5    N     N_R   0.261176 0.862839 0.472058 0.095744
O37   O     O_R   0.273070 0.851243 0.538714 -0.415819
O38   O     O_R   0.239437 0.799360 0.399009 -0.382502
C125  C     C_2   0.390625 0.374091 0.743896 0.373807
H49   H     H_    0.341854 0.383952 0.756962 0.078719
O39   O     O_2   0.377942 0.300514 0.708462 -0.557234
N6    N     N_R   0.733398 0.493246 0.893133 0.138886
O40   O     O_R   0.669248 0.426507 0.879838 -0.316957
O41   O     O_R   0.790363 0.555378 0.972260 -0.364106
C126  C     C_2   0.778860 0.532734 0.617626 0.371715
H50   H     H_    0.812209 0.507545 0.588692 0.096945
O42   O     O_2   0.759420 0.582229 0.598906 -0.579219
C127  C     C_2   0.786255 0.341998 0.607830 0.347363
H51   H     H_    0.743802 0.336082 0.635390 0.111076
O43   O     O_2   0.761317 0.282833 0.536997 -0.521833
N7    N     N_R   0.001517 0.897358 0.235843 0.132332
O44   O     O_R   0.944372 0.884458 0.163964 -0.307400
O45   O     O_R   0.055275 0.976195 0.299693 -0.396518
C128  C     C_2   0.222018 0.905617 0.107232 0.407096
H52   H     H_    0.271612 0.919445 0.167871 0.110625
O46   O     O_2   0.244072 0.940972 0.068292 -0.485702
C129  C     C_2   0.081619 0.823170 0.923762 0.385875
H53   H     H_    0.134414 0.816613 0.917470 0.118692
O47   O     O_2   0.040630 0.843663 0.877154 -0.531922
C130  C     C_2   0.902590 0.713923 0.879325 0.322390
H54   H     H_    0.912962 0.705226 0.824361 0.107972
O48   O     O_2   0.828723 0.687012 0.865916 -0.577663
C131  C     C_2   0.892245 0.904068 0.662678 0.402727
H55   H     H_    0.879852 0.953878 0.695497 0.124037
O49   O     O_2   0.963490 0.911580 0.696786 -0.482856
C132  C     C_2   0.430866 0.554978 0.113690 0.561338
H56   H     H_    0.454591 0.623582 0.136567 0.072697
O50   O     O_2   0.481883 0.531294 0.139580 -0.418033
N8    N     N_R   0.178317 0.485194 0.862692 0.135925
O51   O     O_R   0.196961 0.565591 0.889820 -0.376294
O52   O     O_R   0.140326 0.432941 0.779627 -0.327387
C133  C     C_2   0.163908 0.258613 0.951553 0.416115
H57   H     H_    0.103964 0.208900 0.892352 0.065196
O53   O     O_2   0.189922 0.239682 0.007360 -0.457885
N9    N     N_R   0.342757 0.380384 0.086930 0.198434
O54   O     O_R   0.364429 0.324385 0.053676 -0.249105
O55   O     O_R   0.368526 0.416493 0.169642 -0.268451
N10   N     N_R   0.950739 0.241413 0.531604 0.128474
O56   O     O_R   0.970268 0.224216 0.469952 -0.333294
O57   O     O_R   0.010740 0.305372 0.608832 -0.360872
N11   N     N_R   0.801492 0.171071 0.369928 0.202064
O58   O     O_R   0.834082 0.252401 0.391064 -0.298604
O59   O     O_R   0.776774 0.113382 0.292110 -0.274822
N12   N     N_R   0.612398 0.600766 0.341222 0.145468
O60   O     O_R   0.532525 0.578096 0.320710 -0.285984
O61   O     O_R   0.629365 0.555285 0.287049 -0.277908
N13   N     N_R   0.641539 0.037211 0.324681 0.204131
O62   O     O_R   0.600877 0.953275 0.276819 -0.270988
O63   O     O_R   0.616341 0.082420 0.294181 -0.226069
N14   N     N_R   0.626504 0.983674 0.446161 0.188883
O64   O     O_R   0.554212 0.983256 0.411857 -0.265955
O65   O     O_R   0.626071 0.917679 0.454454 -0.356346
N15   N     N_R   0.765753 0.072574 0.617789 0.159083
O66   O     O_R   0.819389 0.053533 0.660239 -0.396526
O67   O     O_R   0.700363 0.065839 0.629741 -0.281510

loop_
_geom_bond_atom_site_label_1
_geom_bond_atom_site_label_2
_geom_bond_distance
_ccdc_geom_bond_type
C19   N1    1.439569 S    
C29   C34   1.392425 A    
C101  H41   1.081017 S    
C133  O53   1.220592 D    
C131  O49   1.220584 D    
C116  C117  1.407680 A    
N1    O26   1.301834 A    
C49   C50   1.408659 A    
C67   C76   1.488220 S    
H8    C28   1.083758 S    
C123  H47   1.080881 S    
N2    O28   1.300889 A    
O21   C83   1.291191 A    
C11   C131  1.487372 S    
C59   H27   1.082213 S    
C25   C26   1.420153 A    
C5    C122  1.486978 S    
C39   C40   1.405675 A    
C73   H32   1.082101 S    
C65   N6    1.438172 S    
C93   C102  1.485799 S    
C47   H21   1.084531 S    
C74   H33   1.077730 S    
C119  N15   1.438331 S    
Cu1   O7    1.977920 S    
O19   C82   1.305274 A    
C132  H56   1.084556 S    
Cu3   Cu4   2.696235 S    
C105  C114  1.492320 S    
C45   C46   1.397847 A    
C38   C123  1.477880 S    
C9    H3    1.077921 S    
C15   C16   1.423156 A    
C8    C9    1.393855 A    
N14   O64   1.301232 A    
N4    O36   1.300406 A    
C7    C8    1.402331 A    
C55   C56   1.402129 A    
C42   H18   1.079561 S    
Cu6   O22   1.974122 S    
C79   C110  1.463600 S    
O17   Cu5   1.974221 S    
O4    C2    1.305240 A    
C103  H42   1.084195 S    
C1    C33   1.466874 S    
C54   C55   1.404038 A    
C13   C22   1.489363 S    
O11   C78   1.298177 A    
C50   N4    1.437975 S    
C57   C58   1.401547 A    
C67   C68   1.407506 A    
C47   C52   1.386544 A    
C35   H12   1.083396 S    
C36   C37   1.393869 A    
C35   C40   1.407332 A    
C66   C84   1.464236 S    
C109  H43   1.084849 S    
C77   C95   1.460152 S    
C111  C112  1.393989 A    
C37   C38   1.404476 A    
C19   C20   1.405220 A    
C23   C24   1.418178 A    
C116  N11   1.436371 S    
C42   C43   1.404114 A    
C12   C78   1.455927 S    
C11   C16   1.402620 A    
C65   C66   1.413771 A    
O5    C3    1.286865 A    
N14   O65   1.301120 A    
C71   H30   1.079871 S    
C115  C120  1.425481 A    
C107  N9    1.433483 S    
C43   C52   1.477667 S    
C14   N12   1.437585 S    
C100  C101  1.405230 A    
C20   H6    1.082338 S    
C20   C21   1.397066 A    
O9    C77   1.294268 A    
C5    C6    1.422204 A    
C130  O48   1.218194 D    
C99   C129  1.484484 S    
C29   H10   1.085964 S    
C68   C69   1.410246 A    
C91   C92   1.391838 A    
C104  C105  1.419579 A    
C121  H45   1.085793 S    
C69   C70   1.415144 A    
C55   N5    1.436728 S    
C56   C57   1.397864 A    
C85   C90   1.396749 A    
C88   C89   1.398328 A    
Cu6   O24   1.975872 S    
O14   C79   1.290950 A    
H1    C10   1.083732 S    
C109  C110  1.395306 A    
C86   H36   1.078654 S    
O18   Cu6   1.971952 S    
O1    Cu1   1.977711 S    
C128  H52   1.085971 S    
C75   C76   1.415638 A    
C97   C98   1.401492 A    
N2    O29   1.299316 A    
O23   C84   1.299225 A    
C97   H40   1.078449 S    
C125  H49   1.085787 S    
N7    O45   1.299547 A    
C3    C69   1.459898 S    
C6    C124  1.471475 S    
O13   C79   1.307559 A    
C72   C73   1.393184 A    
C72   H31   1.082368 S    
C83   C92   1.455405 S    
C109  C114  1.393883 A    
C32   C33   1.399505 A    
C60   H28   1.079828 S    
C71   C72   1.394889 A    
C27   C28   1.388719 A    
C9    C10   1.390095 A    
C31   C40   1.490801 S    
C121  O27   1.220187 D    
C48   C80   1.454294 S    
O19   Cu5   1.975872 S    
C2    C15   1.465939 S    
C132  O50   1.219741 D    
O10   C77   1.302114 A    
C45   H20   1.082312 S    
O24   C84   1.297499 A    
C59   C64   1.394225 A    
C122  H46   1.085742 S    
C99   C100  1.421428 A    
C106  C107  1.421786 A    
C100  C130  1.480074 S    
O18   C81   1.306117 A    
C11   C12   1.408192 A    
C44   C45   1.398836 A    
Cu1   Cu2   2.689309 S    
C60   C61   1.404844 A    
O22   C83   1.301971 A    
N5    O37   1.300047 A    
N10   O57   1.299568 A    
C30   C82   1.456374 S    
N11   O58   1.301237 A    
O11   Cu3   1.979138 S    
O17   C81   1.288379 A    
C106  C133  1.497343 S    
O3    Cu1   1.975917 S    
C12   C13   1.413914 A    
C27   H9    1.077521 S    
C51   C52   1.418198 A    
C50   C51   1.421391 A    
C117  C118  1.406755 A    
C37   H14   1.083247 S    
C41   C42   1.398815 A    
C18   C19   1.406638 A    
N9    O55   1.300171 A    
C110  C111  1.418341 A    
Cu4   O14   1.972724 S    
C122  O32   1.220432 D    
C21   H7    1.073180 S    
C23   C121  1.486020 S    
C118  N14   1.430988 S    
N5    O38   1.301797 A    
C101  C102  1.392850 A    
C108  C132  1.481053 S    
C91   H39   1.085404 S    
C89   C90   1.396438 A    
N11   O59   1.301308 A    
C124  H48   1.085003 S    
C75   C127  1.485352 S    
Cu2   O8    1.975918 S    
N4    O35   1.300586 A    
H16   C46   1.082363 S    
C68   C126  1.495555 S    
C38   C39   1.408436 A    
C129  O47   1.220932 D    
C6    C7    1.417151 A    
C23   C28   1.397636 A    
C47   C48   1.384058 A    
C115  N10   1.446984 S    
C30   C31   1.417994 A    
C7    C16   1.495494 S    
H34   C90   1.082585 S    
C53   H22   1.079453 S    
C41   H17   1.082310 S    
C125  O39   1.218851 D    
O20   Cu6   1.980204 S    
C88   H37   1.083389 S    
C74   C75   1.403514 A    
O12   Cu4   1.974710 S    
O3    C2    1.289172 A    
C98   C99   1.421842 A    
C127  H51   1.084810 S    
O8    C4    1.300601 A    
H26   C64   1.083444 S    
C119  C120  1.411525 A    
C5    C10   1.399971 A    
C123  O33   1.221324 D    
C128  O46   1.220280 D    
C81   C113  1.453756 S    
C13   C14   1.400283 A    
C126  O42   1.220092 D    
N13   O63   1.301425 A    
C48   C49   1.413064 A    
C36   H13   1.082488 S    
O15   C80   1.290693 A    
C24   C25   1.423098 A    
C4    C51   1.469058 S    
C103  C104  1.395574 A    
C133  H57   1.081717 S    
C111  C120  1.488458 S    
C103  C108  1.393063 A    
C57   H25   1.082538 S    
C32   H11   1.085117 S    
C63   C125  1.475740 S    
N8    O52   1.299862 A    
C62   C63   1.408627 A    
C25   C34   1.492812 S    
C115  C116  1.414668 A    
Cu1   O5    1.978375 S    
C131  H55   1.083913 S    
C95   C96   1.422821 A    
C97   C102  1.396802 A    
Cu3   O13   1.973487 S    
C49   C58   1.485824 S    
C87   C96   1.490018 S    
C54   H23   1.082392 S    
O2    Cu2   1.978373 S    
C26   C27   1.401222 A    
Cu5   O23   1.980204 S    
N3    O31   1.301088 A    
C44   H19   1.083139 S    
O16   C80   1.303779 A    
O6    C3    1.302955 A    
C71   C76   1.406299 A    
C104  N8    1.440006 S    
O4    Cu2   1.977918 S    
C73   C74   1.395597 A    
N12   O60   1.300243 A    
C59   C60   1.394421 A    
O10   Cu4   1.973487 S    
C98   C128  1.487982 S    
Cu5   O21   1.971949 S    
C107  C108  1.412181 A    
C93   C94   1.402687 A    
C66   C67   1.415541 A    
C61   C62   1.403431 A    
C118  C119  1.407618 A    
C8    H2    1.083138 S    
C85   C86   1.398431 A    
O2    C1    1.309163 A    
C56   H24   1.077253 S    
C124  O34   1.216019 D    
C31   C32   1.399948 A    
C21   C22   1.398203 A    
C94   N7    1.440835 S    
C92   C93   1.412174 A    
N1    O25   1.301486 A    
C18   H5    1.082032 S    
C17   C18   1.398566 A    
N15   O66   1.300449 A    
N12   O61   1.301190 A    
C17   H4    1.083168 S    
C33   C34   1.422584 A    
C112  H44   1.085197 S    
N10   O56   1.301182 A    
Cu5   Cu6   2.694633 S    
C29   C30   1.391673 A    
C129  H53   1.084813 S    
N6    O41   1.300136 A    
C117  N13   1.435735 S    
C35   C36   1.394468 A    
C17   C22   1.403262 A    
N9    O54   1.301039 A    
O9    Cu3   1.972627 S    
C53   C58   1.402817 A    
C86   C87   1.404543 A    
C63   C64   1.402404 A    
Cu4   O16   1.979235 S    
C94   C95   1.418686 A    
C112  C113  1.396270 A    
O20   C82   1.290021 A    
C127  O43   1.219782 D    
C126  H50   1.083030 S    
C39   H15   1.080232 S    
C91   C96   1.389621 A    
C43   C44   1.406032 A    
C89   H38   1.082390 S    
N3    O30   1.299471 A    
C113  C114  1.418270 A    
Cu2   O6    1.977712 S    
C105  C106  1.427205 A    
N7    O44   1.301069 A    
C14   C15   1.411481 A    
C26   N3    1.439674 S    
Cu3   O15   1.974828 S    
C65   C70   1.401940 A    
C53   C54   1.395897 A    
C24   N2    1.430934 S    
C62   H29   1.082001 S    
C41   C46   1.397925 A    
O1    C1    1.288338 A    
C87   C88   1.407864 A    
C85   H35   1.082335 S    
N15   O67   1.301247 A    
O7    C4    1.295909 A    
O12   C78   1.293602 A    
N13   O62   1.301556 A    
C130  H54   1.082491 S    
N8    O51   1.301686 A    
N6    O40   1.300662 A    
C61   C70   1.488200 S    
