data_mof_unit_3880.cif
_audit_creation_date              2012-12-11T16:18:04-0500
_audit_creation_method            fapswitch 2.2
_symmetry_space_group_name_H-M    P1
_symmetry_Int_Tables_number       1
_space_group_crystal_system       triclinic
_cell_length_a                    14.041435
_cell_length_b                    14.06758
_cell_length_c                    30.152676
_cell_angle_alpha                 97.202373
_cell_angle_beta                  97.161065
_cell_angle_gamma                 61.25847
_cell_volume                      5166.82141813

loop_
_atom_site_label
_atom_site_type_symbol
_atom_type_description
_atom_site_fract_x
_atom_site_fract_y
_atom_site_fract_z
_atom_type_partial_charge
C1    C     C_R   0.385417 0.712715 0.442599 0.542283
C2    C     C_R   0.670076 0.405258 0.361750 0.064923
C3    C     C_3   0.505421 0.094360 0.306560 -0.273960
C4    C     C_3   0.987914 0.476782 0.121542 -0.251783
C5    C     C_3   0.054443 0.271884 0.317101 -0.308854
C6    C     C_3   0.986738 0.354776 0.440720 -0.311691
C7    C     C_R   0.701076 0.374386 0.317996 0.147287
C8    C     C_R   0.397774 0.380491 0.426868 0.527209
C9    C     C_R   0.811839 0.314198 0.310375 0.018397
C10   C     C_R   0.892963 0.284264 0.346308 0.150994
C11   C     C_R   0.861291 0.313636 0.390746 0.104596
C12   C     C_R   0.862239 0.378520 0.166601 0.083214
C13   C     C_R   0.883046 0.380231 0.122269 0.132228
C14   C     C_R   0.889762 0.203113 0.104431 -0.166879
C15   C     C_R   0.869345 0.201766 0.148418 0.065571
C16   C     C_R   0.336312 0.228584 0.225079 0.076039
C17   C     C_R   0.860993 0.287023 0.179688 0.085443
C18   C     C_1   0.851490 0.282624 0.225849 0.073436
C19   C     C_1   0.838881 0.290026 0.264812 0.052766
C20   C     C_R   0.711105 0.404837 0.443115 0.535830
C21   C     C_R   0.902180 0.288924 0.091374 0.002469
C22   C     C_R   0.363602 0.780161 0.404269 -0.015488
C23   C     C_R   0.452651 0.776174 0.384377 0.094951
C24   C     C_R   0.436225 0.814526 0.341722 0.084623
C25   C     C_R   0.331714 0.862092 0.320236 0.010704
C26   C     C_R   0.240623 0.882488 0.342479 0.132546
C27   C     C_R   0.344676 0.238121 0.272237 0.155669
C28   C     C_R   0.256289 0.842771 0.384864 0.117605
C29   C     C_R   0.223868 0.881592 0.159827 0.107872
C30   C     C_R   0.215192 0.888377 0.113426 0.089765
C31   C     C_R   0.387515 0.894174 0.119231 0.049008
C32   C     C_R   0.389358 0.712073 0.568131 0.531451
C33   C     C_R   0.399761 0.879270 0.165574 0.134717
C34   C     C_R   0.313618 0.881954 0.185953 0.024676
C35   C     C_1   0.318058 0.881804 0.233761 0.018509
C36   C     C_1   0.321691 0.877342 0.273412 0.004813
C37   C     C_R   0.291488 0.905724 0.093502 0.033784
C38   C     C_R   0.310332 0.341384 0.295245 0.009801
C39   C     C_R   0.363974 0.358007 0.591184 0.005162
C40   C     C_R   0.428601 0.256821 0.610494 0.102783
C41   C     C_R   0.414681 0.246495 0.654704 0.084596
C42   C     C_R   0.333904 0.333908 0.678326 0.024874
C43   C     C_R   0.257934 0.427292 0.657082 0.120364
C44   C     C_R   0.401406 0.382086 0.551982 0.575759
C45   C     C_R   0.272782 0.440068 0.613356 0.109147
C46   C     C_R   0.217718 0.387862 0.827975 0.083697
C47   C     C_R   0.204333 0.377253 0.872193 0.058114
C48   C     C_R   0.400156 0.254692 0.883192 0.080866
C49   C     C_R   0.295370 0.322041 0.201152 0.020924
C50   C     C_R   0.412919 0.266331 0.839017 0.110133
C51   C     C_R   0.320444 0.328269 0.811165 0.037409
C52   C     C_1   0.328510 0.328097 0.764461 0.022490
C53   C     C_1   0.331413 0.329234 0.725142 0.025866
C54   C     C_R   0.294738 0.304248 0.899046 0.038010
C55   C     C_1   0.765921 0.374355 0.611858 -0.037446
C56   C     C_R   0.713552 0.407477 0.568405 0.538534
C57   C     C_R   0.785880 0.425703 0.728887 0.164885
C58   C     C_R   0.802194 0.410889 0.774840 0.109548
C59   C     C_R   0.903692 0.214401 0.758320 0.117214
C60   C     C_1   0.291437 0.311724 0.152862 -0.029012
C61   C     C_R   0.885486 0.228771 0.712028 0.172371
C62   C     C_R   0.825883 0.334870 0.697284 -0.022576
C63   C     C_R   0.859874 0.305320 0.789643 -0.031433
C64   C     C_1   0.882514 0.291479 0.837091 -0.082057
C65   C     C_1   0.798570 0.352441 0.650074 -0.077010
C66   C     C_1   0.908489 0.281233 0.876473 -0.026242
C67   C     C_1   0.372433 0.764000 0.612643 -0.040086
C68   C     C_1   0.359821 0.360942 0.382170 -0.025476
C69   C     C_R   0.246286 0.848456 0.715605 0.099272
C70   C     C_R   0.237215 0.864318 0.762080 -0.116651
C71   C     C_1   0.333647 0.350074 0.343094 -0.032969
C72   C     C_R   0.419175 0.847089 0.774860 0.183393
C73   C     C_R   0.430155 0.828523 0.728275 0.165557
C74   C     C_R   0.343884 0.828198 0.698665 0.032684
C75   C     C_R   0.323256 0.861798 0.791671 -0.021348
C76   C     C_1   0.308271 0.882067 0.839047 -0.064724
C77   C     C_1   0.358651 0.797488 0.651384 -0.046745
C78   C     C_1   0.290723 0.907165 0.878046 -0.018225
C79   C     C_R   0.952376 0.272664 0.048846 0.556251
C80   C     C_R   0.264301 0.435539 0.271218 0.119594
C81   C     C_R   0.274644 0.269174 0.065869 0.536892
C82   C     C_1   0.286158 0.297391 0.112660 -0.022467
C83   C     C_R   0.260007 0.954792 0.049461 0.583147
C84   C     C_R   0.952754 0.268871 0.922004 0.544468
C85   C     C_R   0.276306 0.266607 0.939473 0.584439
C86   C     C_R   0.261141 0.951467 0.922692 0.543854
C87   C     C_R   0.256504 0.425193 0.223998 0.116956
C88   C     C_3   0.302732 0.579689 0.304895 -0.313096
C89   C     C_3   0.585998 0.507116 0.265164 -0.308322
C90   C     C_3   0.158072 0.771932 0.187197 -0.319826
C91   C     C_3   0.077086 0.882202 0.305276 -0.290671
C92   C     C_3   0.142819 0.951269 0.445168 -0.278095
C93   C     C_R   0.749637 0.374695 0.398168 0.002018
C94   C     C_3   0.578679 0.808070 0.438162 -0.272617
C95   C     C_3   0.570838 0.752988 0.201473 -0.299740
C96   C     C_3   0.074305 0.497630 0.677937 -0.306822
C97   C     C_3   0.191218 0.636323 0.610283 -0.223619
C98   C     C_3   0.618307 0.135441 0.594258 -0.268018
C99   C     C_3   0.573089 0.274935 0.823675 -0.301451
C100  C     C_3   0.801927 0.577358 0.709491 -0.283473
C101  C     C_3   0.871025 0.074244 0.673830 -0.304845
C102  C     C_3   0.495239 0.951214 0.821114 -0.285454
C103  C     C_3   0.533275 0.892688 0.694410 -0.302121
Cr1   Cr    Cr6+3 0.581000 0.584320 0.508140 1.005962
Cr2   Cr    Cr6+3 0.339110 0.576430 0.496080 1.005420
Cr3   Cr    Cr6+3 0.579910 0.339270 0.495810 1.004647
Cr4   Cr    Cr6+3 0.082090 0.079210 0.982490 1.028265
Cr5   Cr    Cr6+3 0.082460 0.324610 0.994920 1.035853
Cr6   Cr    Cr6+3 0.323630 0.087860 0.996130 1.044861
H1    H     H_    0.901045 0.134037 0.081073 0.137719
H2    H     H_    0.540454 0.572756 0.290753 0.154191
H3    H     H_    0.119212 0.278152 0.340509 0.140691
H4    H     H_    0.993919 0.355056 0.307765 0.150544
H5    H     H_    0.092004 0.221724 0.286419 0.157564
H6    H     H_    0.919363 0.260050 0.454453 0.244673
H7    H     H_    0.922725 0.434865 0.453777 0.151407
H8    H     H_    0.021238 0.366274 0.411885 0.162996
H9    H     H_    0.053149 0.320251 0.467507 0.137706
H10   H     H_    0.533451 0.426948 0.387045 0.251406
H11   H     H_    0.544052 0.542014 0.386766 0.259997
H12   H     H_    0.531509 0.517220 0.234107 0.136699
H13   H     H_    0.657434 0.514248 0.257282 0.164985
H14   H     H_    0.052709 0.943873 0.098813 0.241516
H15   H     H_    0.130182 0.807235 0.089714 0.234951
H16   H     H_    0.112358 0.933074 0.207936 0.256172
H17   H     H_    0.226712 0.735734 0.212989 0.135281
H18   H     H_    0.177825 0.718558 0.155647 0.163476
H19   H     H_    0.083827 0.776865 0.198899 0.142781
H20   H     H_    0.125330 0.998417 0.300723 0.255834
H21   H     H_    0.162698 0.878652 0.775305 0.133351
H22   H     H_    0.994842 0.937374 0.290405 0.148340
H23   H     H_    0.067094 0.841593 0.332243 0.172820
H24   H     H_    0.123443 0.819846 0.278998 0.132476
H25   H     H_    0.150715 0.806446 0.413441 0.264550
H26   H     H_    0.063400 0.974215 0.458167 0.136894
H27   H     H_    0.139340 0.025470 0.434166 0.168495
H28   H     H_    0.207961 0.918565 0.472584 0.136353
H29   H     H_    0.622487 0.685117 0.386667 0.244932
H30   H     H_    0.577424 0.872979 0.420200 0.119902
H31   H     H_    0.659686 0.764810 0.456534 0.132146
H32   H     H_    0.180652 0.550727 0.321218 0.250351
H33   H     H_    0.515877 0.845715 0.462997 0.153917
H34   H     H_    0.536043 0.903263 0.182269 0.250939
H35   H     H_    0.601897 0.703097 0.169830 0.119450
H36   H     H_    0.529675 0.718245 0.218192 0.164883
H37   H     H_    0.640828 0.749585 0.224206 0.145128
H38   H     H_    0.481093 0.964488 0.112366 0.230492
H39   H     H_    0.544742 0.826423 0.103759 0.226049
H40   H     H_    0.259981 0.555280 0.204862 0.231006
H41   H     H_    0.132811 0.573659 0.209946 0.238679
H42   H     H_    0.580550 0.721412 0.313553 0.212519
H43   H     H_    0.262832 0.663736 0.320665 0.145670
H44   H     H_    0.565416 0.841603 0.339684 0.229810
H45   H     H_    0.044684 0.414356 0.868878 0.232970
H46   H     H_    0.070326 0.519711 0.887643 0.223863
H47   H     H_    0.091477 0.535406 0.813498 0.229519
H48   H     H_    0.068650 0.427933 0.795670 0.227498
H49   H     H_    0.191850 0.533120 0.712541 0.265606
H50   H     H_    0.008175 0.570974 0.694144 0.136141
H51   H     H_    0.091910 0.425632 0.695683 0.164974
H52   H     H_    0.046082 0.487173 0.642462 0.143000
H53   H     H_    0.119724 0.539465 0.584827 0.240558
H54   H     H_    0.339175 0.579842 0.274334 0.145098
H55   H     H_    0.140168 0.669542 0.639295 0.172659
H56   H     H_    0.153154 0.696689 0.584631 0.154521
H57   H     H_    0.274260 0.625360 0.621032 0.181356
H58   H     H_    0.489278 0.099023 0.580767 0.236138
H59   H     H_    0.659136 0.065934 0.615769 0.094943
H60   H     H_    0.628718 0.205427 0.610831 0.162982
H61   H     H_    0.658542 0.109981 0.562289 0.157841
H62   H     H_    0.520677 0.167506 0.791555 0.256748
H63   H     H_    0.657051 0.222938 0.813057 0.145549
H64   H     H_    0.578534 0.310925 0.858243 0.152987
H65   H     H_    0.367829 0.527659 0.328974 0.179912
H66   H     H_    0.528716 0.341078 0.800589 0.149475
H67   H     H_    0.533417 0.110996 0.895831 0.245554
H68   H     H_    0.547001 0.222566 0.915294 0.238732
H69   H     H_    0.563670 0.139251 0.680425 0.230411
H70   H     H_    0.484201 0.083121 0.656573 0.223036
H71   H     H_    0.674091 0.544265 0.687913 0.243088
H72   H     H_    0.753539 0.663872 0.702070 0.151685
H73   H     H_    0.853258 0.531599 0.681154 0.121280
H74   H     H_    0.854780 0.572645 0.740719 0.167186
H75   H     H_    0.433922 0.108774 0.181837 0.227037
H76   H     H_    0.931533 0.041454 0.155690 0.241663
H77   H     H_    0.306714 0.123151 0.181100 0.232796
H78   H     H_    0.825113 0.505143 0.827115 0.222874
H79   H     H_    0.707383 0.498293 0.825769 0.229940
H80   H     H_    0.036782 0.105033 0.793032 0.237453
H81   H     H_    0.923629 0.090427 0.792653 0.221418
H82   H     H_    0.948884 0.150280 0.651120 0.243662
H83   H     H_    0.909778 0.005103 0.648516 0.124828
H84   H     H_    0.785487 0.126769 0.661656 0.123462
H85   H     H_    0.871971 0.040898 0.705433 0.176006
H86   H     H_    0.093371 0.861647 0.703343 0.233828
H87   H     H_    0.796473 0.106593 0.141126 0.233402
H88   H     H_    0.128492 0.917528 0.666684 0.248960
H89   H     H_    0.529471 0.793935 0.829767 0.255955
H90   H     H_    0.431249 0.991034 0.845373 0.147111
H91   H     H_    0.473159 0.004488 0.793327 0.152396
H92   H     H_    0.573434 0.941984 0.838425 0.148096
H93   H     H_    0.558972 0.735114 0.689500 0.249571
H94   H     H_    0.616763 0.867354 0.685217 0.129247
H95   H     H_    0.510459 0.962481 0.719906 0.174300
H96   H     H_    0.476267 0.918362 0.663995 0.128983
H97   H     H_    0.363541 0.087571 0.283424 0.288295
H98   H     H_    0.555212 0.390357 0.285964 0.272737
H99   H     H_    0.547777 0.060741 0.275088 0.163321
H100  H     H_    0.531636 0.027263 0.328610 0.142213
H101  H     H_    0.529237 0.154758 0.324298 0.155896
H102  H     H_    0.818143 0.545606 0.114841 0.238601
H103  H     H_    0.977343 0.538722 0.149910 0.110917
H104  H     H_    0.011087 0.500577 0.092560 0.177662
H105  H     H_    0.055291 0.396770 0.131193 0.160069
H106  H     H_    0.916451 0.476246 0.203704 0.236168
H107  H     H_    0.780939 0.538759 0.187546 0.218933
H108  H     H_    0.055370 0.169987 0.362379 0.292129
N1    N     N_2   0.223356 0.541103 0.294078 -0.533494
N2    N     N_3   0.471804 0.897523 0.098086 -0.606845
N3    N     N_3   0.209484 0.519138 0.198742 -0.641816
N4    N     N_3   0.525732 0.803823 0.319230 -0.630427
N5    N     N_3   0.098117 0.436533 0.888999 -0.587024
N6    N     N_3   0.126401 0.455604 0.799050 -0.651361
N7    N     N_2   0.170030 0.511978 0.680383 -0.516503
N8    N     N_2   0.195733 0.534509 0.591437 -0.492972
N9    N     N_2   0.504195 0.164672 0.584820 -0.492434
N10   N     N_2   0.518367 0.209751 0.822291 -0.532266
N11   N     N_3   0.493808 0.189291 0.911553 -0.592360
N12   N     N_3   0.859317 0.112813 0.161626 -0.635249
N13   N     N_3   0.484629 0.148915 0.676676 -0.654446
N14   N     N_2   0.730070 0.533529 0.714960 -0.461820
N15   N     N_3   0.372154 0.123016 0.201925 -0.628273
N16   N     N_3   0.760076 0.504775 0.806149 -0.583934
N17   N     N_3   0.969565 0.106901 0.773029 -0.615768
N18   N     N_2   0.930018 0.136093 0.680757 -0.485031
N19   N     N_3   0.157823 0.850021 0.685467 -0.648215
N20   N     N_2   0.507444 0.845134 0.804409 -0.470066
N21   N     N_2   0.531215 0.802743 0.711885 -0.473500
N22   N     N_2   0.388715 0.143774 0.296698 -0.498935
N23   N     N_2   0.620333 0.401915 0.281204 -0.494659
N24   N     N_2   0.886867 0.472285 0.109276 -0.495266
N25   N     N_3   0.846002 0.467598 0.199261 -0.664006
N26   N     N_2   0.005267 0.220077 0.337831 -0.508367
N27   N     N_2   0.941710 0.281267 0.427481 -0.529575
N28   N     N_3   0.556481 0.469410 0.368588 -0.661242
N29   N     N_3   0.125674 0.882497 0.086777 -0.583058
N30   N     N_2   0.138389 0.879597 0.179968 -0.533737
N31   N     N_2   0.132845 0.944283 0.322740 -0.484543
N32   N     N_2   0.162626 0.870513 0.407809 -0.491825
N33   N     N_2   0.559103 0.731602 0.406744 -0.483119
N34   N     N_2   0.496726 0.864594 0.192161 -0.486029
O1    O     O_R   0.688580 0.499770 0.460490 -0.505793
O2    O     O_R   0.346150 0.177650 0.050510 -0.503756
O3    O     O_R   0.314200 0.996600 0.036060 -0.468450
O4    O     O_R   0.480400 0.672610 0.462660 -0.467458
O5    O     O_R   0.168690 0.969990 0.933130 -0.505793
O6    O     O_R   0.991920 0.175870 0.937430 -0.495849
O7    O     O_R   0.974010 0.342590 0.941330 -0.497268
O8    O     O_R   0.182630 0.317940 0.955040 -0.463834
O9    O     O_R   0.347320 0.174720 0.953250 -0.485812
O10   O     O_R   0.315290 0.993890 0.945900 -0.497996
O11   O     O_3   0.162730 0.163890 0.991180 -0.263320
O12   O     O_R   0.348600 0.476260 0.536540 -0.470197
O13   O     O_R   0.315310 0.685650 0.451800 -0.525331
O14   O     O_R   0.346220 0.474990 0.446280 -0.499613
O15   O     O_R   0.492270 0.312460 0.441630 -0.513112
O16   O     O_R   0.669740 0.350480 0.455640 -0.504331
O17   O     O_R   0.691150 0.501150 0.557860 -0.512049
O18   O     O_R   0.482790 0.673890 0.552920 -0.496824
O19   O     O_R   0.317880 0.687030 0.549170 -0.521195
O20   O     O_R   0.494840 0.313840 0.539010 -0.488377
O21   O     O_R   0.672120 0.351750 0.545910 -0.502897
O22   O     O_3   0.500010 0.500010 0.500010 -0.245077
O23   O     O_R   0.167510 0.972920 0.030390 -0.481081
O24   O     O_R   0.990840 0.178580 0.027590 -0.512365
O25   O     O_R   0.972840 0.345510 0.038590 -0.478295
O26   O     O_R   0.181550 0.320660 0.045200 -0.508907

loop_
_geom_bond_atom_site_label_1
_geom_bond_atom_site_label_2
_ccdc_geom_bond_type
C3    H100  S    
C97   N8    S    
C55   C56   S    
H71   N14   S    
Cr3   O21   S    
C79   O25   A    
Cr1   O1    S    
C5    H5    S    
C94   H31   S    
C73   C74   A    
H102  N24   S    
Cr5   O7    S    
C2    C7    A    
C67   C77   T    
C20   C93   S    
C58   N16   S    
C44   O12   A    
C81   C82   S    
C32   O18   A    
C27   N22   S    
C57   C62   A    
C92   H27   S    
C24   N4    S    
C52   C53   T    
C48   C54   A    
C12   C13   A    
C95   H37   S    
Cr3   O16   S    
Cr1   O4    S    
H34   N34   S    
H47   N6    S    
C81   O26   A    
C3    H99   S    
C14   C21   A    
C84   O7    A    
H89   N20   S    
C2    N28   S    
C76   C78   T    
H69   N13   S    
C80   C87   A    
C103  N21   S    
C42   C53   S    
C80   N1    S    
C57   N14   S    
C20   O1    A    
C91   H22   S    
C89   H13   S    
Cr5   O8    S    
C27   C38   A    
Cr2   O14   S    
C97   H57   S    
Cr6   O3    S    
C70   H21   S    
C98   H61   S    
C88   H65   S    
C96   H52   S    
C14   H1    S    
C18   C19   T    
C41   C42   A    
C72   N20   S    
C33   N34   S    
C100  H74   S    
C49   C87   A    
C28   N32   S    
H38   N2    S    
C91   N31   S    
C98   H60   S    
C60   C82   T    
C9    C19   S    
C13   N24   S    
C35   C36   T    
C101  H84   S    
H106  N25   S    
C74   C77   S    
C95   H36   S    
C12   C17   A    
C101  N18   S    
H49   N7    S    
C90   H18   S    
C31   C33   A    
Cr5   O11   S    
H97   N22   S    
H81   N17   S    
H77   N15   S    
H41   N3    S    
Cr4   O11   S    
C83   O23   A    
Cr4   O24   S    
C9    C10   A    
C6    H8    S    
C23   C24   A    
Cr2   O12   S    
C39   C45   A    
C11   C93   A    
C3    H101  S    
C48   C50   A    
C1    C22   S    
C63   C64   S    
C22   C28   A    
C15   N12   S    
H15   N29   S    
C94   H30   S    
C29   N30   S    
C89   N23   S    
C6    N27   S    
C50   N10   S    
C69   C70   A    
Cr3   O22   S    
C72   C75   A    
C56   O17   A    
C92   H28   S    
C94   N33   S    
C20   O16   A    
C55   C65   T    
H88   N19   S    
C26   N31   S    
H93   N21   S    
C33   C34   A    
C31   N2    S    
C100  N14   S    
C69   N19   S    
H107  N25   S    
H67   N11   S    
C59   C61   A    
Cr3   O15   S    
C83   O3    A    
C51   C52   S    
C94   H33   S    
Cr1   O17   S    
C84   O6    A    
C4    H105  S    
C24   C25   A    
H75   N15   S    
C8    O15   A    
C32   O19   A    
C95   N34   S    
C39   C40   A    
C72   C73   A    
H58   N9    S    
C91   H23   S    
Cr4   O23   S    
C50   C51   A    
C25   C26   A    
C92   N32   S    
Cr1   O18   S    
C29   C34   A    
C16   N15   S    
C85   O8    A    
C46   N6    S    
C31   C37   A    
C30   C37   A    
H87   N12   S    
H40   N3    S    
C64   C66   T    
H45   N5    S    
C44   O20   A    
C75   C76   S    
H108  N26   S    
H44   N4    S    
C29   C30   A    
C100  H72   S    
C34   C35   S    
C102  H91   S    
H32   N1    S    
C54   C85   S    
C1    O13   A    
C43   C45   A    
C86   O5    A    
C99   H64   S    
Cr5   O25   S    
C103  H95   S    
C97   H55   S    
C90   N30   S    
C21   C79   S    
C17   C18   S    
C90   H17   S    
C13   C21   A    
C69   C74   A    
C45   N8    S    
C87   N3    S    
C5    N26   S    
H70   N13   S    
H80   N17   S    
C49   C60   S    
C6    H7    S    
H78   N16   S    
C91   H24   S    
C32   C67   S    
H98   N23   S    
C40   C41   A    
C96   H51   S    
C47   N5    S    
H62   N10   S    
C8    C68   S    
C12   N25   S    
C47   C54   A    
C61   N18   S    
H86   N19   S    
H16   N30   S    
C59   N17   S    
C42   C43   A    
Cr6   O10   S    
Cr5   O26   S    
C56   O21   A    
C30   N29   S    
C4    N24   S    
C16   C49   A    
H53   N8    S    
C100  H73   S    
C101  H85   S    
Cr3   O20   S    
C58   C63   A    
C7    C9    A    
C48   N11   S    
C38   C71   S    
C102  N20   S    
C79   O24   A    
C4    H104  S    
C86   O10   A    
C62   C65   S    
C5    H4    S    
C14   C15   A    
C59   C63   A    
C102  H92   S    
C2    C93   A    
C10   N26   S    
C103  H96   S    
C8    O14   A    
H29   N33   S    
C88   H43   S    
H14   N29   S    
C98   H59   S    
C15   C17   A    
C39   C44   S    
C99   H63   S    
C5    H3    S    
C23   N33   S    
C88   H54   S    
H76   N12   S    
C89   H2    S    
C26   C28   A    
C4    H103  S    
Cr4   O6    S    
Cr2   O22   S    
Cr6   O9    S    
C43   N7    S    
H10   N28   S    
C73   N21   S    
C102  H90   S    
H68   N11   S    
C41   N13   S    
C78   C86   S    
C57   C58   A    
C89   H12   S    
C16   C27   A    
C68   C71   T    
C97   H56   S    
C46   C51   A    
Cr6   O2    S    
C88   N1    S    
Cr4   O5    S    
C101  H83   S    
C85   O9    A    
C40   N9    S    
C61   C62   A    
Cr2   O19   S    
H39   N2    S    
C103  H94   S    
C46   C47   A    
C11   N27   S    
C10   C11   A    
C25   C36   S    
C66   C84   S    
H6    N27   S    
C92   H26   S    
H42   N4    S    
C95   H35   S    
C96   H50   S    
C99   H66   S    
C7    N23   S    
C38   C80   A    
C96   N7    S    
H11   N28   S    
C70   C75   A    
H48   N6    S    
Cr2   O13   S    
C90   H19   S    
C22   C23   A    
C37   C83   S    
H46   N5    S    
H25   N32   S    
C81   O2    A    
Cr6   O11   S    
H82   N18   S    
Cr1   O22   S    
C6    H9    S    
C99   N10   S    
H79   N16   S    
C1    O4    A    
C3    N22   S    
C98   N9    S    
H20   N31   S    
