data_mof_unit_1992.cif
_audit_creation_date              2012-10-26T21:33:01-0400
_audit_creation_method            fapswitch 2.2
_symmetry_space_group_name_H-M    P1
_symmetry_Int_Tables_number       1
_space_group_crystal_system       triclinic
_cell_length_a                    28.1491
_cell_length_b                    18.464955
_cell_length_c                    17.039051
_cell_angle_alpha                 90.159026
_cell_angle_beta                  61.010774
_cell_angle_gamma                 90.248421
_cell_volume                      7746.73100244

loop_
_atom_site_label
_atom_site_type_symbol
_atom_type_description
_atom_site_fract_x
_atom_site_fract_y
_atom_site_fract_z
_atom_type_partial_charge
C1    C     C_R   0.701511 0.267996 0.676032 0.969908
C2    C     C_R   0.912536 0.595246 0.592694 0.017482
C3    C     C_R   0.073827 0.899869 0.934279 0.963016
C4    C     C_R   0.573276 0.600853 0.934905 0.959614
C5    C     C_R   0.426456 0.399452 0.065368 0.964149
C6    C     C_R   0.426706 0.600758 0.065229 0.957840
C7    C     C_R   0.573679 0.399703 0.934399 0.962567
C8    C     C_R   0.521637 0.002875 0.585317 -0.082138
C9    C     C_R   0.424935 0.999911 0.574347 -0.079828
C10   C     C_R   0.047042 0.501314 0.504707 -0.075993
C11   C     C_R   0.952283 0.496032 0.487297 -0.071152
C12   C     C_R   0.493747 0.068863 0.593144 0.037617
C13   C     C_R   0.986176 0.393884 0.384585 0.005357
C14   C     C_R   0.447409 0.933423 0.581919 0.033293
C15   C     C_R   0.442616 0.066235 0.593320 0.039031
C16   C     C_R   0.496309 0.935492 0.587884 0.042176
C17   C     C_R   0.009628 0.559582 0.537316 0.036299
C18   C     C_R   0.992422 0.441967 0.444925 0.033973
C19   C     C_R   0.958857 0.552143 0.538287 0.041245
C20   C     C_R   0.037659 0.440791 0.461542 0.034211
C21   C     C_R   0.605941 0.938357 0.554321 -0.067362
C22   C     C_R   0.359635 0.065008 0.543471 -0.072665
C23   C     C_R   0.361095 0.935177 0.539081 -0.060128
C24   C     C_R   0.025465 0.623901 0.564729 0.001693
C25   C     C_R   0.599145 0.068520 0.582482 -0.087014
C26   C     C_R   0.129143 0.443378 0.491574 -0.085776
C27   C     C_R   0.868500 0.552830 0.508295 -0.080839
C28   C     C_R   0.894117 0.435885 0.436541 -0.062994
C29   C     C_R   0.106480 0.564931 0.552062 -0.063292
C30   C     C_R   0.658191 0.937876 0.550709 -0.147123
C31   C     C_R   0.327861 0.064384 0.497713 -0.075115
C32   C     C_R   0.328393 0.936355 0.495250 -0.119618
C33   C     C_R   0.653316 0.067152 0.569846 -0.071520
C34   C     C_R   0.167685 0.439496 0.523503 -0.092550
C35   C     C_R   0.524048 0.872607 0.588119 0.048905
C36   C     C_R   0.831166 0.559535 0.474815 -0.091043
C37   C     C_R   0.844234 0.434500 0.435370 -0.095639
C38   C     C_R   0.155513 0.565326 0.557860 -0.105441
C39   C     C_R   0.676523 0.001679 0.572116 -0.001371
C40   C     C_R   0.319954 0.000887 0.462947 -0.020715
C41   C     C_R   0.177578 0.499931 0.562664 -0.004636
C42   C     C_R   0.820916 0.499973 0.434232 -0.004093
C43   C     C_R   0.575211 0.003276 0.575948 -0.079912
C44   C     C_R   0.383390 0.000094 0.549237 -0.083788
C45   C     C_R   0.093763 0.502990 0.516910 -0.089585
C46   C     C_R   0.404994 0.124237 0.618809 0.012181
C47   C     C_R   0.905247 0.494966 0.477142 -0.096856
C48   C     C_R   0.122328 0.388278 0.440613 0.567518
C49   C     C_R   0.869426 0.598815 0.573398 0.563648
C50   C     C_R   0.935247 0.385755 0.388912 0.588154
C51   C     C_R   0.070760 0.624163 0.578243 0.587025
C52   C     C_R   0.580205 0.875568 0.545779 0.575966
C53   C     C_R   0.364842 0.124185 0.591824 0.555270
C54   C     C_R   0.372080 0.873013 0.575171 0.569854
C55   C     C_R   0.567940 0.132255 0.601481 0.580790
C56   C     C_R   0.419212 0.868803 0.582514 0.000971
C57   C     C_R   0.520300 0.134188 0.594499 0.009455
C58   C     C_R   0.721815 0.265392 0.951918 0.123251
C59   C     C_R   0.278842 0.734884 0.047166 0.111228
C60   C     C_R   0.278560 0.263760 0.047940 0.128081
C61   C     C_R   0.298369 0.731708 0.324003 0.953333
C62   C     C_R   0.722868 0.733050 0.950832 0.114744
C63   C     C_R   0.222430 0.766075 0.951211 0.127228
C64   C     C_R   0.778396 0.233948 0.047584 0.110962
C65   C     C_R   0.778978 0.763314 0.047494 0.127021
C66   C     C_R   0.222362 0.233651 0.951409 0.114520
C67   C     C_R   0.720331 0.195049 0.984685 0.071199
C68   C     C_R   0.282704 0.804233 0.010138 0.044012
C69   C     C_R   0.282724 0.195031 0.009249 0.071635
C70   C     C_R   0.720150 0.802615 0.986853 0.044093
C71   C     C_R   0.218569 0.696839 0.988250 0.071030
C72   C     C_R   0.298561 0.267828 0.323871 0.987766
C73   C     C_R   0.779707 0.304460 0.015131 0.042936
C74   C     C_R   0.782008 0.693969 0.010909 0.073111
C75   C     C_R   0.218344 0.302533 0.989822 0.043851
C76   C     C_R   0.748153 0.179266 0.032774 0.052727
C77   C     C_R   0.254452 0.819878 0.962226 0.063260
C78   C     C_R   0.254776 0.179796 0.961129 0.044943
C79   C     C_R   0.748274 0.817815 0.035117 0.065232
C80   C     C_R   0.246405 0.681174 0.036344 0.050778
C81   C     C_R   0.751386 0.320230 0.967386 0.060515
C82   C     C_R   0.754288 0.678746 0.962418 0.052227
C83   C     C_R   0.701675 0.731634 0.676013 0.974237
C84   C     C_R   0.246470 0.317630 0.038118 0.062654
C85   C     C_R   0.644200 0.326477 0.946078 0.571170
C86   C     C_R   0.357108 0.675400 0.052605 0.536990
C87   C     C_R   0.356265 0.324950 0.053483 0.567981
C88   C     C_R   0.643733 0.674713 0.946647 0.537822
C89   C     C_R   0.144840 0.827331 0.945535 0.568829
C90   C     C_R   0.857144 0.175339 0.052582 0.538127
C91   C     C_R   0.856625 0.824486 0.053212 0.568733
C92   C     C_R   0.143466 0.175083 0.946896 0.541039
C93   C     C_R   0.615736 0.345447 0.899558 -0.350688
C94   C     C_R   0.201555 0.768057 0.675996 0.983369
C95   C     C_R   0.384936 0.655444 0.099818 -0.331226
C96   C     C_R   0.384588 0.344676 0.100073 -0.338851
C97   C     C_R   0.615311 0.655369 0.900117 -0.326645
C98   C     C_R   0.116094 0.845891 0.899313 -0.346242
C99   C     C_R   0.885005 0.155504 0.099766 -0.338943
C100  C     C_R   0.884789 0.844438 0.099959 -0.340533
C101  C     C_R   0.115205 0.155491 0.900195 -0.328498
C102  C     C_R   0.630677 0.317175 0.815845 0.523980
C103  C     C_R   0.369396 0.682794 0.184144 0.510209
C104  C     C_R   0.369552 0.316799 0.183939 0.501664
C105  C     C_R   0.798312 0.231565 0.324032 0.962013
C106  C     C_R   0.630652 0.682908 0.816025 0.497101
C107  C     C_R   0.130893 0.817397 0.815768 0.515441
C108  C     C_R   0.869395 0.182788 0.184141 0.530691
C109  C     C_R   0.869689 0.816662 0.183904 0.507438
C110  C     C_R   0.130615 0.182914 0.816023 0.501579
C111  C     C_R   0.678616 0.279475 0.771672 -0.194142
C112  C     C_R   0.321245 0.720065 0.228364 -0.192133
C113  C     C_R   0.321513 0.278957 0.228217 -0.194476
C114  C     C_R   0.679162 0.719647 0.771345 -0.185626
C115  C     C_R   0.178861 0.779799 0.771495 -0.200678
C116  C     C_R   0.798610 0.767740 0.323842 0.968172
C117  C     C_R   0.821103 0.219734 0.228473 -0.189393
C118  C     C_R   0.821694 0.778695 0.228099 -0.197011
C119  C     C_R   0.179063 0.219812 0.771440 -0.188573
C120  C     C_R   0.707807 0.259802 0.816744 -0.364675
C121  C     C_R   0.292044 0.739482 0.183199 -0.371988
C122  C     C_R   0.292331 0.258692 0.183146 -0.321856
C123  C     C_R   0.709081 0.738240 0.815696 -0.323109
C124  C     C_R   0.208259 0.760412 0.816306 -0.326698
C125  C     C_R   0.791690 0.238656 0.183516 -0.372155
C126  C     C_R   0.792658 0.758213 0.182852 -0.346589
C127  C     C_R   0.201644 0.231695 0.676042 0.982755
C128  C     C_R   0.208817 0.238694 0.816000 -0.324049
C129  C     C_R   0.690226 0.282648 0.904871 0.032868
C130  C     C_R   0.310337 0.717801 0.094435 0.003945
C131  C     C_R   0.310215 0.280910 0.094820 0.024134
C132  C     C_R   0.690983 0.716399 0.904183 -0.009418
C133  C     C_R   0.190809 0.783408 0.904295 0.023985
C134  C     C_R   0.810006 0.217025 0.094730 0.003751
C135  C     C_R   0.810582 0.780433 0.094491 0.028498
C136  C     C_R   0.190593 0.216990 0.904590 -0.013372
C137  C     C_R   0.689981 0.130669 0.540263 0.931871
C138  C     C_R   0.073845 0.381387 0.437863 0.020775
C139  C     C_R   0.304060 0.871832 0.481493 0.914324
C140  C     C_R   0.302959 0.128385 0.484898 0.961844
C141  C     C_R   0.692347 0.872155 0.530299 0.882851
C142  C     C_R   0.190499 0.629827 0.537318 0.901804
C143  C     C_R   0.809669 0.369634 0.460291 0.917508
C144  C     C_R   0.804128 0.627248 0.479180 0.977098
C145  C     C_R   0.195559 0.372603 0.520890 0.961642
C146  C     C_R   0.073258 0.100866 0.934918 0.961372
C147  C     C_R   0.926532 0.899373 0.065313 0.961991
C148  C     C_R   0.926808 0.100874 0.065137 0.958357
F1    F     F_    0.163146 0.342006 0.389272 -0.672345
F2    F     F_    0.374309 0.652421 0.967162 -0.643330
F3    F     F_    0.372246 0.349654 0.969180 -0.635919
F4    F     F_    0.626646 0.651796 0.032008 -0.638881
F5    F     F_    0.129172 0.852736 0.029523 -0.635889
F6    F     F_    0.874813 0.153113 0.966724 -0.642157
F7    F     F_    0.872778 0.848964 0.968757 -0.636031
F8    F     F_    0.126409 0.152092 0.032221 -0.640100
F9    F     F_    0.600304 0.330330 0.774981 -0.597014
F10   F     F_    0.399479 0.669198 0.225408 -0.620958
F11   F     F_    0.399843 0.330619 0.224932 -0.620228
F12   F     F_    0.825709 0.640460 0.626246 -0.689197
F13   F     F_    0.600017 0.670022 0.775417 -0.628250
F14   F     F_    0.100329 0.830197 0.775158 -0.600473
F15   F     F_    0.899598 0.169509 0.225273 -0.599228
F16   F     F_    0.899857 0.830721 0.225054 -0.620596
F17   F     F_    0.100122 0.169734 0.775234 -0.620730
F18   F     F_    0.929198 0.336541 0.334874 -0.646854
F19   F     F_    0.076873 0.681177 0.623202 -0.638784
F20   F     F_    0.606039 0.828464 0.476766 -0.634083
F21   F     F_    0.326492 0.176529 0.625805 -0.683190
F22   F     F_    0.335378 0.818601 0.612868 -0.666604
F23   F     F_    0.581213 0.193071 0.631652 -0.633358
F24   F     F_    0.628161 0.351364 0.030409 -0.635995
H1    H     H_    0.745227 0.229321 0.782644 0.213083
H2    H     H_    0.755826 0.992846 0.544490 0.238675
H3    H     H_    0.262385 0.991130 0.422612 0.235603
H4    H     H_    0.326694 0.966237 0.343686 0.187943
H5    H     H_    0.249840 0.505466 0.563126 0.232327
H6    H     H_    0.195229 0.531960 0.661023 0.191391
H7    H     H_    0.747382 0.495176 0.438611 0.231073
H8    H     H_    0.800295 0.468371 0.339227 0.195030
H9    H     H_    0.054961 0.277150 0.476725 0.203024
H10   H     H_    0.089552 0.289062 0.364644 0.241622
H11   H     H_    0.873349 0.599409 0.728034 0.200210
H12   H     H_    0.254265 0.769172 0.217500 0.212258
H13   H     H_    0.893665 0.680597 0.677597 0.235363
H14   H     H_    0.036320 0.388965 0.250782 0.207137
H15   H     H_    0.025569 0.308857 0.303929 0.253882
H16   H     H_    0.028836 0.725574 0.518793 0.205926
H17   H     H_    0.988568 0.716197 0.630415 0.252103
H18   H     H_    0.506307 0.837723 0.711704 0.183414
H19   H     H_    0.515236 0.770968 0.638154 0.234245
H20   H     H_    0.363638 0.165010 0.744361 0.205310
H21   H     H_    0.397864 0.227262 0.664250 0.235667
H22   H     H_    0.442881 0.767650 0.533485 0.213341
H23   H     H_    0.254737 0.228260 0.217344 0.219657
H24   H     H_    0.406954 0.772784 0.646995 0.241135
H25   H     H_    0.534694 0.224615 0.519653 0.201121
H26   H     H_    0.497153 0.238056 0.631411 0.255821
H27   H     H_    0.793069 0.405732 0.889402 0.181177
H28   H     H_    0.737061 0.428144 0.987135 0.215871
H29   H     H_    0.278320 0.585664 0.046798 0.232244
H30   H     H_    0.226006 0.616577 0.144106 0.189867
H31   H     H_    0.201816 0.397626 0.123780 0.191789
H32   H     H_    0.256382 0.426748 0.027723 0.208504
H33   H     H_    0.721159 0.583623 0.952508 0.234597
H34   H     H_    0.747209 0.767455 0.781013 0.219486
H35   H     H_    0.773747 0.613830 0.855012 0.202241
H36   H     H_    0.298988 0.900914 0.878137 0.187413
H37   H     H_    0.244468 0.928848 0.974861 0.210080
H38   H     H_    0.782584 0.084413 0.038577 0.235526
H39   H     H_    0.729344 0.111416 0.137222 0.188629
H40   H     H_    0.705215 0.900499 0.117253 0.189923
H41   H     H_    0.760715 0.926415 0.020553 0.211587
H42   H     H_    0.222223 0.084296 0.951060 0.234098
H43   H     H_    0.273768 0.115569 0.853212 0.192725
H44   H     H_    0.659960 0.120424 0.032602 0.213249
H45   H     H_    0.245693 0.729961 0.782143 0.225398
H46   H     H_    0.715618 0.097094 0.935412 0.202938
H47   H     H_    0.291742 0.902780 0.054194 0.186156
H48   H     H_    0.346094 0.874632 0.957423 0.196326
H49   H     H_    0.345919 0.125451 0.953947 0.213797
H50   H     H_    0.291914 0.095689 0.049717 0.202140
H51   H     H_    0.713330 0.901124 0.940934 0.185536
H52   H     H_    0.658137 0.874654 0.037729 0.200280
H53   H     H_    0.155598 0.626220 0.041607 0.214105
H54   H     H_    0.209875 0.597925 0.945384 0.202243
H55   H     H_    0.784411 0.401879 0.066274 0.186788
H56   H     H_    0.753758 0.267998 0.217967 0.212976
H57   H     H_    0.840210 0.379295 0.968336 0.197452
H58   H     H_    0.843993 0.622376 0.958520 0.213622
H59   H     H_    0.789107 0.594956 0.054581 0.202838
H60   H     H_    0.209089 0.401581 0.947936 0.186748
H61   H     H_    0.154764 0.372038 0.044013 0.196034
H62   H     H_    0.755112 0.727675 0.216969 0.218371
H63   H     H_    0.246902 0.268018 0.781417 0.228292
H64   H     H_    0.708086 0.962915 0.649659 0.196822
N1    N     N_3   0.717500 0.001737 0.599620 -0.426848
N2    N     N_3   0.400243 0.175135 0.685964 -0.417893
N3    N     N_3   0.437198 0.797935 0.589329 -0.406660
N4    N     N_3   0.503242 0.203131 0.578924 -0.428064
N5    N     N_3   0.752737 0.391707 0.933447 -0.439007
N6    N     N_3   0.240333 0.610594 0.075228 -0.474303
N7    N     N_3   0.242546 0.387426 0.078077 -0.433424
N8    N     N_3   0.759450 0.608063 0.923886 -0.479742
N9    N     N_3   0.258281 0.890135 0.923719 -0.435099
N10   N     N_3   0.743984 0.107613 0.068044 -0.475336
N11   N     N_3   0.745753 0.888390 0.072448 -0.439217
N12   N     N_3   0.303704 0.003176 0.394646 -0.439964
N13   N     N_3   0.260305 0.109375 0.921770 -0.477940
N14   N     N_3   0.689473 0.139777 0.970139 -0.441153
N15   N     N_3   0.315949 0.858178 0.020894 -0.442515
N16   N     N_3   0.316161 0.140896 0.018213 -0.443119
N17   N     N_3   0.688179 0.857229 0.974711 -0.446378
N18   N     N_3   0.185425 0.642601 0.977806 -0.444383
N19   N     N_3   0.810477 0.359521 0.030319 -0.439517
N20   N     N_3   0.814231 0.639243 0.022104 -0.440414
N21   N     N_3   0.184988 0.356485 0.980207 -0.442145
N22   N     N_3   0.209123 0.494489 0.608400 -0.426757
N23   N     N_3   0.787765 0.506066 0.391433 -0.422532
N24   N     N_3   0.058418 0.310218 0.424467 -0.427217
N25   N     N_3   0.905403 0.626568 0.674843 -0.426627
N26   N     N_3   0.032673 0.363975 0.308455 -0.428389
N27   N     N_3   0.999979 0.691860 0.568309 -0.426855
N28   N     N_3   0.497935 0.822062 0.660600 -0.431344
O1    O     O_R   0.746490 0.236330 0.638080 -0.661898
O2    O     O_R   0.325830 0.813840 0.483730 -0.568629
O3    O     O_R   0.325830 0.186160 0.483730 -0.585223
O4    O     O_R   0.674170 0.813840 0.516270 -0.550302
O5    O     O_R   0.174170 0.686160 0.516270 -0.569416
O6    O     O_R   0.825830 0.313840 0.483730 -0.588841
O7    O     O_R   0.825830 0.686160 0.483730 -0.587802
O8    O     O_R   0.174170 0.313840 0.516270 -0.583129
O9    O     O_R   0.739960 0.127620 0.525000 -0.632041
O10   O     O_R   0.260040 0.872380 0.475000 -0.655676
O11   O     O_R   0.260040 0.127620 0.475000 -0.637362
O12   O     O_R   0.253510 0.763670 0.361920 -0.658245
O13   O     O_R   0.739960 0.872380 0.525000 -0.662149
O14   O     O_R   0.239960 0.627620 0.525000 -0.659037
O15   O     O_R   0.760040 0.372380 0.475000 -0.658356
O16   O     O_R   0.760040 0.627620 0.475000 -0.635654
O17   O     O_R   0.239960 0.372380 0.525000 -0.637341
O18   O     O_R   0.680700 0.294870 0.629350 -0.520985
O19   O     O_R   0.319300 0.705130 0.370650 -0.548298
O20   O     O_R   0.319300 0.294870 0.370650 -0.563039
O21   O     O_R   0.680700 0.705130 0.629350 -0.565642
O22   O     O_R   0.180700 0.794870 0.629350 -0.537483
O23   O     O_R   0.253510 0.236330 0.361920 -0.615663
O24   O     O_R   0.819300 0.205130 0.370650 -0.533127
O25   O     O_R   0.819300 0.794870 0.370650 -0.555929
O26   O     O_R   0.180700 0.205130 0.629350 -0.570381
O27   O     O_R   0.062020 0.072840 0.007170 -0.568501
O28   O     O_R   0.937980 0.927160 0.992830 -0.568285
O29   O     O_R   0.937980 0.072840 0.992830 -0.569350
O30   O     O_R   0.062020 0.927160 0.007170 -0.569008
O31   O     O_R   0.562020 0.572840 0.007170 -0.569074
O32   O     O_R   0.437980 0.427160 0.992830 -0.568345
O33   O     O_R   0.437980 0.572840 0.992830 -0.570143
O34   O     O_R   0.746490 0.763670 0.638080 -0.626681
O35   O     O_R   0.562020 0.427160 0.007170 -0.568151
O36   O     O_R   0.947860 0.073950 0.109290 -0.567140
O37   O     O_R   0.052140 0.926050 0.890710 -0.565969
O38   O     O_R   0.052140 0.073950 0.890710 -0.567101
O39   O     O_R   0.947860 0.926050 0.109290 -0.567402
O40   O     O_R   0.447860 0.573950 0.109290 -0.566434
O41   O     O_R   0.552140 0.426050 0.890710 -0.566327
O42   O     O_R   0.552140 0.573950 0.890710 -0.567421
O43   O     O_R   0.447860 0.426050 0.109290 -0.566509
O44   O     O_R   0.246490 0.736330 0.638080 -0.608700
O45   O     O_R   0.753510 0.263670 0.361920 -0.667146
O46   O     O_R   0.753510 0.736330 0.361920 -0.632919
O47   O     O_R   0.246490 0.263670 0.638080 -0.599402
O48   O     O_R   0.674170 0.186160 0.516270 -0.580222
Zn1   Zn    Zn3+2 0.792340 0.208750 0.507670 1.051165
Zn2   Zn    Zn3+2 0.494040 0.500000 0.919480 1.149810
Zn3   Zn    Zn3+2 0.005960 0.000000 0.080520 1.152419
Zn4   Zn    Zn3+2 0.994040 1.000000 0.919480 1.152543
Zn5   Zn    Zn3+2 0.207660 0.791250 0.492330 1.049406
Zn6   Zn    Zn3+2 0.207660 0.208750 0.492330 1.055827
Zn7   Zn    Zn3+2 0.792340 0.791250 0.507670 1.040893
Zn8   Zn    Zn3+2 0.292340 0.708750 0.507670 1.056252
Zn9   Zn    Zn3+2 0.707660 0.291250 0.492330 1.044956
Zn10  Zn    Zn3+2 0.707660 0.708750 0.492330 1.073957
Zn11  Zn    Zn3+2 0.292340 0.291250 0.507670 1.068339
Zn12  Zn    Zn3+2 0.505960 0.500000 0.080520 1.151358

loop_
_geom_bond_atom_site_label_1
_geom_bond_atom_site_label_2
_ccdc_geom_bond_type
C28   C47   A    
C143  O6    A    
C88   F4    S    
C36   C42   A    
C124  C133  A    
C63   C133  S    
H39   N10   S    
C16   C35   A    
C90   C134  A    
O48   Zn9   S    
O26   Zn6   S    
C62   C70   A    
O27   Zn3   S    
C37   C42   A    
H6    N22   S    
C85   C129  A    
C113  C122  A    
C33   C137  S    
C4    O31   A    
C139  O10   A    
C72   O20   A    
C91   C100  A    
H33   N8    S    
C88   C97   A    
O16   Zn10  S    
H26   N4    S    
C119  C128  A    
C24   C51   A    
C70   C79   A    
C100  C109  A    
C8    C16   A    
C94   O44   A    
C48   F1    S    
H46   N14   S    
C83   C114  S    
C102  C111  A    
C73   C81   A    
H57   N19   S    
C109  C118  A    
C7    C93   S    
C147  O39   A    
C105  O24   A    
C17   C24   A    
C62   C132  S    
C89   C133  A    
C32   C139  S    
O44   Zn8   S    
C101  C110  A    
H11   N25   S    
C72   C113  S    
O41   Zn2   S    
C29   C45   A    
C103  C112  A    
C35   N28   S    
C71   N18   S    
H51   N17   S    
H20   N2    S    
C107  F14   S    
C140  O3    A    
H59   N20   S    
C65   C135  S    
C66   C136  S    
C13   C18   A    
C68   N15   S    
C148  O36   A    
C63   C71   A    
H60   N21   S    
C55   C57   A    
C5    O32   A    
C104  F11   S    
H32   N7    S    
C68   C77   A    
C2    C19   A    
C25   C55   A    
C3    O30   A    
C59   C80   A    
H55   N19   S    
C94   C115  S    
H10   N24   S    
C48   C138  A    
C9    C15   A    
C3    C98   S    
C122  C131  A    
C46   C53   A    
C116  C118  S    
C36   C144  S    
O29   Zn4   S    
C86   C95   A    
H29   N6    S    
O21   Zn10  S    
C83   O34   A    
C58   C67   A    
O5    Zn5   S    
H43   N13   S    
O7    Zn7   S    
O34   Zn7   S    
O9    Zn1   S    
H50   N16   S    
O37   Zn4   S    
C65   C79   A    
C123  C132  A    
C51   F19   S    
C121  C130  A    
C145  O17   A    
C25   C43   A    
H4    N12   S    
H14   N26   S    
C148  O29   A    
C30   C141  S    
C61   O19   A    
C86   F2    S    
C75   C84   A    
C58   C129  S    
C81   N5    S    
H30   N6    S    
H64   N1    S    
C106  F13   S    
C87   C131  A    
C26   C45   A    
C105  O45   A    
H8    N23   S    
C85   C93   A    
C29   C38   A    
C64   C73   A    
C125  H56   S    
H5    N22   S    
C4    C97   S    
O23   Zn6   S    
C72   O23   A    
O8    Zn6   S    
O24   Zn1   S    
C10   C45   A    
C95   C103  A    
O32   Zn2   S    
C120  C129  A    
C64   C134  S    
O20   Zn11  S    
C38   C41   A    
C144  O16   A    
H2    N1    S    
C10   C20   A    
H7    N23   S    
C86   C130  A    
O4    Zn10  S    
C65   C74   A    
O30   Zn3   S    
C79   N11   S    
C146  O27   A    
H49   N16   S    
C8    C12   A    
H42   N13   S    
C49   F12   S    
C6    O40   A    
C121  H12   S    
C114  C123  A    
C70   N17   S    
C12   C57   A    
C90   C99   A    
C39   N1    S    
C29   C51   A    
C27   C47   A    
O6    Zn1   S    
C124  H45   S    
O38   Zn4   S    
O18   Zn9   S    
C108  C117  A    
O28   Zn4   S    
C6    O33   A    
C110  C119  A    
O10   Zn5   S    
C26   C48   A    
C89   C98   A    
H19   N28   S    
C112  C121  A    
C137  O48   A    
H35   N8    S    
C60   C69   A    
C24   N27   S    
C61   O12   A    
C30   C39   A    
O1    Zn1   S    
O43   Zn12  S    
C126  H62   S    
H21   N2    S    
O39   Zn3   S    
C104  C113  A    
C7    O41   A    
C6    C95   S    
O22   Zn5   S    
C4    O42   A    
H38   N10   S    
C15   C46   A    
C31   C140  S    
C61   C112  S    
C117  C125  A    
C27   C49   A    
C25   C33   A    
H24   N3    S    
C119  C127  S    
C125  C134  A    
C54   F22   S    
C11   C47   A    
O17   Zn11  S    
C8    C43   A    
C122  H23   S    
C142  O14   A    
C11   C18   A    
O47   Zn11  S    
H16   N27   S    
C11   C19   A    
C145  O8    A    
C140  O11   A    
O33   Zn2   S    
H58   N20   S    
C128  C136  A    
C110  F17   S    
C100  C147  S    
C31   C40   A    
C20   C138  A    
O12   Zn5   S    
H41   N11   S    
C75   N21   S    
O35   Zn12  S    
C50   F18   S    
C90   F6    S    
C13   N26   S    
C83   O21   A    
C53   F21   S    
C128  H63   S    
C62   C82   A    
H47   N15   S    
C105  C117  S    
C92   C136  A    
C34   C41   A    
C74   C82   A    
C60   C131  S    
C55   F23   S    
H52   N17   S    
C127  O26   A    
C138  N24   S    
C147  O28   A    
C66   C78   A    
C108  F15   S    
O2    Zn8   S    
C141  O4    A    
C58   C81   A    
C98   C107  A    
C123  H34   S    
O42   Zn2   S    
C9    C14   A    
C99   C108  A    
C12   C15   A    
C92   C101  A    
C97   C106  A    
C146  O38   A    
H3    N12   S    
C126  C135  A    
H37   N9    S    
C5    C96   S    
H27   N5    S    
C115  C124  A    
C37   C143  S    
C109  F16   S    
C93   C102  A    
C103  F10   S    
O46   Zn10  S    
C27   C36   A    
C21   C30   A    
H15   N26   S    
C23   C32   A    
O15   Zn9   S    
C142  O5    A    
C1    C111  S    
C66   C75   A    
H25   N4    S    
C80   N6    S    
C84   N7    S    
O19   Zn8   S    
C23   C44   A    
C67   N14   S    
C91   C135  A    
H44   N14   S    
H48   N15   S    
C35   C52   A    
C78   N13   S    
O11   Zn6   S    
H28   N5    S    
C116  O46   A    
C14   C56   A    
C99   C148  S    
C59   C130  S    
O31   Zn12  S    
C56   N3    S    
C94   O22   A    
H9    N24   S    
C33   C39   A    
C106  C114  A    
C28   C37   A    
C1    O18   A    
C34   C145  S    
C2    N25   S    
H31   N7    S    
C10   C17   A    
C116  O25   A    
H17   N27   S    
H18   N28   S    
H36   N9    S    
C69   N16   S    
C21   C43   A    
C28   C50   A    
C26   C34   A    
C22   C44   A    
H53   N18   S    
H22   N3    S    
O45   Zn9   S    
C18   C20   A    
C46   N2    S    
C73   N19   S    
C38   C142  S    
C69   C78   A    
H40   N11   S    
C102  F9    S    
C71   C80   A    
C40   N12   S    
C22   C53   A    
C54   C56   A    
C101  C146  S    
C85   F24   S    
C22   C31   A    
C144  O7    A    
C5    O43   A    
H61   N21   S    
C13   C50   A    
C111  C120  A    
C91   F7    S    
C42   N23   S    
C2    C49   A    
C59   C68   A    
C89   F5    S    
O25   Zn7   S    
C87   C96   A    
C143  O15   A    
C64   C76   A    
C82   N8    S    
C92   F8    S    
O40   Zn12  S    
C107  C115  A    
C139  O2    A    
C14   C16   A    
C88   C132  A    
O36   Zn3   S    
C23   C54   A    
C63   C77   A    
C9    C44   A    
C76   N10   S    
C7    O35   A    
C127  O47   A    
C96   C104  A    
C141  O13   A    
C52   F20   S    
C60   C84   A    
H13   N25   S    
C137  O9    A    
C17   C19   A    
C77   N9    S    
C32   C40   A    
C41   N22   S    
O13   Zn7   S    
C57   N4    S    
O14   Zn8   S    
C120  H1    S    
H54   N18   S    
C1    O1    A    
C87   F3    S    
C67   C76   A    
C118  C126  A    
C3    O37   A    
C21   C52   A    
C74   N20   S    
O3    Zn11  S    
