data_mof_unit_1288.cif
_audit_creation_date              2012-12-10T17:46:17-0500
_audit_creation_method            fapswitch 2.2
_symmetry_space_group_name_H-M    P1
_symmetry_Int_Tables_number       1
_space_group_crystal_system       triclinic
_cell_length_a                    14.149556
_cell_length_b                    10.642129
_cell_length_c                    9.92992
_cell_angle_alpha                 89.974246
_cell_angle_beta                  89.94552
_cell_angle_gamma                 91.621076
_cell_volume                      1494.66197389

loop_
_atom_site_label
_atom_site_type_symbol
_atom_type_description
_atom_site_fract_x
_atom_site_fract_y
_atom_site_fract_z
_atom_type_partial_charge
C1    C     C_R   0.502670 0.260707 0.500105 0.851007
C2    C     C_1   0.772190 0.499848 0.499902 -0.207245
C3    C     C_R   0.659316 0.136835 0.629180 -0.171852
C4    C     C_R   0.732340 0.073905 0.691931 -0.123173
C5    C     C_R   0.732392 0.943174 0.691746 -0.131113
C6    C     C_R   0.659439 0.874868 0.628768 -0.187899
C7    C     C_R   0.584055 0.937184 0.566246 0.098596
C8    C     C_R   0.583992 0.069005 0.566450 0.100536
C9    C     C_R   0.509388 0.128645 0.500008 -0.099957
C10   C     C_R   0.439036 0.061928 0.430665 -0.197352
C11   C     C_R   0.439084 0.933548 0.430325 -0.179842
C12   C     C_R   0.329295 0.499581 0.500075 0.881038
C13   C     C_R   0.509516 0.872031 0.499626 -0.109937
C14   C     C_R   0.375043 0.336427 0.139889 -0.189048
C15   C     C_R   0.312693 0.256973 0.069738 0.172578
C16   C     C_R   0.313291 0.256594 0.930339 -0.207944
C17   C     C_R   0.375539 0.336093 0.860304 -0.188289
C18   C     C_R   0.438794 0.419138 0.927823 0.170242
C19   C     C_R   0.438713 0.419212 0.072308 0.138660
C20   C     C_R   0.558670 0.577340 0.071306 -0.095967
C21   C     C_R   0.558631 0.577338 0.928322 -0.102266
C22   C     C_R   0.502895 0.739473 0.499945 0.866136
C23   C     C_R   0.670711 0.500322 0.499928 0.862313
C24   C     C_1   0.227797 0.499048 0.500147 -0.184765
C25   C     C_1   0.142524 0.498746 0.500131 0.014414
C26   C     C_1   0.042613 0.498698 0.500093 0.026164
C27   C     C_1   0.957346 0.498910 0.500050 0.018667
C28   C     C_1   0.857446 0.499378 0.499975 -0.003944
H1    H     H_    0.382835 0.109658 0.379394 0.173314
H2    H     H_    0.265072 0.194569 0.875583 0.178204
H3    H     H_    0.371504 0.329822 0.753555 0.212047
H4    H     H_    0.606475 0.640688 0.874596 0.144022
H5    H     H_    0.663485 0.238368 0.628695 0.151495
H6    H     H_    0.789586 0.126790 0.739576 0.146639
H7    H     H_    0.789673 0.894517 0.739251 0.143836
H8    H     H_    0.663716 0.773612 0.627884 0.140452
H9    H     H_    0.382860 0.881795 0.378543 0.171180
H10   H     H_    0.606563 0.640658 0.124759 0.148053
H11   H     H_    0.371035 0.330553 0.246625 0.209016
N1    N     N_R   0.499190 0.498800 0.142780 -0.108469
N2    N     N_R   0.499160 0.498720 0.857170 -0.109945
O1    O     O_R   0.500000 0.316780 0.614690 -0.633546
O2    O     O_R   0.499990 0.316750 0.385360 -0.620961
O3    O     O_R   0.373720 0.500010 0.614690 -0.609532
O4    O     O_R   0.373710 0.499990 0.385360 -0.608273
O5    O     O_R   0.500010 0.683250 0.614640 -0.606655
O6    O     O_R   0.500000 0.683220 0.385310 -0.604708
O7    O     O_R   0.626290 0.500010 0.614640 -0.609927
O8    O     O_R   0.626280 0.499990 0.385310 -0.587318
Zn1   Zn    Zn3+2 0.500010 0.500020 0.653130 0.933659
Zn2   Zn    Zn3+2 0.499990 0.499980 0.346870 0.946643
I1    I     I_    0.216058 0.138068 0.174749 -0.418985

loop_
_geom_bond_atom_site_label_1
_geom_bond_atom_site_label_2
_ccdc_geom_bond_type
N2    Zn1   S    
C2    C28   T    
C6    C7    A    
C12   O4    A    
N1    Zn2   S    
C20   H10   S    
C9    C10   A    
C12   C24   S    
O5    Zn1   S    
O7    Zn1   S    
C22   O6    A    
C14   H11   S    
C7    C8    A    
C12   O3    A    
C15   I1    S    
C24   C25   T    
C11   C13   A    
C10   H1    S    
O2    Zn2   S    
C26   C27   T    
C16   C17   A    
O1    Zn1   S    
C21   N2    A    
C5    H7    S    
C22   O5    A    
C17   H3    S    
C6    H8    S    
C13   C22   S    
C17   C18   A    
C5    C6    A    
C20   N1    A    
C21   H4    S    
C4    H6    S    
C23   O8    A    
C19   N1    A    
O4    Zn2   S    
C16   H2    S    
C3    C4    A    
C1    O1    A    
C7    C13   A    
C1    C9    S    
C20   C21   A    
C3    C8    A    
C10   C11   A    
C18   N2    A    
O3    Zn1   S    
C2    C23   S    
C11   H9    S    
C18   C19   A    
C3    H5    S    
C14   C15   A    
C4    C5    A    
O6    Zn2   S    
C23   O7    A    
O8    Zn2   S    
C25   C26   S    
C14   C19   A    
C1    O2    A    
C15   C16   A    
C8    C9    A    
C27   C28   S    
