data_mof_unit_1370.cif
_audit_creation_date              2012-12-11T15:29:32-0500
_audit_creation_method            fapswitch 2.2
_symmetry_space_group_name_H-M    P1
_symmetry_Int_Tables_number       1
_space_group_crystal_system       triclinic
_cell_length_a                    13.475903
_cell_length_b                    13.499011
_cell_length_c                    27.585532
_cell_angle_alpha                 90.473236
_cell_angle_beta                  89.881466
_cell_angle_gamma                 60.107733
_cell_volume                      4350.27186664

loop_
_atom_site_label
_atom_site_type_symbol
_atom_type_description
_atom_site_fract_x
_atom_site_fract_y
_atom_site_fract_z
_atom_type_partial_charge
C1    C     C_R   0.620230 0.101053 0.569942 0.546420
C2    C     C_1   0.630534 0.732454 0.616039 -0.008571
C3    C     C_3   0.686417 0.566275 0.767398 -0.067049
C4    C     C_3   0.678918 0.655551 0.804494 0.051271
C5    C     C_3   0.581181 0.661678 0.741099 -0.105913
C6    C     C_3   0.662302 0.684616 0.710131 0.031994
C7    C     C_3   0.573853 0.750522 0.778922 -0.103135
C8    C     C_3   0.654761 0.773968 0.747194 -0.117775
C9    C     C_1   0.688219 0.634258 0.856659 -0.028978
C10   C     C_1   0.648533 0.705693 0.657982 -0.052799
C11   C     C_3   0.091559 0.133092 0.737815 -0.057722
C12   C     C_R   0.599609 0.779343 0.568482 0.539465
C13   C     C_3   0.183936 0.059875 0.775265 0.376032
C14   C     C_1   0.099450 0.199352 0.900659 0.019585
C15   C     C_1   0.230068 0.137209 0.617135 -0.004961
C16   C     C_3   0.060970 0.239585 0.769401 0.357556
C17   C     C_3   0.151976 0.165831 0.806574 0.061527
C18   C     C_3   0.148893 0.260489 0.742321 -0.098479
C19   C     C_3   0.181212 0.152744 0.711487 -0.043192
C20   C     C_3   0.241212 0.185335 0.779856 -0.203413
C21   C     C_3   0.274403 0.077319 0.748175 -0.107220
C22   C     C_1   0.128479 0.179523 0.858758 0.028395
C23   C     C_R   0.277694 0.121586 0.569363 0.541766
C24   C     C_1   0.202796 0.145625 0.659210 -0.042900
C25   C     C_3   0.626014 0.276780 0.739064 -0.101278
C26   C     C_3   0.553958 0.255603 0.777163 -0.100954
C27   C     C_1   0.691639 0.206646 0.901387 -0.001396
C28   C     C_1   0.635268 0.132899 0.617933 -0.011580
C29   C     C_3   0.734845 0.206331 0.769759 -0.098472
C30   C     C_3   0.662643 0.184894 0.807033 0.048436
C31   C     C_3   0.759073 0.095839 0.742390 -0.095564
C32   C     C_3   0.650491 0.166438 0.712454 0.048761
C33   C     C_3   0.687102 0.074613 0.780375 -0.100208
C34   C     C_R   0.622177 0.099856 0.431437 0.543143
C35   C     C_3   0.578239 0.144986 0.749698 -0.106188
C36   C     C_1   0.674525 0.195619 0.859341 -0.043031
C37   C     C_1   0.643502 0.151639 0.660101 -0.053447
C38   C     C_R   0.644992 0.713083 0.384570 0.018342
C39   C     C_R   0.746688 0.699921 0.362675 0.096530
C40   C     C_R   0.762215 0.680968 0.312132 0.138290
C41   C     C_R   0.682839 0.663751 0.285760 -0.032165
C42   C     C_R   0.591389 0.662646 0.309169 -0.133699
C43   C     C_R   0.572329 0.686740 0.357961 0.328482
C44   C     C_R   0.688190 0.547962 0.216201 -0.140955
C45   C     C_R   0.603001 0.775197 0.430808 0.570983
C46   C     C_R   0.688255 0.530375 0.167095 -0.114135
C47   C     C_R   0.711470 0.694665 0.151585 -0.137437
C48   C     C_R   0.706664 0.715478 0.201400 -0.077643
C49   C     C_R   0.695114 0.641623 0.233695 0.053945
C50   C     C_R   0.699689 0.603252 0.134728 0.043901
C51   C     C_R   0.226070 0.136701 0.383470 0.020443
C52   C     C_R   0.248233 0.040393 0.355451 -0.126512
C53   C     C_R   0.225986 0.050926 0.306155 -0.129472
C54   C     C_R   0.178576 0.158337 0.284305 0.033093
C55   C     C_R   0.148211 0.255616 0.313153 -0.118118
C56   C     C_R   0.279086 0.119950 0.431017 0.537881
C57   C     C_R   0.172384 0.244962 0.362386 -0.128522
C58   C     C_R   0.175705 0.250505 0.205805 -0.148690
C59   C     C_R   0.146826 0.269122 0.157061 -0.184714
C60   C     C_R   0.102142 0.115670 0.157932 0.359752
C61   C     C_R   0.128122 0.099509 0.206822 -0.090112
C62   C     C_R   0.161589 0.168970 0.231564 -0.026511
C63   C     C_R   0.105307 0.205120 0.133203 0.021952
C64   C     C_R   0.644471 0.138380 0.385283 -0.011335
C65   C     C_R   0.558509 0.237882 0.363668 -0.130723
C66   C     C_R   0.569523 0.261035 0.315624 -0.144695
C67   C     C_3   0.767397 0.589614 0.735654 -0.064251
C68   C     C_R   0.666714 0.185657 0.288690 0.031700
C69   C     C_R   0.757235 0.088437 0.310912 0.149968
C70   C     C_R   0.744841 0.066295 0.359193 -0.087529
C71   C     C_R   0.761653 0.223234 0.220725 -0.129579
C72   C     C_R   0.775957 0.230389 0.171499 -0.102821
C73   C     C_R   0.603780 0.220879 0.155111 -0.136514
C74   C     C_R   0.590966 0.210616 0.204771 -0.120006
C75   C     C_R   0.671712 0.209076 0.237429 0.018828
C76   C     C_R   0.698272 0.227639 0.138582 0.039777
C77   C     C_R   0.050238 0.234746 0.948085 0.544004
C78   C     C_3   0.760137 0.678487 0.773590 -0.091427
C79   C     C_R   0.712081 0.561877 0.946404 0.549670
C80   C     C_R   0.722687 0.224150 0.949075 0.543615
C81   C     C_R   0.047960 0.243411 0.086359 0.549755
C82   C     C_R   0.709108 0.571661 0.084299 0.532452
C83   C     C_R   0.720446 0.233606 0.087647 0.524330
C84   C     C_1   0.697505 0.607691 0.898655 0.004939
Cr1   Cr    Cr6+3 0.417550 0.169090 0.500530 1.027226
Cr2   Cr    Cr6+3 0.669180 0.913420 0.499920 1.034505
Cr3   Cr    Cr6+3 0.413260 0.917540 0.499520 1.062409
Cr4   Cr    Cr6+3 0.909770 0.175810 0.018240 1.098388
Cr5   Cr    Cr6+3 0.913300 0.427650 0.016090 1.035700
Cr6   Cr    Cr6+3 0.657770 0.431010 0.016900 1.037893
H1    H     H_    0.833424 0.685780 0.787594 0.120637
H2    H     H_    0.302757 0.206225 0.797349 0.119394
H3    H     H_    0.132629 0.344111 0.728319 0.129311
H4    H     H_    0.469540 0.320918 0.792037 0.113860
H5    H     H_    0.601399 0.359651 0.721624 0.110867
H6    H     H_    0.513551 0.119636 0.740844 0.104069
H7    H     H_    0.711791 0.991690 0.797786 0.110494
H8    H     H_    0.843562 0.030492 0.727578 0.123036
H9    H     H_    0.799630 0.231533 0.778589 0.166512
H10   H     H_    0.846613 0.523492 0.717325 0.149928
H11   H     H_    0.680948 0.489333 0.240622 0.113799
H12   H     H_    0.681129 0.458342 0.154147 0.131928
H13   H     H_    0.710464 0.789247 0.214644 0.140853
H14   H     H_    0.722158 0.750016 0.126512 0.110908
H15   H     H_    0.531088 0.647641 0.288991 0.148177
H16   H     H_    0.290776 0.955488 0.370721 0.174223
H17   H     H_    0.205771 0.302317 0.223617 0.118555
H18   H     H_    0.151853 0.337177 0.138752 0.145685
H19   H     H_    0.641665 0.859714 0.738224 0.106938
H20   H     H_    0.251316 0.974073 0.284935 0.116644
H21   H     H_    0.116576 0.035915 0.225632 0.123109
H22   H     H_    0.108871 0.339486 0.297393 0.093135
H23   H     H_    0.154126 0.320422 0.383392 0.117954
H24   H     H_    0.480188 0.294883 0.383043 0.145262
H25   H     H_    0.822504 0.225319 0.245682 0.119782
H26   H     H_    0.847535 0.238932 0.158916 0.143780
H27   H     H_    0.500808 0.336431 0.298971 0.122565
H28   H     H_    0.520539 0.200512 0.217628 0.116426
H29   H     H_    0.494554 0.816733 0.797179 0.147409
H30   H     H_    0.542796 0.220183 0.129803 0.107997
H31   H     H_    0.810741 0.988045 0.375193 0.142320
H32   H     H_    0.507848 0.654364 0.727159 0.128956
H33   H     H_    0.699269 0.480601 0.776327 0.148587
H34   H     H_    0.029622 0.112345 0.720617 0.117008
H35   H     H_    0.362792 0.009114 0.738922 0.121637
O1    O     O_R   0.301780 0.195490 0.553940 -0.507986
O2    O     O_R   0.658840 0.818280 0.449970 -0.480582
O3    O     O_R   0.503160 0.801780 0.445740 -0.442890
O4    O     O_R   0.319320 0.022190 0.450230 -0.501890
O5    O     O_3   0.499990 0.000010 0.499990 -0.258450
O6    O     O_R   0.819250 0.149410 0.965240 -0.499449
O7    O     O_R   0.006940 0.180310 0.968270 -0.487922
O8    O     O_R   0.028420 0.332670 0.963010 -0.505602
O9    O     O_R   0.810130 0.520390 0.966030 -0.491060
O10   O     O_R   0.636050 0.541380 0.962520 -0.500051
O11   O     O_R   0.666480 0.323610 0.968170 -0.495140
O12   O     O_R   0.522450 0.158840 0.550250 -0.492862
O13   O     O_R   0.817280 0.156800 0.072180 -0.470432
O14   O     O_R   0.005110 0.187160 0.067410 -0.429932
O15   O     O_R   0.026450 0.340060 0.069950 -0.531007
O16   O     O_R   0.808300 0.527240 0.065170 -0.498538
O17   O     O_R   0.634070 0.548770 0.069460 -0.509199
O18   O     O_R   0.664650 0.330470 0.067300 -0.510578
O19   O     O_3   0.826940 0.344820 0.017080 -0.267642
O20   O     O_R   0.694460 0.003360 0.553820 -0.505645
O21   O     O_R   0.657750 0.819520 0.549120 -0.500622
O22   O     O_R   0.501990 0.803120 0.552700 -0.503128
O23   O     O_R   0.318230 0.023430 0.549370 -0.493919
O24   O     O_R   0.302950 0.194150 0.446980 -0.519017
O25   O     O_R   0.523540 0.157600 0.451100 -0.499860
O26   O     O_R   0.695630 0.002030 0.446860 -0.511643
F1    F     F_    0.950761 0.323910 0.781048 -0.670312
N1    N     N_2   0.832004 0.705010 0.391554 -0.484079
H36   H     H_    0.883349 0.730625 0.374561 0.250529
C85   C     C_3   0.895820 0.607168 0.422373 -0.283639
H37   H     H_    0.956065 0.620857 0.445010 0.138739
H38   H     H_    0.945576 0.528550 0.400044 0.125561
H39   H     H_    0.837352 0.595190 0.446956 0.154374
N2    N     N_2   0.854840 0.681235 0.287236 -0.517331
H40   H     H_    0.870360 0.746313 0.296565 0.257194
C86   C     C_3   0.956710 0.570864 0.281854 -0.302584
H41   H     H_    0.018279 0.578114 0.257413 0.146201
H42   H     H_    0.935474 0.508157 0.265598 0.163711
H43   H     H_    0.997680 0.540219 0.317614 0.133705
F2    F     F_    0.478675 0.690236 0.378241 -0.625749
F3    F     F_    0.066093 0.048674 0.136168 -0.622036
N3    N     N_2   0.855333 0.006189 0.284286 -0.530791
H44   H     H_    0.847080 0.005498 0.247187 0.274954
C87   C     C_3   0.963764 0.993152 0.299782 -0.306589
H45   H     H_    0.034082 0.925889 0.277438 0.152636
H46   H     H_    0.980352 0.966766 0.338271 0.153267
H47   H     H_    0.964288 0.074590 0.295362 0.143599
F4    F     F_    0.202940 0.956304 0.792866 -0.629364

loop_
_geom_bond_atom_site_label_1
_geom_bond_atom_site_label_2
_ccdc_geom_bond_type
C53   H20   S    
C58   C62   A    
C81   O15   A    
C66   C68   A    
C26   H4    S    
C55   H22   S    
C85   H38   S    
C41   C42   A    
C40   N2    S    
C1    O20   A    
C11   H34   S    
C82   O17   A    
C2    C12   S    
C69   N3    S    
C86   H41   S    
C34   O25   A    
C7    C8    S    
N3    C87   S    
C35   H6    S    
C68   C75   S    
C13   F4    S    
C46   H12   S    
C11   C19   S    
Cr3   O22   S    
C63   C81   S    
C60   C63   A    
C12   O22   A    
C19   C21   S    
C34   C64   S    
C58   H17   S    
C4    C7    S    
C5    C6    S    
C31   H8    S    
C45   O3    A    
C17   C20   S    
C18   C19   S    
C73   C74   A    
C14   C77   S    
C12   O21   A    
Cr1   O25   S    
C38   C45   S    
N2    H40   S    
C44   C46   A    
C16   C17   S    
C66   H27   S    
C1    C28   S    
N2    C86   S    
C51   C57   A    
C17   C22   S    
C64   C70   A    
N1    C85   S    
C18   C20   S    
C56   O4    A    
C72   C76   A    
C25   C32   S    
C15   C23   S    
Cr6   O18   S    
C52   H16   S    
N1    H36   S    
C80   O6    A    
C85   H39   S    
C8    C78   S    
C87   H46   S    
Cr1   O1    S    
C61   C62   A    
C67   C78   S    
C77   O8    A    
C82   O16   A    
Cr2   O21   S    
C76   C83   S    
C41   C49   S    
Cr3   O3    S    
C86   H42   S    
C3    H33   S    
C47   C50   A    
C43   F2    S    
C25   C29   S    
C38   C39   A    
C74   H28   S    
C3    C67   S    
C71   C75   A    
Cr5   O8    S    
C74   C75   A    
C29   H9    S    
C13   C21   S    
C51   C52   A    
C87   H45   S    
C7    H29   S    
C27   C80   S    
Cr3   O23   S    
N3    H44   S    
C5    C7    S    
C68   C69   A    
C57   H23   S    
C54   C62   S    
C50   C82   S    
C58   C59   A    
C53   C54   A    
C48   H13   S    
C5    H32   S    
C44   C49   A    
C60   F3    S    
C60   C61   A    
C77   O7    A    
C32   C35   S    
Cr4   O14   S    
C4    C78   S    
C29   C30   S    
Cr1   O5    S    
Cr6   O11   S    
C11   C16   S    
C47   C48   A    
C65   H24   S    
C44   H11   S    
Cr5   O15   S    
C31   C33   S    
C71   H25   S    
C16   F1    S    
C32   C37   S    
C20   C21   S    
Cr4   O13   S    
Cr6   O17   S    
C67   H10   S    
C23   O1    A    
C47   H14   S    
C48   C49   A    
C39   N1    S    
C25   H5    S    
C55   C57   A    
C27   C36   T    
C87   H47   S    
C20   H2    S    
C42   C43   A    
Cr4   O7    S    
C21   H35   S    
C3    C4    S    
C2    C10   T    
Cr2   O20   S    
Cr1   O12   S    
C39   C40   A    
C86   H43   S    
C1    O12   A    
C52   C53   A    
Cr3   O5    S    
C81   O14   A    
C79   O9    A    
C72   H26   S    
C54   C55   A    
C15   C24   T    
Cr5   O9    S    
C30   C33   S    
Cr2   O2    S    
C31   C32   S    
Cr2   O5    S    
C51   C56   S    
C3    C5    S    
C6    C10   S    
C6    C8    S    
C34   O26   A    
C26   C30   S    
C13   C17   S    
C78   H1    S    
Cr5   O19   S    
C79   O10   A    
C23   O23   A    
C46   C50   A    
C59   C63   A    
C59   H18   S    
C80   O11   A    
C30   C36   S    
C64   C65   A    
C14   C22   T    
C19   C24   S    
C25   C26   S    
C38   C43   A    
C29   C31   S    
C6    C67   S    
Cr2   O26   S    
C83   O18   A    
Cr6   O10   S    
C11   C13   S    
C70   H31   S    
Cr3   O4    S    
C79   C84   S    
C28   C37   T    
C45   O2    A    
Cr5   O16   S    
C33   C35   S    
C33   H7    S    
C69   C70   A    
C42   H15   S    
Cr1   O24   S    
C9    C84   T    
C26   C35   S    
C71   C72   A    
C73   C76   A    
C16   C18   S    
C65   C66   A    
C56   O24   A    
C85   H37   S    
C73   H30   S    
C18   H3    S    
C40   C41   A    
Cr4   O6    S    
C4    C9    S    
C8    H19   S    
Cr4   O19   S    
C83   O13   A    
Cr6   O19   S    
C61   H21   S    
