data_mof_unit_661.cif
_audit_creation_date              2013-03-05T16:05:20-0500
_audit_creation_method            fapswitch 2.2
_symmetry_space_group_name_H-M    P1
_symmetry_Int_Tables_number       1
_space_group_crystal_system       triclinic
_cell_length_a                    10.753528
_cell_length_b                    9.57521
_cell_length_c                    15.919944
_cell_angle_alpha                 89.91614
_cell_angle_beta                  90.531595
_cell_angle_gamma                 90.171598
_cell_volume                      1639.1538765

loop_
_atom_site_label
_atom_site_type_symbol
_atom_site_description
_atom_site_fract_x
_atom_site_fract_y
_atom_site_fract_z
_atom_type_partial_charge
O1    O     O_R   0.319660 0.618740 0.500000 -0.556179
O2    O     O_R   0.319660 0.381260 0.500000 -0.561081
C1    C     C_R   0.262767 0.499932 0.499946 0.904594
O3    O     O_R   0.500020 0.618840 0.379440 -0.542647
O4    O     O_R   0.500020 0.381160 0.379440 -0.545316
C2    C     C_R   0.498822 0.500096 0.340470 0.866266
Cu1   Cu    Cu3+1 0.500020 0.640660 0.500000 1.082875
Cu2   Cu    Cu3+1 0.500020 0.359340 0.500000 1.083214
O5    O     O_R   0.680370 0.618830 0.500010 -0.547713
O6    O     O_R   0.680370 0.381170 0.500010 -0.546934
O7    O     O_R   0.500010 0.618730 0.620560 -0.555994
O8    O     O_R   0.500010 0.381270 0.620560 -0.550392
C3    C     C_R   0.737420 0.500142 0.500703 0.946294
C4    C     C_R   0.498874 0.499888 0.659456 0.862317
C5    C     C_3   0.424923 0.624823 0.049799 0.173074
C6    C     C_3   0.448620 0.350317 0.050684 0.157687
C7    C     C_3   0.429215 0.357875 0.949745 0.351505
C8    C     C_3   0.439562 0.635927 0.949081 0.296517
C9    C     C_1   0.499087 0.499215 0.748565 -0.056128
C10   C     C_3   0.509223 0.496040 0.083371 -0.097278
C11   C     C_3   0.504394 0.494206 0.916600 -0.048538
C12   C     C_3   0.647440 0.488279 0.948657 0.055890
C13   C     C_3   0.653074 0.507488 0.051040 0.447995
C14   C     C_1   0.500647 0.497021 0.823852 0.052944
C15   C     C_1   0.504348 0.498997 0.175944 0.208546
C16   C     C_1   0.500752 0.500173 0.251223 0.025370
C17   C     C_R   0.064195 0.468694 0.425962 0.064498
C18   C     C_R   0.067142 0.533742 0.574665 0.017284
C19   C     C_R   0.934174 0.467365 0.426338 0.248472
C20   C     C_R   0.936811 0.533795 0.575267 0.287334
C21   C     C_R   0.871539 0.500342 0.500871 -0.292897
C22   C     C_R   0.129016 0.500121 0.500285 -0.051820
C23   C     C_R   0.421673 0.073947 0.448031 0.333923
C24   C     C_R   0.422143 0.925575 0.447669 0.322763
N1    N     N_R   0.500030 0.852070 0.500020 -0.241442
N2    N     N_R   0.500030 0.147930 0.500020 -0.240767
C25   C     C_R   0.578036 0.925254 0.552536 0.160335
C26   C     C_R   0.578170 0.075037 0.552454 0.172344
N3    N     N_3   0.313745 0.652105 0.911698 -0.587956
H1    H     H_    0.277701 0.748842 0.929728 0.253430
H2    H     H_    0.315297 0.653377 0.846114 0.252957
N4    N     N_3   0.296401 0.374620 0.927527 -0.567873
H3    H     H_    0.246359 0.283928 0.941395 0.262368
H4    H     H_    0.286811 0.385256 0.862409 0.238005
N5    N     N_3   0.659673 0.849571 0.607451 -0.464487
H5    H     H_    0.751357 0.877665 0.594072 0.232321
H6    H     H_    0.640492 0.877175 0.669467 0.251706
N6    N     N_3   0.659702 0.151006 0.607468 -0.473524
H7    H     H_    0.751449 0.123583 0.594282 0.219112
H8    H     H_    0.640262 0.123056 0.669461 0.246301
N7    N     N_3   0.293785 0.597146 0.074110 -0.501510
H9    H     H_    0.243405 0.534861 0.032807 0.299880
H10   H     H_    0.242524 0.689718 0.077523 0.259846
N8    N     N_3   0.327657 0.324499 0.091964 -0.534590
H11   H     H_    0.290405 0.229098 0.071913 0.253279
H12   H     H_    0.340161 0.312184 0.156725 0.269789
N9    N     N_3   0.530903 0.233581 0.076403 -0.492201
H13   H     H_    0.481990 0.141244 0.088469 0.274723
H14   H     H_    0.599117 0.210246 0.032699 0.299156
N10   N     N_3   0.452929 0.758374 0.093054 -0.503924
H15   H     H_    0.407557 0.841247 0.062858 0.258027
H16   H     H_    0.544357 0.786287 0.102920 0.310183
N11   N     N_R   0.467249 0.223783 0.909659 0.137644
O9    O     O_R   0.499423 0.219652 0.831155 -0.350554
O10   O     O_R   0.424599 0.107365 0.940697 -0.345089
N12   N     N_R   0.512990 0.758976 0.919375 0.156827
O11   O     O_R   0.501367 0.800127 0.841670 -0.325003
O12   O     O_R   0.594833 0.823782 0.965467 -0.283728
N13   N     N_R   0.709869 0.641111 0.080763 0.139516
O13   O     O_R   0.711161 0.664556 0.161367 -0.290021
O14   O     O_R   0.797044 0.704313 0.039217 -0.251563
N14   N     N_R   0.736534 0.400207 0.089262 0.146883
O15   O     O_R   0.711372 0.344125 0.161684 -0.254836
O16   O     O_R   0.853607 0.402585 0.069019 -0.297512
N15   N     N_3   0.722446 0.596055 0.905424 -0.425646
H17   H     H_    0.712931 0.589540 0.840275 0.269392
H18   H     H_    0.817010 0.575870 0.915405 0.272852
N16   N     N_3   0.698798 0.351166 0.923815 -0.546735
H19   H     H_    0.693396 0.341409 0.858549 0.276350
H20   H     H_    0.794377 0.346443 0.934511 0.271152
N17   N     N_3   0.131574 0.446486 0.349667 -0.531906
H21   H     H_    0.110792 0.346946 0.326740 0.311312
H22   H     H_    0.101840 0.519980 0.305248 0.275642
N18   N     N_3   0.138177 0.562148 0.649581 -0.590174
H23   H     H_    0.108271 0.495181 0.697290 0.253408
H24   H     H_    0.122221 0.665282 0.667762 0.279463
N19   N     N_R   0.865957 0.437200 0.350650 0.130008
O17   O     O_R   0.878131 0.316982 0.313730 -0.265451
O18   O     O_R   0.789942 0.529215 0.319242 -0.307373
N20   N     N_R   0.871159 0.560859 0.651754 0.111915
O19   O     O_R   0.792421 0.469554 0.680485 -0.408217
O20   O     O_R   0.892313 0.674583 0.694200 -0.368831
N21   N     N_R   0.335522 0.145454 0.394602 0.164617
O21   O     O_R   0.219575 0.151047 0.416824 -0.322470
O22   O     O_R   0.362756 0.163068 0.315857 -0.333552
N22   N     N_R   0.339907 0.853421 0.391459 0.166086
O23   O     O_R   0.370509 0.841722 0.312927 -0.301224
O24   O     O_R   0.223650 0.838955 0.411684 -0.305110

loop_
_geom_bond_atom_site_label_1
_geom_bond_atom_site_label_2
_geom_bond_distance
_ccdc_geom_bond_type
C5    C8    1.615895 S    
N12   O12   1.297754 A    
N19   O17   1.300766 A    
N11   O10   1.302562 A    
N21   O21   1.300489 A    
C17   C19   1.398271 A    
C8    C11   1.615346 S    
C5    N10   1.482084 S    
C13   N13   1.491880 S    
C20   N20   1.437456 S    
N17   H21   1.043951 S    
N9    H13   1.045880 S    
Cu1   Cu2   2.693698 S    
N3    H2    1.044431 S    
C2    C16   1.421151 S    
N5    H5    1.044947 S    
Cu1   O7    1.930455 S    
N1    C25   1.370721 A    
C24   N22   1.429543 S    
O4    C2    1.296107 A    
O7    C4    1.294787 A    
N16   H20   1.041368 S    
N9    H14   1.040684 S    
C18   N18   1.436219 S    
C10   C15   1.475502 S    
C23   N2    1.371883 A    
N10   H16   1.028801 S    
C24   N1    1.371254 A    
Cu2   N2    2.024296 S    
N13   O14   1.299777 A    
C8    N3    1.481471 S    
O5    C3    1.293076 A    
C7    N4    1.477316 S    
C6    C7    1.620050 S    
N22   O24   1.300802 A    
C5    N7    1.488719 S    
C26   N6    1.431327 S    
C6    C10   1.622594 S    
N6    H8    1.045014 S    
N12   O11   1.302765 A    
N21   O22   1.300641 A    
C11   C12   1.617331 S    
C1    C22   1.438364 S    
N4    H4    1.045695 S    
C12   N15   1.480706 S    
O3    Cu1   1.930951 S    
C13   N14   1.491491 S    
N17   H22   1.045577 S    
N5    H6    1.045002 S    
C5    C10   1.619818 S    
N8    H12   1.045037 S    
N7    H9    1.036411 S    
C18   C22   1.401974 A    
N18   H23   1.045625 S    
C12   N16   1.481553 S    
N14   O16   1.302549 A    
N3    H1    1.046714 S    
N16   H19   1.044432 S    
C15   C16   1.199480 T    
C7    C11   1.623470 S    
N10   H15   1.046740 S    
O1    C1    1.290068 A    
N15   H17   1.043204 S    
C25   C26   1.434194 A    
N20   O20   1.300748 A    
C10   C13   1.638128 S    
C17   N17   1.436486 S    
Cu2   O8    1.931066 S    
N22   O23   1.300833 A    
C23   C24   1.420738 A    
N15   H18   1.046310 S    
O3    C2    1.296017 A    
N6    H7    1.044973 S    
O8    C4    1.294566 A    
N19   O18   1.299962 A    
N4    H3    1.044644 S    
C25   N5    1.431035 S    
Cu1   O5    1.951253 S    
N8    H11   1.045521 S    
C17   C22   1.400325 A    
O1    Cu1   1.950205 S    
Cu1   N1    2.024295 S    
C4    C9    1.418601 S    
C3    C21   1.442228 S    
O2    Cu2   1.951455 S    
N18   H24   1.044611 S    
N14   O15   1.301534 A    
O6    C3    1.292264 A    
C23   N21   1.427600 S    
O4    Cu2   1.930343 S    
C8    N12   1.495016 S    
C18   C20   1.401637 A    
C9    C14   1.198671 T    
C19   C21   1.406589 A    
C7    N11   1.494483 S    
N20   O19   1.300790 A    
C20   C21   1.407966 A    
N2    C26   1.370702 A    
O2    C1    1.292153 A    
C6    N9    1.482518 S    
N13   O13   1.302958 A    
C6    N8    1.482718 S    
C19   N19   1.434156 S    
N11   O9    1.300561 A    
Cu2   O6    1.950008 S    
C11   C14   1.476928 S    
C12   C13   1.641074 S    
N7    H10   1.046966 S    
