data_mof_unit_1292.cif
_audit_creation_date              2012-12-11T14:45:32-0500
_audit_creation_method            fapswitch 2.2
_symmetry_space_group_name_H-M    P1
_symmetry_Int_Tables_number       1
_space_group_crystal_system       triclinic
_cell_length_a                    24.565905
_cell_length_b                    7.201478
_cell_length_c                    14.612054
_cell_angle_alpha                 90.000874
_cell_angle_beta                  102.555934
_cell_angle_gamma                 90.000854
_cell_volume                      2523.20756615

loop_
_atom_site_label
_atom_site_type_symbol
_atom_type_description
_atom_site_fract_x
_atom_site_fract_y
_atom_site_fract_z
_atom_type_partial_charge
O1    O     O_R   0.319150 0.364170 0.330530 -0.548137
O2    O     O_R   0.680850 0.635830 0.669470 -0.527891
O3    O     O_R   0.180850 0.864170 0.169470 -0.548148
O4    O     O_R   0.819150 0.135830 0.830530 -0.527892
O5    O     O_R   0.210330 0.696850 0.354180 -0.537862
O6    O     O_R   0.789670 0.303150 0.645820 -0.540127
O7    O     O_R   0.289670 0.196850 0.145820 -0.537815
O8    O     O_R   0.710330 0.803150 0.854180 -0.540132
C1    C     C_R   0.195952 0.526508 0.376286 0.700631
C2    C     C_R   0.804008 0.475568 0.623618 0.703986
C3    C     C_R   0.304047 0.026509 0.123713 0.700812
C4    C     C_R   0.695991 0.975567 0.876381 0.703958
O9    O     O_R   0.320550 0.694110 0.341970 -0.530348
O10   O     O_R   0.679450 0.305890 0.658030 -0.550365
O11   O     O_R   0.179450 0.194110 0.158030 -0.530328
O12   O     O_R   0.820550 0.805890 0.841970 -0.550362
O13   O     O_R   0.291860 0.861000 0.157170 -0.536852
O14   O     O_R   0.708140 0.139000 0.842830 -0.538516
O15   O     O_R   0.208140 0.361000 0.342830 -0.536821
O16   O     O_R   0.791860 0.639000 0.657170 -0.538508
C5    C     C_R   0.341760 0.524665 0.361777 0.684735
C6    C     C_R   0.658120 0.473613 0.638467 0.679775
C7    C     C_R   0.158240 0.024661 0.138222 0.684814
C8    C     C_R   0.841880 0.973617 0.861531 0.679776
O17   O     O_3   0.240460 0.529330 0.189380 -0.375428
O18   O     O_3   0.759540 0.470670 0.810620 -0.374221
O19   O     O_3   0.259540 0.029330 0.310620 -0.375437
O20   O     O_3   0.740460 0.970670 0.689380 -0.374214
V1    V     V_3+5 0.251770 0.805510 0.261240 1.446570
V2    V     V_3+5 0.748230 0.194490 0.738760 1.444165
V3    V     V_3+5 0.248230 0.305510 0.238760 1.446664
V4    V     V_3+5 0.751770 0.694490 0.761240 1.444165
C9    C     C_R   0.103312 0.009563 0.074013 -0.039693
C10   C     C_R   0.897070 0.976460 0.925600 -0.042061
C11   C     C_R   0.396688 0.509579 0.425988 -0.039649
C12   C     C_R   0.602930 0.476445 0.574399 -0.042098
C13   C     C_R   0.953878 0.952126 0.083513 -0.187133
C14   C     C_R   0.047447 0.969914 0.916364 -0.185392
C15   C     C_R   0.546116 0.451890 0.416499 -0.187192
C16   C     C_R   0.452556 0.470166 0.583647 -0.185307
C17   C     C_R   0.901501 0.957757 0.022409 -0.167648
C18   C     C_R   0.099406 0.993466 0.977253 -0.176556
C19   C     C_R   0.598494 0.457547 0.477598 -0.167593
C20   C     C_R   0.400597 0.493691 0.522754 -0.176621
C21   C     C_R   0.945661 0.975977 0.889720 -0.234375
C22   C     C_R   0.055102 0.988506 0.109935 -0.233606
C23   C     C_R   0.554341 0.476133 0.610281 -0.234415
C24   C     C_R   0.444893 0.488351 0.390070 -0.233542
C25   C     C_R   0.998489 0.971839 0.950931 0.141059
C26   C     C_R   0.002542 0.970474 0.048831 0.135997
C27   C     C_R   0.501511 0.471945 0.549076 0.141079
C28   C     C_R   0.497454 0.470371 0.451177 0.135957
H1    H     H_    0.058527 0.988803 0.185165 0.113139
H2    H     H_    0.942255 0.979386 0.814496 0.113079
H3    H     H_    0.441466 0.488498 0.314840 0.113106
H4    H     H_    0.557749 0.479695 0.685503 0.113117
H5    H     H_    0.136583 0.997342 0.948912 0.140030
H6    H     H_    0.864414 0.946986 0.050705 0.139936
H7    H     H_    0.363424 0.497703 0.551099 0.140030
H8    H     H_    0.635579 0.446652 0.449305 0.139897
H9    H     H_    0.956290 0.934407 0.157788 0.116109
H10   H     H_    0.045466 0.951974 0.842280 0.117292
H11   H     H_    0.543701 0.434055 0.342230 0.116114
H12   H     H_    0.454538 0.452353 0.657738 0.117297
C29   C     C_R   0.663355 0.995507 0.949424 -0.193111
C30   C     C_R   0.337832 0.029953 0.051896 -0.192272
C31   C     C_R   0.836651 0.495519 0.550585 -0.193123
C32   C     C_R   0.162176 0.529933 0.448117 -0.192236
C33   C     C_R   0.662219 0.084589 0.110696 0.353725
C34   C     C_R   0.341553 0.116466 0.891494 0.351849
C35   C     C_R   0.837799 0.584794 0.389344 0.353715
C36   C     C_R   0.158466 0.616124 0.608569 0.351889
C37   C     C_R   0.691801 0.022261 0.043765 0.250655
C38   C     C_R   0.310529 0.060310 0.957370 0.252128
C39   C     C_R   0.808210 0.522390 0.456250 0.250669
C40   C     C_R   0.189486 0.560103 0.542663 0.252203
C41   C     C_R   0.605096 0.027243 0.922313 -0.101074
C42   C     C_R   0.396562 0.048559 0.080163 -0.103168
C43   C     C_R   0.894912 0.527202 0.577713 -0.101078
C44   C     C_R   0.103448 0.548598 0.419864 -0.103148
C45   C     C_R   0.575677 0.100755 0.988735 -0.033455
C46   C     C_R   0.427836 0.115002 0.014718 -0.033749
C47   C     C_R   0.924341 0.600769 0.511318 -0.033454
C48   C     C_R   0.072184 0.614963 0.485339 -0.033754
C49   C     C_R   0.604629 0.121518 0.083496 0.017927
C50   C     C_R   0.399610 0.142648 0.919883 0.018321
C51   C     C_R   0.895392 0.621666 0.416562 0.017914
C52   C     C_R   0.100414 0.642427 0.580187 0.018299
C53   C     C_R   0.517235 0.143698 0.966135 0.090687
C54   C     C_R   0.487045 0.145557 0.038095 0.088648
C55   C     C_R   0.982788 0.643648 0.533935 0.090683
C56   C     C_R   0.012978 0.645593 0.461975 0.088654
C57   C     C_R   0.517193 0.189111 0.128729 -0.209217
C58   C     C_R   0.488167 0.195768 0.876147 -0.206540
C59   C     C_R   0.982835 0.689288 0.371357 -0.209202
C60   C     C_R   0.011864 0.695574 0.623944 -0.206558
C61   C     C_R   0.575104 0.178872 0.150924 -0.129558
C62   C     C_R   0.430260 0.196363 0.853470 -0.131769
C63   C     C_R   0.924924 0.679101 0.349156 -0.129565
C64   C     C_R   0.069771 0.696074 0.646623 -0.131748
H13   H     H_    0.596278 0.207434 0.222617 0.176937
H14   H     H_    0.409825 0.230591 0.782077 0.175598
H15   H     H_    0.903753 0.707766 0.277473 0.176939
H16   H     H_    0.090212 0.730178 0.718032 0.175589
H17   H     H_    0.496504 0.233549 0.182958 0.140247
H18   H     H_    0.509815 0.237961 0.822775 0.139837
H19   H     H_    0.003530 0.733780 0.317143 0.140246
H20   H     H_    0.990223 0.737729 0.677330 0.139835
C65   C     C_R   0.425327 0.978531 0.174321 0.101801
C66   C     C_R   0.466006 0.839111 0.180499 -0.113873
C67   C     C_R   0.502595 0.802942 0.265897 -0.127258
C68   C     C_R   0.495893 0.892880 0.347477 -0.085988
C69   C     C_R   0.452791 0.020769 0.343402 -0.124819
C70   C     C_R   0.418435 0.066985 0.256972 -0.147416
H21   H     H_    0.472484 0.770323 0.117782 0.117055
H22   H     H_    0.536956 0.708620 0.267887 0.122391
H23   H     H_    0.524185 0.864120 0.413768 0.127115
H24   H     H_    0.447496 0.089479 0.406737 0.128888
H25   H     H_    0.388797 0.178505 0.254075 0.125977
C71   C     C_R   0.574137 0.960851 0.828744 0.098712
C72   C     C_R   0.531402 0.829167 0.824218 -0.112762
C73   C     C_R   0.492688 0.800278 0.740291 -0.124209
C74   C     C_R   0.499077 0.889102 0.658226 -0.084320
C75   C     C_R   0.543934 0.008929 0.660422 -0.129170
C76   C     C_R   0.580553 0.048475 0.745633 -0.151037
H26   H     H_    0.525075 0.762001 0.887442 0.116540
H27   H     H_    0.456816 0.713516 0.740043 0.121695
H28   H     H_    0.469011 0.866787 0.593112 0.128048
H29   H     H_    0.548751 0.077652 0.596814 0.128954
H30   H     H_    0.611193 0.156245 0.747533 0.132439
C77   C     C_R   0.074668 0.478657 0.325692 0.101798
C78   C     C_R   0.033972 0.339281 0.319494 -0.113892
C79   C     C_R   0.997377 0.303186 0.234092 -0.127265
C80   C     C_R   0.004093 0.393122 0.152522 -0.085984
C81   C     C_R   0.047210 0.520970 0.156615 -0.124809
C82   C     C_R   0.081567 0.567139 0.243053 -0.147430
H31   H     H_    0.027486 0.270475 0.382200 0.117055
H32   H     H_    0.963000 0.208926 0.232094 0.122385
H33   H     H_    0.975801 0.364400 0.086226 0.127083
H34   H     H_    0.052515 0.589685 0.093288 0.128916
H35   H     H_    0.111213 0.678641 0.245965 0.126018
C83   C     C_R   0.925855 0.460736 0.671275 0.098720
C84   C     C_R   0.968573 0.328995 0.675790 -0.112748
C85   C     C_R   0.007277 0.300024 0.759721 -0.124186
C86   C     C_R   0.000897 0.388851 0.841791 -0.084317
C87   C     C_R   0.956056 0.508738 0.839603 -0.129180
C88   C     C_R   0.919444 0.548341 0.754394 -0.151030
H36   H     H_    0.974894 0.261839 0.612560 0.116541
H37   H     H_    0.043133 0.213195 0.759966 0.121700
H38   H     H_    0.030958 0.366488 0.906906 0.128075
H39   H     H_    0.951246 0.577459 0.903217 0.128930
H40   H     H_    0.888815 0.656140 0.752502 0.132419
O21   O     O_3   0.253375 0.040262 0.927442 -0.648929
H41   H     H_    0.238595 0.964979 0.973235 0.277602
O22   O     O_3   0.748619 0.992357 0.072778 -0.649667
H42   H     H_    0.762290 0.917376 0.025718 0.280424
O23   O     O_3   0.246638 0.539963 0.572598 -0.648905
H43   H     H_    0.261451 0.465212 0.526652 0.277574
O24   O     O_3   0.751390 0.492538 0.427225 -0.649650
H44   H     H_    0.737717 0.417461 0.474251 0.280409
O25   O     O_3   0.688389 0.110243 0.203895 -0.640076
H45   H     H_    0.728310 0.076660 0.214327 0.350277
O26   O     O_3   0.316347 0.146614 0.798208 -0.641080
H46   H     H_    0.275880 0.120911 0.787005 0.349467
O27   O     O_3   0.811633 0.610578 0.296152 -0.640073
H47   H     H_    0.771706 0.577044 0.285706 0.350268
O28   O     O_3   0.183672 0.646040 0.701879 -0.641090
H48   H     H_    0.224132 0.620192 0.713090 0.349468

loop_
_geom_bond_atom_site_label_1
_geom_bond_atom_site_label_2
_ccdc_geom_bond_type
O17   V3    S    
C24   H3    S    
C63   H15   S    
O1    C5    A    
O23   H43   S    
O19   V1    S    
O13   V1    S    
O3    C7    A    
O26   H46   S    
C80   H33   S    
C64   H16   S    
C44   C48   A    
C41   C71   S    
O15   V3    S    
C34   O26   S    
O25   H45   S    
O4    V2    S    
C74   C75   A    
C14   C25   A    
C2    C31   S    
O7    C3    A    
O27   H47   S    
C9    C18   A    
O9    V1    S    
C33   O25   S    
C17   H6    S    
C14   C18   A    
C68   H23   S    
O4    C8    A    
C59   C63   A    
C43   C83   S    
C58   C62   A    
C20   H7    S    
C84   C85   A    
C30   C38   A    
C60   C64   A    
O1    V3    S    
C29   C37   A    
C12   C23   A    
O2    V4    S    
C73   H27   S    
O3    V1    S    
C66   C67   A    
C57   H17   S    
C55   C60   A    
C69   C70   A    
C76   H30   S    
C1    O15   A    
C58   H18   S    
C67   C68   A    
C2    O16   A    
C78   C79   A    
C7    C9    S    
C34   C38   A    
C33   C37   A    
C67   H22   S    
O14   V2    S    
C21   C25   A    
C16   C20   A    
C51   C63   A    
C70   H25   S    
C3    C30   S    
C36   C40   A    
C45   C53   A    
O11   C7    A    
C15   C28   A    
C60   H20   S    
C79   H32   S    
O12   C8    A    
C44   C77   S    
C9    C22   A    
C81   H34   S    
C10   C17   A    
O10   V2    S    
C11   C24   A    
C18   H5    S    
C68   C69   A    
C36   C52   A    
C86   C87   A    
O5    V1    S    
C84   H36   S    
C30   C42   A    
C40   O23   S    
O7    V3    S    
C27   C28   A    
O8    V4    S    
C48   C52   A    
C81   C82   A    
C31   C43   A    
C77   C82   A    
O28   H48   S    
C71   C76   A    
C15   C19   A    
C78   H31   S    
C46   C50   A    
C56   C59   A    
C8    C10   S    
C69   H24   S    
C38   O21   S    
O5    C1    A    
C82   H35   S    
C29   C41   A    
C42   C46   A    
C13   H9    S    
O24   H44   S    
C41   C45   A    
O8    C4    A    
C37   O22   S    
O9    C5    A    
C10   C21   A    
C11   C20   A    
C72   C73   A    
C52   C64   A    
C59   H19   S    
C65   C70   A    
C35   C51   A    
C19   H8    S    
O6    V2    S    
C21   H2    S    
C79   C80   A    
C36   O28   S    
C31   C39   A    
C32   C44   A    
C34   C50   A    
C57   C61   A    
C55   C56   A    
C33   C49   A    
C71   C72   A    
C54   C57   A    
C87   C88   A    
O16   V4    S    
C39   O24   S    
C3    O13   A    
C85   H37   S    
C83   C88   A    
C6    C12   S    
C86   H38   S    
C85   C86   A    
C46   C54   A    
C47   C51   A    
C53   C58   A    
C23   C27   A    
O11   V3    S    
C80   C81   A    
C5    C11   S    
C32   C40   A    
C16   C27   A    
C15   H11   S    
C4    C29   S    
C22   C26   A    
C16   H12   S    
O10   C6    A    
O20   V2    S    
C88   H40   S    
C73   C74   A    
C1    C32   S    
C72   H26   S    
C62   H14   S    
O2    C6    A    
C35   C39   A    
C13   C26   A    
C74   H28   S    
O12   V4    S    
C47   C55   A    
C22   H1    S    
C75   H29   S    
C42   C65   S    
C13   C17   A    
C50   C62   A    
C45   C49   A    
C49   C61   A    
O6    C2    A    
C87   H39   S    
C43   C47   A    
C24   C28   A    
C25   C26   A    
C35   O27   S    
C4    O14   A    
O22   H42   S    
C83   C84   A    
C23   H4    S    
C12   C19   A    
C48   C56   A    
C14   H10   S    
C53   C54   A    
C65   C66   A    
C66   H21   S    
O18   V4    S    
C61   H13   S    
C77   C78   A    
C75   C76   A    
O21   H41   S    
