data_mof_unit_1184.cif
_audit_creation_date              2012-12-10T21:00:51-0500
_audit_creation_method            fapswitch 2.2
_symmetry_space_group_name_H-M    P1
_symmetry_Int_Tables_number       1
_space_group_crystal_system       triclinic
_cell_length_a                    18.164027
_cell_length_b                    18.20337
_cell_length_c                    18.349271
_cell_angle_alpha                 120.287044
_cell_angle_beta                  89.689576
_cell_angle_gamma                 119.903696
_cell_volume                      4289.23741706

loop_
_atom_site_label
_atom_site_type_symbol
_atom_type_description
_atom_site_fract_x
_atom_site_fract_y
_atom_site_fract_z
_atom_type_partial_charge
C1    C     C_R   0.110516 0.220360 0.609423 0.828438
C2    C     C_R   0.889475 0.779640 0.390577 0.828449
C3    C     C_3   0.983809 0.430234 0.412929 -0.232164
C4    C     C_3   0.016191 0.569766 0.587071 -0.232163
C5    C     C_3   0.413117 0.964724 0.971894 -0.275430
C6    C     C_3   0.586884 0.035276 0.028106 -0.275425
C7    C     C_3   0.492677 0.035382 0.955458 0.493247
C8    C     C_3   0.507324 0.964617 0.044541 0.493246
C9    C     C_3   0.550886 0.103219 0.053075 -0.081489
C10   C     C_3   0.449115 0.896781 0.946925 -0.081493
C11   C     C_3   0.472369 0.033203 0.071417 -0.250764
C12   C     C_3   0.527632 0.966797 0.928582 -0.250762
C13   C     C_3   0.435053 0.504323 0.470171 -0.314262
C14   C     C_3   0.564947 0.495679 0.529829 -0.314267
C15   C     C_3   0.448334 0.415735 0.414890 -0.265711
C16   C     C_3   0.551666 0.584267 0.585111 -0.265724
C17   C     C_3   0.550671 0.498480 0.448670 -0.031071
C18   C     C_3   0.449329 0.501522 0.551331 -0.031069
C19   C     C_3   0.537241 0.584808 0.502962 0.500905
C20   C     C_3   0.462759 0.415194 0.497038 0.500907
C21   C     C_R   0.327574 0.199438 0.680971 -0.104128
C22   C     C_R   0.672446 0.800673 0.318955 -0.104072
C23   C     C_R   0.392495 0.780888 0.888362 0.818046
C24   C     C_R   0.607505 0.219112 0.111638 0.818047
C25   C     C_R   0.245467 0.144180 0.617167 -0.235225
C26   C     C_R   0.754526 0.855894 0.382781 -0.235291
C27   C     C_R   0.165853 0.112661 0.638506 0.004666
C28   C     C_R   0.834155 0.887342 0.361461 0.004658
C29   C     C_R   0.169334 0.137835 0.726037 0.531691
C30   C     C_R   0.830715 0.862134 0.273925 0.531736
C31   C     C_R   0.252741 0.194694 0.789505 -0.130586
C32   C     C_R   0.747333 0.805305 0.210432 -0.130570
C33   C     C_R   0.331387 0.225107 0.767157 -0.200082
C34   C     C_R   0.668673 0.774962 0.232762 -0.200038
C35   C     C_R   0.026588 0.945204 0.513682 0.133065
C36   C     C_R   0.973397 0.054797 0.486320 0.133110
C37   C     C_R   0.946201 0.892177 0.446636 -0.097263
C38   C     C_R   0.053784 0.107823 0.553365 -0.097231
C39   C     C_R   0.919755 0.945920 0.432110 -0.064571
C40   C     C_R   0.080231 0.054080 0.567887 -0.064566
C41   C     C_R   0.616870 0.512548 0.747629 -0.233480
C42   C     C_R   0.383134 0.487429 0.252358 -0.233479
C43   C     C_R   0.577186 0.485436 0.803926 0.454313
C44   C     C_R   0.422826 0.514552 0.196068 0.454395
C45   C     C_R   0.112276 0.502020 0.890988 0.790004
C46   C     C_R   0.887724 0.497980 0.109011 0.790005
C47   C     C_R   0.576473 0.559943 0.883517 0.094537
C48   C     C_R   0.423528 0.440044 0.116468 0.094534
C49   C     C_R   0.619773 0.662967 0.908011 0.197684
C50   C     C_R   0.380221 0.337015 0.091964 0.197658
C51   C     C_R   0.658912 0.687711 0.850642 -0.134977
C52   C     C_R   0.341077 0.312262 0.149327 -0.134967
C53   C     C_R   0.657428 0.613041 0.771148 -0.212954
C54   C     C_R   0.342564 0.386929 0.228825 -0.212969
C55   C     C_R   0.587334 0.527103 0.997646 0.413720
C56   C     C_R   0.412668 0.472891 0.002347 0.413699
C57   C     C_R   0.550309 0.497189 0.053365 -0.188332
C58   C     C_R   0.449694 0.502807 0.946628 -0.188381
C59   C     C_R   0.462721 0.468871 0.055679 -0.132377
C60   C     C_R   0.537282 0.531123 0.944312 -0.132416
C61   C     C_R   0.272670 0.846900 0.078434 -0.112814
C62   C     C_R   0.727331 0.153099 0.921565 -0.112813
C63   C     C_R   0.213695 0.747371 0.057845 -0.116290
C64   C     C_R   0.786306 0.252628 0.942154 -0.116292
C65   C     C_R   0.120586 0.694315 0.021522 0.135004
C66   C     C_R   0.879415 0.305685 0.978478 0.135006
C67   C     C_R   0.392235 0.500377 0.607859 0.854803
C68   C     C_R   0.607765 0.499623 0.392141 0.854807
C69   C     C_R   0.087435 0.741894 0.005643 -0.130477
C70   C     C_R   0.912566 0.258109 0.994360 -0.130485
C71   C     C_R   0.146720 0.841211 0.025851 -0.125207
C72   C     C_R   0.853281 0.158792 0.974153 -0.125213
C73   C     C_R   0.239193 0.893968 0.062808 -0.128145
C74   C     C_R   0.760809 0.106033 0.937194 -0.128146
C75   C     C_R   0.999551 0.587106 0.056470 -0.234460
C76   C     C_R   0.000449 0.412894 0.943530 -0.234464
C77   C     C_R   0.942776 0.495992 0.051082 -0.049885
C78   C     C_R   0.057224 0.504008 0.948918 -0.049882
C79   C     C_R   0.942496 0.407288 0.993363 -0.007255
C80   C     C_R   0.057504 0.592712 0.006637 -0.007257
C81   C     C_R   0.393866 0.500220 0.888838 0.913626
C82   C     C_R   0.606135 0.499778 0.111159 0.913636
C83   C     C_R   0.108972 0.500211 0.607842 0.823090
C84   C     C_R   0.891028 0.499789 0.392158 0.823088
C85   C     C_3   0.077484 0.526135 0.483309 0.192757
C86   C     C_3   0.922516 0.473865 0.516691 0.192760
C87   C     C_3   0.041922 0.594477 0.517775 0.186232
C88   C     C_3   0.958078 0.405523 0.482225 0.186238
C89   C     C_3   0.948542 0.499482 0.448616 -0.056977
C90   C     C_3   0.051458 0.500518 0.551384 -0.056977
H1    H     H_    0.395278 0.268577 0.816779 0.191477
H2    H     H_    0.604801 0.731515 0.183124 0.191345
H3    H     H_    0.388064 0.221926 0.663046 0.182660
H4    H     H_    0.611946 0.778253 0.336867 0.182649
H5    H     H_    0.243705 0.125343 0.550696 0.171970
H6    H     H_    0.756255 0.874765 0.449257 0.171977
H7    H     H_    0.256531 0.215569 0.856684 0.159252
H8    H     H_    0.743576 0.784404 0.143249 0.159260
H9    H     H_    0.689014 0.633589 0.728147 0.160707
H10   H     H_    0.310973 0.366374 0.271821 0.160708
H11   H     H_    0.617568 0.456191 0.686067 0.142800
H12   H     H_    0.382441 0.543786 0.313925 0.142807
H13   H     H_    0.691468 0.765671 0.868042 0.143304
H14   H     H_    0.308516 0.234298 0.131918 0.143308
H15   H     H_    0.284689 0.971538 0.079759 0.123075
H16   H     H_    0.715313 0.028463 0.920244 0.123074
H17   H     H_    0.344162 0.887865 0.107584 0.172017
H18   H     H_    0.655839 0.112133 0.892414 0.172018
H19   H     H_    0.240319 0.712485 0.071753 0.121762
H20   H     H_    0.759681 0.287512 0.928244 0.121765
H21   H     H_    0.015754 0.702368 0.978332 0.137371
H22   H     H_    0.984247 0.297635 0.021673 0.137369
H23   H     H_    0.120913 0.877762 0.013819 0.134991
H24   H     H_    0.879089 0.122242 0.986187 0.134989
H25   H     H_    0.001189 0.655899 0.102331 0.173367
H26   H     H_    0.998811 0.344101 0.897669 0.173357
H27   H     H_    0.970459 0.373133 0.341584 0.169644
H28   H     H_    0.029541 0.626867 0.658416 0.169646
H29   H     H_    0.342372 0.936129 0.946873 0.169913
H30   H     H_    0.657628 0.063871 0.053127 0.169913
H31   H     H_    0.451835 0.061560 0.131395 0.147207
H32   H     H_    0.548165 0.938439 0.868605 0.147207
H33   H     H_    0.407423 0.345236 0.345504 0.164563
H34   H     H_    0.592576 0.654766 0.654497 0.164560
H35   H     H_    0.382730 0.510200 0.447847 0.153702
H36   H     H_    0.617271 0.489804 0.552155 0.153700
O1    O     O_3   0.251620 0.500000 0.748430 -0.499549
O2    O     O_3   0.748380 0.500000 0.251570 -0.499553
O3    O     O_R   0.134680 0.560740 0.864590 -0.637512
O4    O     O_R   0.865320 0.439260 0.135410 -0.637513
O5    O     O_R   0.306670 0.439270 0.571150 -0.630318
O6    O     O_R   0.693330 0.560730 0.428850 -0.630320
O7    O     O_R   0.135450 0.268370 0.694460 -0.638277
O8    O     O_R   0.864550 0.731630 0.305540 -0.638285
O9    O     O_R   0.429670 0.731610 0.863510 -0.656291
O10   O     O_R   0.570330 0.268390 0.136490 -0.656286
O11   O     O_R   0.134680 0.268390 0.572240 -0.635480
O12   O     O_R   0.865320 0.731610 0.427760 -0.635473
O13   O     O_R   0.306670 0.731630 0.863510 -0.630805
O14   O     O_R   0.693330 0.268370 0.136490 -0.630807
O15   O     O_R   0.135450 0.439270 0.865360 -0.627962
O16   O     O_R   0.864550 0.560730 0.134640 -0.627949
O17   O     O_R   0.429670 0.560710 0.692610 -0.649073
O18   O     O_R   0.570330 0.439290 0.307390 -0.649070
O19   O     O_R   0.308540 0.439240 0.865360 -0.581107
O20   O     O_R   0.691460 0.560760 0.134640 -0.581120
O21   O     O_R   0.133580 0.439310 0.571150 -0.642275
O22   O     O_R   0.866420 0.560690 0.428850 -0.642275
O23   O     O_R   0.430770 0.560690 0.864590 -0.656134
O24   O     O_R   0.569230 0.439310 0.135410 -0.656138
O25   O     O_R   0.133580 0.560760 0.692610 -0.648660
O26   O     O_R   0.866420 0.439240 0.307390 -0.648660
Zn1   Zn    Zn3+2 0.207400 0.586780 0.791530 0.975560
Zn2   Zn    Zn3+2 0.792600 0.413220 0.208470 0.975560
Zn3   Zn    Zn3+2 0.208510 0.413230 0.792630 1.019236
Zn4   Zn    Zn3+2 0.791490 0.586770 0.207370 1.019249
Zn5   Zn    Zn3+2 0.383150 0.586740 0.791530 0.968288
Zn6   Zn    Zn3+2 0.616850 0.413260 0.208470 0.968300
Zn7   Zn    Zn3+2 0.207400 0.413250 0.618010 0.973016
Zn8   Zn    Zn3+2 0.792600 0.586750 0.381990 0.973024
C91   C     C_3   0.089492 0.702221 0.537929 -0.895831
H37   H     H_    0.156775 0.754553 0.589048 0.250996
H38   H     H_    0.097382 0.697637 0.476045 0.235568
H39   H     H_    0.049236 0.733798 0.563744 0.251808
C92   C     C_3   0.910508 0.297780 0.462071 -0.895847
H40   H     H_    0.843225 0.245447 0.410952 0.250995
H41   H     H_    0.950764 0.266202 0.436255 0.251807
H42   H     H_    0.902618 0.302362 0.523955 0.235569
O27   O     O_3   0.094324 0.110172 0.752779 -0.771981
H43   H     H_    0.040033 0.071305 0.702610 0.340185
O28   O     O_3   0.905742 0.889736 0.247202 -0.771964
H44   H     H_    0.960013 0.928574 0.297381 0.340173
C93   C     C_3   0.055197 0.884902 0.524942 -0.850843
H45   H     H_    0.125017 0.933660 0.569798 0.240819
H46   H     H_    0.010416 0.845858 0.553330 0.259950
H47   H     H_    0.051489 0.825848 0.459309 0.218254
C94   C     C_3   0.944796 0.115104 0.475058 -0.850877
H48   H     H_    0.874975 0.066350 0.430207 0.240832
H49   H     H_    0.948514 0.174168 0.540692 0.218248
H50   H     H_    0.989577 0.154138 0.446663 0.259947
O29   O     O_3   0.541482 0.388085 0.784295 -0.790605
H51   H     H_    0.551255 0.347265 0.728945 0.324807
O30   O     O_3   0.458554 0.611915 0.215717 -0.790565
H52   H     H_    0.448790 0.652737 0.271074 0.324791
C95   C     C_3   0.625651 0.748296 0.993769 -0.903518
H53   H     H_    0.593351 0.722410 0.035256 0.236778
H54   H     H_    0.697327 0.813134 0.033996 0.228726
H55   H     H_    0.592098 0.777811 0.977884 0.254055
C96   C     C_3   0.374347 0.251693 0.006202 -0.903520
H56   H     H_    0.406649 0.277587 0.964720 0.236779
H57   H     H_    0.407903 0.222178 0.022083 0.254049
H58   H     H_    0.302672 0.186854 0.965974 0.228750
C97   C     C_3   0.166097 0.556091 0.464614 -0.908508
H59   H     H_    0.166656 0.571294 0.413094 0.246976
H60   H     H_    0.222673 0.627180 0.526882 0.236255
H61   H     H_    0.174151 0.491814 0.440048 0.249168
C98   C     C_3   0.833903 0.443909 0.535386 -0.908510
H62   H     H_    0.833344 0.428706 0.586905 0.246975
H63   H     H_    0.825849 0.508187 0.559952 0.249169
H64   H     H_    0.777327 0.372820 0.473118 0.236253
O31   O     O_3   0.671122 0.547141 0.993767 -0.720131
H65   H     H_    0.700924 0.596373 0.977192 0.332626
O32   O     O_3   0.328881 0.452852 0.006226 -0.720131
H66   H     H_    0.299075 0.403607 0.022788 0.332630
O33   O     O_3   0.485991 0.073374 0.907776 -0.780974
H67   H     H_    0.458337 0.110781 0.938047 0.327628
O34   O     O_3   0.514010 0.926625 0.092222 -0.780978
H68   H     H_    0.541658 0.889211 0.061947 0.327629
O35   O     O_3   0.578364 0.674046 0.504081 -0.775404
H69   H     H_    0.556534 0.714759 0.543770 0.321315
O36   O     O_3   0.421636 0.325956 0.495919 -0.775429
H70   H     H_    0.443472 0.285247 0.456236 0.321313

loop_
_geom_bond_atom_site_label_1
_geom_bond_atom_site_label_2
_ccdc_geom_bond_type
C30   C32   A    
O32   H66   S    
C63   C65   A    
C45   O3    A    
C92   H40   S    
O9    Zn5   S    
C27   C29   A    
C41   C43   A    
O27   H43   S    
C76   C79   A    
C7    O33   S    
O21   Zn7   S    
O1    Zn1   S    
C6    C9    S    
C91   H37   S    
O2    Zn6   S    
C46   O16   A    
C56   O32   S    
O33   H67   S    
C53   H9    S    
C66   C79   S    
O6    Zn8   S    
C15   H33   S    
C13   C18   S    
C5    H29   S    
C23   O13   A    
C35   C37   A    
C76   C78   A    
C5    C11   S    
C16   C19   S    
C6    C12   S    
C10   C12   S    
C94   H50   S    
C86   C88   S    
C57   C59   A    
C21   C33   A    
O13   Zn1   S    
C58   C60   A    
C55   O31   S    
C72   H24   S    
C65   C69   A    
C71   H23   S    
C18   C20   S    
C96   H57   S    
O22   Zn8   S    
C20   O36   S    
C68   O6    A    
C50   C96   S    
C62   C64   A    
C3    H27   S    
C82   O20   A    
C47   C60   S    
C64   H20   S    
O8    Zn4   S    
C96   H58   S    
C41   H11   S    
C97   H60   S    
C50   C52   A    
C31   C33   A    
C45   C78   S    
C75   C80   A    
O1    Zn5   S    
C4    C90   S    
O2    Zn2   S    
C13   H35   S    
C24   O10   A    
C48   C50   A    
C67   O17   A    
C92   H41   S    
C65   C80   S    
C19   O35   S    
C55   C60   A    
O23   Zn5   S    
O25   Zn1   S    
C45   O15   A    
C22   H4    S    
C14   C17   S    
C54   H10   S    
C11   H31   S    
C42   C44   A    
C1    O7    A    
C42   H12   S    
C6    H30   S    
C91   H39   S    
C91   H38   S    
C52   C54   A    
O17   Zn5   S    
C83   O25   A    
C84   O22   A    
C26   H6    S    
C7    C12   S    
C22   C34   A    
C69   C71   A    
O11   Zn7   S    
C85   C87   S    
O34   H68   S    
C2    O12   A    
C14   C20   S    
C12   H32   S    
C72   C74   A    
C51   H13   S    
O1    Zn3   S    
C88   C92   S    
C5    C7    S    
C13   C19   S    
O15   Zn3   S    
C95   H55   S    
C6    C8    S    
C28   C39   S    
C94   H49   S    
C18   C67   S    
O29   H51   S    
C43   O29   S    
C24   O14   A    
C49   C51   A    
C4    C87   S    
C15   C20   S    
C51   C53   A    
C32   C34   A    
C63   H19   S    
C98   H64   S    
O30   H52   S    
C74   H16   S    
C9    C11   S    
C73   H15   S    
O36   H70   S    
C44   O30   S    
C13   C15   S    
C27   C40   S    
C8    O34   S    
C61   C63   A    
O35   H69   S    
C77   C79   A    
C49   C95   S    
O4    Zn2   S    
C2    O8    A    
O5    Zn7   S    
C75   C77   A    
O28   H44   S    
C41   C53   A    
C82   O24   A    
C93   H46   S    
C70   H22   S    
C1    C38   S    
C83   O21   A    
C84   O26   A    
C16   C18   S    
C87   C91   S    
O26   Zn2   S    
C94   H48   S    
C92   H42   S    
C81   O19   A    
C55   C57   A    
C14   C16   S    
C3    C85   S    
C58   C81   S    
C75   H25   S    
C84   C89   S    
O18   Zn6   S    
C36   C38   A    
O1    Zn7   S    
C4    C86   S    
C1    O11   A    
O2    Zn8   S    
C48   C59   S    
C71   C73   A    
C93   H47   S    
C96   H56   S    
C7    C9    S    
C83   C90   S    
C21   C25   A    
C52   H14   S    
C17   C68   S    
O24   Zn6   S    
C3    C88   S    
O7    Zn3   S    
C36   C39   A    
C67   O5    A    
C36   C94   S    
C88   C90   S    
C86   C89   S    
C46   O4    A    
C46   C77   S    
C85   C90   S    
C56   C59   A    
C9    C24   S    
C25   H5    S    
C10   C23   S    
C25   C27   A    
C35   C93   S    
C26   C28   A    
C21   H3    S    
C14   H36   S    
O31   H65   S    
C23   O9    A    
C3    C89   S    
C61   C73   A    
C98   H63   S    
C35   C40   A    
C16   H34   S    
O10   Zn6   S    
C5    C10   S    
C29   C31   A    
C47   C49   A    
C42   C54   A    
C97   H61   S    
O3    Zn1   S    
C69   H21   S    
C2    C37   S    
C85   C97   S    
C95   H53   S    
C66   C70   A    
C38   C40   A    
C32   H8    S    
C8    C11   S    
C81   O23   A    
C28   C30   A    
C76   H26   S    
C56   C58   A    
C29   O27   S    
C68   O18   A    
C78   C80   A    
C31   H7    S    
C98   H62   S    
C61   H17   S    
C34   H2    S    
C30   O28   S    
C95   H54   S    
O2    Zn4   S    
C86   C98   S    
C93   H45   S    
O19   Zn3   S    
C17   C19   S    
O12   Zn8   S    
C37   C39   A    
C62   H18   S    
C8    C10   S    
C97   H59   S    
C22   C26   A    
O14   Zn2   S    
C87   C89   S    
C57   C82   S    
C62   C74   A    
C70   C72   A    
O20   Zn4   S    
O16   Zn4   S    
C15   C17   S    
C43   C47   A    
C44   C48   A    
C64   C66   A    
C4    H28   S    
C33   H1    S    
