data_mof_unit_2497.cif
_audit_creation_date              2012-10-26T19:04:01-0400
_audit_creation_method            fapswitch 2.2
_symmetry_space_group_name_H-M    P1
_symmetry_Int_Tables_number       1
_space_group_crystal_system       triclinic
_cell_length_a                    15.950257
_cell_length_b                    13.061891
_cell_length_c                    11.767196
_cell_angle_alpha                 100.572775
_cell_angle_beta                  91.974833
_cell_angle_gamma                 92.179661
_cell_volume                      2406.07487907

loop_
_atom_site_label
_atom_site_type_symbol
_atom_type_description
_atom_site_fract_x
_atom_site_fract_y
_atom_site_fract_z
_atom_type_partial_charge
C1    C     C_R   0.495133 0.299631 0.478134 0.563349
C2    C     C_R   0.484137 0.186840 0.465828 0.041430
C3    C     C_R   0.423178 0.019795 0.370322 -0.129663
C4    C     C_R   0.340580 0.499403 0.501848 0.537258
C5    C     C_R   0.434784 0.126805 0.374689 0.085120
C6    C     C_R   0.518458 0.140273 0.553041 -0.165691
C7    C     C_R   0.507030 0.033334 0.549821 0.011384
C8    C     C_R   0.461497 0.970778 0.454818 -0.008851
C9    C     C_R   0.454770 0.861394 0.446910 -0.070439
C10   C     C_R   0.534354 0.880527 0.632236 0.120348
C11   C     C_R   0.539905 0.988366 0.640570 0.096968
C12   C     C_3   0.949337 0.438745 0.619098 0.091854
C13   C     C_R   0.416618 0.403700 0.024495 0.051947
C14   C     C_R   0.424262 0.415383 0.146710 0.056821
C15   C     C_R   0.538396 0.538672 0.154180 0.140016
C16   C     C_R   0.498485 0.701063 0.521857 0.558083
C17   C     C_R   0.526167 0.539600 0.033051 -0.009980
C18   C     C_R   0.467129 0.468028 0.966983 -0.016319
C19   C     C_R   0.461934 0.461300 0.844581 0.009715
C20   C     C_R   0.573071 0.588377 0.852981 0.265080
C21   C     C_R   0.574878 0.606003 0.974772 0.043856
C22   C     C_R   0.659627 0.499924 0.498744 0.549959
C23   C     C_3   0.916844 0.485915 0.507964 0.129712
C24   C     C_3   0.051202 0.440070 0.619873 -0.087053
C25   C     C_3   0.045625 0.414930 0.389156 0.171996
C26   C     C_3   0.943772 0.414514 0.389944 0.248159
C27   C     C_1   0.749018 0.496412 0.498427 -0.029963
C28   C     C_3   0.084056 0.484376 0.509103 0.061089
C29   C     C_R   0.904027 0.330273 0.621279 0.085475
C30   C     C_R   0.821174 0.327728 0.661187 -0.101605
C31   C     C_R   0.777467 0.233955 0.664846 -0.125691
C32   C     C_R   0.814742 0.139487 0.628835 -0.109327
C33   C     C_R   0.895682 0.138846 0.588105 -0.119924
C34   C     C_3   0.956656 0.601730 0.523712 -0.003124
C35   C     C_R   0.939705 0.232551 0.583694 -0.056475
C36   C     C_R   0.406793 0.795231 0.347087 0.042645
C37   C     C_R   0.335236 0.735292 0.365519 -0.060005
C38   C     C_R   0.293237 0.668959 0.272476 -0.084702
C39   C     C_R   0.321357 0.663478 0.160411 -0.095828
C40   C     C_R   0.391246 0.724464 0.140983 -0.112788
C41   C     C_R   0.434296 0.789421 0.233805 -0.103729
C42   C     C_R   0.095411 0.354138 0.672953 0.020795
C43   C     C_R   0.165533 0.299487 0.627327 -0.078588
C44   C     C_R   0.202087 0.224633 0.681889 -0.109687
C45   C     C_3   0.054675 0.600842 0.529936 -0.001154
C46   C     C_R   0.171030 0.203140 0.784377 -0.099285
C47   C     C_R   0.104415 0.258123 0.833909 -0.112871
C48   C     C_R   0.068548 0.334044 0.780652 -0.098498
C49   C     C_R   0.621850 0.577251 0.207786 0.127670
C50   C     C_R   0.635087 0.678185 0.274347 -0.028080
C51   C     C_R   0.715974 0.724680 0.292741 -0.128274
C52   C     C_R   0.783542 0.673486 0.239618 -0.121853
C53   C     C_R   0.771215 0.573195 0.174298 -0.112467
C54   C     C_R   0.691685 0.523574 0.162535 -0.071937
C55   C     C_R   0.083074 0.449149 0.277413 0.056918
C56   C     C_1   0.824264 0.492152 0.503983 -0.011466
C57   C     C_R   0.136201 0.383915 0.203201 -0.114243
C58   C     C_R   0.162500 0.409192 0.099374 -0.120380
C59   C     C_R   0.137763 0.499822 0.064881 -0.116638
C60   C     C_R   0.088584 0.567313 0.136113 -0.146186
C61   C     C_R   0.062375 0.542940 0.240401 -0.094988
C62   C     C_1   0.176367 0.489851 0.509230 -0.069681
C63   C     C_1   0.251537 0.495166 0.506156 -0.055867
C64   C     C_R   0.494706 0.815784 0.534470 -0.010108
Cu1   Cu    Cu3+1 0.506190 0.507730 0.615930 0.968437
Cu2   Cu    Cu3+1 0.493810 0.492270 0.384070 0.962534
H1    H     H_    0.073435 0.503223 0.692103 0.090359
H2    H     H_    0.780670 0.066748 0.631436 0.108657
H3    H     H_    0.924119 0.065352 0.558069 0.101157
H4    H     H_    0.999746 0.226447 0.544985 0.173589
H5    H     H_    0.964705 0.574489 0.752876 0.199601
H6    H     H_    0.918669 0.473065 0.795918 0.220081
H7    H     H_    0.858951 0.666168 0.447479 0.232563
H8    H     H_    0.944644 0.741057 0.466904 0.222319
H9    H     H_    0.313296 0.738350 0.452099 0.082511
H10   H     H_    0.239480 0.621068 0.287525 0.142736
H11   H     H_    0.289499 0.611748 0.088429 0.121364
H12   H     H_    0.383144 0.976603 0.300483 0.118948
H13   H     H_    0.412728 0.720401 0.054091 0.118060
H14   H     H_    0.489209 0.835099 0.217590 0.105698
H15   H     H_    0.636497 0.860042 0.730419 0.234913
H16   H     H_    0.544776 0.865727 0.800169 0.241682
H17   H     H_    0.538645 0.105520 0.780832 0.228062
H18   H     H_    0.634019 0.087960 0.719867 0.219705
H19   H     H_    0.413563 0.139181 0.207547 0.222361
H20   H     H_    0.329155 0.159121 0.290653 0.210193
H21   H     H_    0.195890 0.313676 0.552288 0.114596
H22   H     H_    0.255453 0.183853 0.644870 0.108777
H23   H     H_    0.554854 0.188813 0.623382 0.122111
H24   H     H_    0.199514 0.145215 0.826411 0.103430
H25   H     H_    0.080990 0.242915 0.914726 0.105415
H26   H     H_    0.019272 0.376632 0.824847 0.106128
H27   H     H_    0.692570 0.608396 0.809621 0.203876
H28   H     H_    0.639875 0.718113 0.830622 0.213389
H29   H     H_    0.329448 0.282771 0.014334 0.207594
H30   H     H_    0.394305 0.272377 0.905667 0.220800
H31   H     H_    0.684394 0.692251 0.016113 0.233021
H32   H     H_    0.596590 0.762839 0.016575 0.220018
H33   H     H_    0.583405 0.725744 0.301492 0.131597
H34   H     H_    0.416185 0.408215 0.791903 0.155598
H35   H     H_    0.725331 0.803283 0.341471 0.102669
H36   H     H_    0.845161 0.712315 0.247109 0.122383
H37   H     H_    0.822584 0.535149 0.128727 0.110698
H38   H     H_    0.682985 0.447506 0.107383 0.095135
H39   H     H_    0.157790 0.311020 0.220605 0.087747
H40   H     H_    0.201023 0.356855 0.044191 0.134304
H41   H     H_    0.157270 0.518087 0.983395 0.116829
H42   H     H_    0.069833 0.638697 0.110112 0.105844
H43   H     H_    0.023006 0.597967 0.287798 0.194705
H44   H     H_    0.134842 0.302497 0.393281 0.205952
H45   H     H_    0.383717 0.368907 0.191157 0.145784
H46   H     H_    0.049526 0.256686 0.314168 0.220053
H47   H     H_    0.843161 0.308223 0.392212 0.244531
H48   H     H_    0.914887 0.262960 0.301299 0.225087
H49   H     H_    0.905362 0.525943 0.289437 0.262456
H50   H     H_    0.927093 0.407435 0.210593 0.221885
H51   H     H_    0.081074 0.745901 0.490882 0.219151
H52   H     H_    0.161132 0.670750 0.474777 0.219651
H53   H     H_    0.074214 0.638008 0.620560 0.088200
H54   H     H_    0.937694 0.645447 0.608233 0.128666
H55   H     H_    0.789399 0.398921 0.690415 0.142969
H56   H     H_    0.714413 0.235210 0.695773 0.101621
N1    N     N_R   0.515490 0.519350 0.790130 -0.225956
N2    N     N_3   0.621510 0.695701 0.038171 -0.665295
N3    N     N_3   0.069970 0.306936 0.390530 -0.643209
N4    N     N_3   0.908191 0.307439 0.383717 -0.598973
N5    N     N_3   0.904312 0.447078 0.287990 -0.652772
N6    N     N_3   0.096178 0.668900 0.459962 -0.637853
N7    N     N_R   0.484510 0.480650 0.209890 -0.257133
N8    N     N_3   0.923462 0.510126 0.724881 -0.689892
N9    N     N_3   0.923923 0.663171 0.440699 -0.669154
N10   N     N_3   0.572802 0.836461 0.722493 -0.593024
N11   N     N_3   0.580056 0.050351 0.742876 -0.663173
N12   N     N_3   0.393858 0.174489 0.288694 -0.627856
N13   N     N_3   0.634593 0.639231 0.794307 -0.530518
N14   N     N_3   0.358943 0.325727 0.959162 -0.660530
O1    O     O_R   0.504390 0.354460 0.582000 -0.531449
O2    O     O_R   0.493940 0.341410 0.386200 -0.468276
O3    O     O_R   0.384660 0.506540 0.597940 -0.506391
O4    O     O_R   0.374210 0.493480 0.402140 -0.498846
O5    O     O_R   0.506060 0.658590 0.613800 -0.435262
O6    O     O_R   0.495610 0.645540 0.418000 -0.516412
O7    O     O_R   0.625790 0.506520 0.597860 -0.470862
O8    O     O_R   0.615340 0.493460 0.402060 -0.499609

loop_
_geom_bond_atom_site_label_1
_geom_bond_atom_site_label_2
_ccdc_geom_bond_type
C57   H39   S    
H7    N9    S    
C12   C29   S    
C9    C64   A    
C24   C42   S    
C61   H43   S    
C41   H14   S    
H32   N2    S    
C23   C56   S    
H30   N14   S    
C38   H10   S    
C53   C54   A    
C25   C28   S    
C7    C11   A    
C4    C63   S    
C52   H36   S    
C50   H33   S    
C37   C38   A    
C12   N8    S    
C13   C18   A    
C39   H11   S    
C54   H38   S    
C36   C37   A    
C18   C19   A    
H31   N2    S    
Cu1   N1    S    
C11   N11   S    
C30   C31   A    
Cu1   O7    S    
Cu2   O8    S    
C45   N6    S    
C49   C54   A    
H49   N5    S    
C1    C2    S    
C26   N4    S    
C23   C26   S    
C25   N3    S    
C20   N1    A    
C24   H1    S    
H20   N12   S    
C47   C48   A    
C35   H4    S    
C8    C9    A    
H50   N5    S    
C15   N7    A    
C22   O7    A    
C9    C36   S    
C29   C30   A    
C60   H42   S    
C33   H3    S    
H19   N12   S    
C32   H2    S    
Cu2   N7    S    
Cu1   O1    S    
C45   H53   S    
H28   N13   S    
C37   H9    S    
C59   C60   A    
C13   C14   A    
C36   C41   A    
C2    C6    A    
H52   N6    S    
C44   C46   A    
C50   C51   A    
C10   N10   S    
C34   H54   S    
C5    N12   S    
H18   N11   S    
H8    N9    S    
C28   C45   S    
C51   C52   A    
C25   C55   S    
C7    C8    A    
C3    C8    A    
C39   C40   A    
C27   C56   T    
H15   N10   S    
C12   C23   S    
H47   N4    S    
C3    C5    A    
C25   C26   S    
C59   H41   S    
C60   C61   A    
C58   H40   S    
C16   O6    A    
C43   C44   A    
C62   C63   T    
C4    O4    A    
Cu1   O5    S    
C31   C32   A    
Cu2   O2    S    
C30   H55   S    
C23   C34   S    
C19   N1    A    
C17   C18   A    
C40   H13   S    
C34   C45   S    
C42   C48   A    
C14   H45   S    
H46   N3    S    
Cu2   O6    S    
C40   C41   A    
C34   N9    S    
C49   C50   A    
C22   C27   S    
C55   C57   A    
C13   N14   S    
C2    C5    A    
C42   C43   A    
H16   N10   S    
C1    O1    A    
C52   C53   A    
C15   C17   A    
C12   C24   S    
C46   C47   A    
C47   H25   S    
C10   C64   A    
C24   C28   S    
C31   H56   S    
H27   N13   S    
C19   H34   S    
H6    N8    S    
C6    C7    A    
C46   H24   S    
C51   H35   S    
C6    H23   S    
C29   C35   A    
C43   H21   S    
C32   C33   A    
C21   N2    S    
C16   O5    A    
C58   C59   A    
C4    O3    A    
C57   C58   A    
C38   C39   A    
C53   H37   S    
H48   N4    S    
C55   C61   A    
H29   N14   S    
C33   C35   A    
C26   N5    S    
C15   C49   S    
C20   N13   S    
H51   N6    S    
C17   C21   A    
H17   N11   S    
C10   C11   A    
H44   N3    S    
Cu1   O3    S    
Cu2   O4    S    
C20   C21   A    
Cu1   Cu2   S    
C48   H26   S    
C22   O8    A    
C16   C64   S    
C44   H22   S    
C3    H12   S    
C1    O2    A    
H5    N8    S    
C14   N7    A    
C28   C62   S    
