data_mof_unit_736.cif
_audit_creation_date              2012-12-10T20:48:47-0500
_audit_creation_method            fapswitch 2.2
_symmetry_space_group_name_H-M    P1
_symmetry_Int_Tables_number       1
_space_group_crystal_system       triclinic
_cell_length_a                    15.78023
_cell_length_b                    8.924934
_cell_length_c                    8.113916
_cell_angle_alpha                 89.978654
_cell_angle_beta                  90.336485
_cell_angle_gamma                 89.995918
_cell_volume                      1142.72394735

loop_
_atom_site_label
_atom_site_type_symbol
_atom_type_description
_atom_site_fract_x
_atom_site_fract_y
_atom_site_fract_z
_atom_type_partial_charge
C1    C     C_R   0.500009 0.218019 0.500019 0.948895
C2    C     C_3   0.047836 0.369624 0.359061 -0.243286
C3    C     C_3   0.952242 0.436744 0.684063 -0.257963
C4    C     C_3   0.948770 0.360478 0.372704 -0.249680
C5    C     C_1   0.750639 0.492366 0.502307 -0.098381
C6    C     C_1   0.249366 0.492150 0.498398 -0.099869
C7    C     C_3   0.083084 0.473137 0.500846 0.123042
C8    C     C_3   0.916957 0.473561 0.506925 0.129011
C9    C     C_3   0.950970 0.631390 0.459552 -0.416295
C10   C     C_3   0.048530 0.633496 0.466791 -0.405767
C11   C     C_2   0.909279 0.311422 0.780150 0.979974
C12   C     C_1   0.825584 0.483754 0.504846 -0.022001
C13   C     C_2   0.910742 0.204498 0.388006 1.023405
C14   C     C_2   0.090780 0.283006 0.743111 1.041344
C15   C     C_2   0.092513 0.221019 0.327983 1.006082
C16   C     C_1   0.174423 0.483349 0.498417 -0.030175
C17   C     C_R   0.337883 0.499927 0.499512 0.901217
C18   C     C_R   0.662117 0.499943 0.500537 0.900898
C19   C     C_1   0.500013 0.934778 0.499971 -0.170312
C20   C     C_1   0.500014 0.065205 0.500026 -0.163178
C21   C     C_R   0.500006 0.781959 0.499980 0.926480
C22   C     C_3   0.051443 0.426538 0.676754 -0.256908
H1    H     H_    0.060748 0.431278 0.242251 0.144791
H2    H     H_    0.816803 0.064090 0.319088 0.344835
H3    H     H_    0.176738 0.190582 0.897723 0.355434
H4    H     H_    0.101333 0.038616 0.181975 0.342329
H5    H     H_    0.075382 0.514596 0.762813 0.145119
H6    H     H_    0.923513 0.402451 0.252621 0.170081
H7    H     H_    0.937664 0.537101 0.760720 0.123800
H8    H     H_    0.069790 0.712306 0.565120 0.214474
H9    H     H_    0.073492 0.678016 0.348318 0.193251
H10   H     H_    0.925729 0.718597 0.544337 0.214366
H11   H     H_    0.929468 0.662304 0.333017 0.194664
H12   H     H_    0.903451 0.197332 0.994270 0.380657
N1    N     N_1   0.500000 0.500030 0.073640 -0.021180
N2    N     N_1   0.500000 0.500030 0.926360 -0.020827
O1    O     O_R   0.500000 0.285340 0.636850 -0.611034
O2    O     O_R   0.935649 0.283101 0.941930 -0.796028
O3    O     O_2   0.943343 0.109136 0.475825 -0.562430
O4    O     O_R   0.836808 0.170583 0.299853 -0.807928
O5    O     O_2   0.065846 0.160291 0.697391 -0.546066
O6    O     O_R   0.155402 0.292581 0.861322 -0.795492
O7    O     O_2   0.152245 0.179843 0.413179 -0.609933
O8    O     O_R   0.066976 0.134007 0.193251 -0.775732
O9    O     O_R   0.500000 0.285340 0.363150 -0.611360
O10   O     O_R   0.377140 0.500000 0.636930 -0.607149
O11   O     O_R   0.377140 0.500000 0.363070 -0.614422
O12   O     O_R   0.622860 0.500000 0.636930 -0.611378
O13   O     O_R   0.622860 0.500000 0.363070 -0.611116
O14   O     O_R   0.500000 0.714650 0.636900 -0.616655
O15   O     O_R   0.500000 0.714650 0.363100 -0.617487
O16   O     O_2   0.850170 0.240151 0.721829 -0.594590
Zn1   Zn    Zn3+2 0.500000 0.499990 0.682780 1.021807
Zn2   Zn    Zn3+2 0.500000 0.499990 0.317220 1.018664

loop_
_geom_bond_atom_site_label_1
_geom_bond_atom_site_label_2
_ccdc_geom_bond_type
H3    O6    S    
C15   O8    S    
C11   O2    S    
C2    C4    S    
C5    C18   S    
C1    O1    A    
C8    C12   S    
C7    C10   S    
C7    C22   S    
C9    C10   S    
C10   H8    S    
N1    N2    T    
C9    H10   S    
C14   O6    S    
C4    C8    S    
O15   Zn2   S    
O1    Zn1   S    
C14   C22   S    
C15   O7    D    
N1    Zn2   S    
C9    H11   S    
C2    C15   S    
C1    O9    A    
O11   Zn2   S    
H2    O4    S    
O10   Zn1   S    
C7    C16   S    
C19   C21   S    
O9    Zn2   S    
C2    H1    S    
C22   H5    S    
C14   O5    D    
O12   Zn1   S    
C13   O3    D    
O14   Zn1   S    
C3    C11   S    
C11   O16   D    
H4    O8    S    
O13   Zn2   S    
C17   O11   A    
C21   O15   A    
C17   O10   A    
C5    C12   T    
C3    C8    S    
C4    C13   S    
C3    H7    S    
C6    C17   S    
C21   O14   A    
C1    C20   S    
N2    Zn1   S    
C2    C7    S    
C4    H6    S    
H12   O2    S    
C6    C16   T    
C10   H9    S    
C3    C22   S    
C19   C20   T    
C18   O13   A    
C8    C9    S    
C13   O4    S    
C18   O12   A    
