data_mof_unit_3116.cif
_audit_creation_date              2013-03-05T15:43:33-0500
_audit_creation_method            fapswitch 2.2
_symmetry_space_group_name_H-M    P1
_symmetry_Int_Tables_number       1
_space_group_crystal_system       triclinic
_cell_length_a                    10.188219
_cell_length_b                    10.669598
_cell_length_c                    13.229776
_cell_angle_alpha                 91.023643
_cell_angle_beta                  71.245738
_cell_angle_gamma                 92.167726
_cell_volume                      1360.77711201

loop_
_atom_site_label
_atom_site_type_symbol
_atom_site_description
_atom_site_fract_x
_atom_site_fract_y
_atom_site_fract_z
_atom_type_partial_charge
O1    O     O_R   0.386950 0.680940 0.500020 -0.538618
O2    O     O_R   0.613110 0.680900 0.499980 -0.605519
C1    C     C_R   0.501724 0.736885 0.502452 0.907672
O3    O     O_R   0.330780 0.500000 0.653640 -0.539097
O4    O     O_R   0.556930 0.499960 0.653610 -0.612424
C2    C     C_R   0.423139 0.485065 0.702639 0.865871
Zn1   Zn    Zn3+2 0.349000 0.500030 0.500020 1.168730
Zn2   Zn    Zn3+2 0.651000 0.499970 0.499980 1.004134
O5    O     O_R   0.386890 0.319100 0.500020 -0.543590
O6    O     O_R   0.613050 0.319060 0.499980 -0.640065
O7    O     O_R   0.443070 0.500040 0.346390 -0.594642
O8    O     O_R   0.669220 0.500000 0.346360 -0.622431
C3    C     C_R   0.500318 0.262648 0.492992 0.813824
C4    C     C_R   0.576482 0.499751 0.297052 0.859954
C5    C     C_R   0.785411 0.517651 0.005545 -0.068396
H1    H     H_    0.832014 0.557500 0.150285 0.168586
H2    H     H_    0.889743 0.541683 0.956933 0.219308
C6    C     C_R   0.619081 0.492865 0.181276 -0.045885
C7    C     C_R   0.235538 0.443803 0.879978 0.325209
C8    C     C_R   0.196269 0.432829 0.990466 -0.187404
C9    C     C_R   0.295707 0.434869 0.041259 -0.176060
C10   C     C_R   0.438133 0.434682 0.981014 0.085707
C11   C     C_R   0.475753 0.423794 0.869171 -0.049508
C12   C     C_R   0.545590 0.452822 0.026634 0.033553
C13   C     C_R   0.684000 0.476370 0.959894 0.023651
C14   C     C_R   0.717669 0.449176 0.850485 0.271741
C15   C     C_R   0.614525 0.398649 0.812758 -0.116429
C16   C     C_R   0.518105 0.454857 0.136084 -0.165678
C17   C     C_R   0.752994 0.526138 0.116090 -0.218651
C18   C     C_R   0.376962 0.448375 0.817631 -0.218885
H3    H     H_    0.417867 0.424555 0.187811 0.195925
H4    H     H_    0.257095 0.440313 0.127111 0.165517
H5    H     H_    0.087451 0.431465 0.037856 0.161861
C19   C     C_2   0.620336 0.069254 0.452367 -0.253588
C20   C     C_2   0.503546 0.131356 0.465848 0.127042
H6    H     H_    0.716389 0.117327 0.452047 0.205672
C21   C     C_2   0.619417 0.933599 0.449975 -0.100686
C22   C     C_2   0.507102 0.869291 0.509413 -0.214820
H7    H     H_    0.711914 0.886814 0.401743 0.192297
H8    H     H_    0.416873 0.913705 0.563145 0.187665
C23   C     C_2   0.086673 0.413384 0.455314 0.368234
N1    N     N_2   0.148270 0.498670 0.498870 -0.029866
C24   C     C_2   0.946856 0.427472 0.440442 -0.125536
N2    N     N_2   0.852610 0.498640 0.498840 -0.180182
H9    H     H_    0.920809 0.367342 0.382149 0.168191
H10   H     H_    0.871806 0.545235 0.561336 0.254291
N3    N     N_R   0.384255 0.073264 0.445637 0.242569
O9    O     O_R   0.262045 0.080408 0.516749 -0.281894
O10   O     O_R   0.398221 0.010816 0.357579 -0.305067
N4    N     N_R   0.151701 0.296942 0.418861 0.221119
O11   O     O_R   0.075338 0.194027 0.434010 -0.310882
O12   O     O_R   0.272642 0.297440 0.345852 -0.382006
N5    N     N_R   0.105254 0.621157 0.499447 0.265219
O13   O     O_R   0.100828 0.693866 0.580282 -0.242616
O14   O     O_R   0.102510 0.671673 0.411256 -0.375938
N6    N     N_R   0.846779 0.489710 0.775443 0.231777
O15   O     O_R   0.916585 0.412681 0.702240 -0.366832
O16   O     O_R   0.872447 0.609695 0.761983 -0.322762
N7    N     N_R   0.129405 0.451208 0.832991 0.202939
O17   O     O_R   0.038632 0.358781 0.846506 -0.364044
O18   O     O_R   0.104212 0.559938 0.801842 -0.317369
C25   C     C_1   0.648306 0.300081 0.733019 0.327382
N8    N     N_1   0.676323 0.219465 0.670966 -0.148268

loop_
_geom_bond_atom_site_label_1
_geom_bond_atom_site_label_2
_geom_bond_distance
_ccdc_geom_bond_type
O4    Zn2   1.948586 S    
N4    O12   1.298312 A    
C24   N2    1.285551 D    
C5    C17   1.393952 A    
C21   C22   1.334098 D    
C15   C25   1.446259 S    
C11   C15   1.403910 A    
N6    O16   1.300722 A    
C19   C21   1.446909 S    
C24   H9    1.085274 S    
C23   N1    1.313209 D    
C4    C6    1.452841 S    
N3    O9    1.300999 A    
Zn2   O8    1.980497 S    
C20   N3    1.441817 S    
C8    C9    1.383459 A    
N4    O11   1.301608 A    
H1    C17   1.083128 S    
N7    O17   1.300285 A    
N3    O10   1.301624 A    
C6    C17   1.396032 A    
O1    Zn1   1.954188 S    
C9    C10   1.413264 A    
N6    O15   1.300799 A    
Zn1   O7    1.948586 S    
C23   C24   1.512596 S    
C14   C15   1.388826 A    
C25   N8    1.156686 T    
O3    Zn1   1.980497 S    
C8    H5    1.083784 S    
O3    C2    1.318451 A    
C22   H8    1.084285 S    
O8    C4    1.309326 A    
C3    C20   1.438854 S    
C19   H6    1.086379 S    
N5    O14   1.302764 A    
N1    N5    1.393163 S    
O4    C2    1.312546 A    
C21   H7    1.087178 S    
C9    H4    1.077146 S    
C10   C12   1.415979 A    
N7    O18   1.299686 A    
C5    C13   1.408385 A    
C5    H2    1.074676 S    
C11   C18   1.419296 A    
Zn2   N2    2.049832 S    
C23   N4    1.431942 S    
C6    C16   1.391244 A    
C12   C13   1.418365 A    
C12   C16   1.383544 A    
Zn2   O6    1.954188 S    
C19   C20   1.343742 D    
Zn1   N1    2.049525 S    
O7    C4    1.305117 A    
Zn1   O5    1.982937 S    
O5    C3    1.299416 A    
C10   C11   1.407964 A    
O2    C1    1.293224 A    
C7    N7    1.415038 S    
C13   C14   1.403660 A    
N5    O13   1.299810 A    
C7    C18   1.410926 A    
C2    C18   1.495369 S    
C16   H3    1.072066 S    
O2    Zn2   1.982935 S    
C7    C8    1.391739 A    
C1    C22   1.414217 S    
N2    H10   1.025166 S    
O1    C1    1.302074 A    
O6    C3    1.305351 A    
C14   N6    1.426713 S    
