data_mof_unit_123.cif
_audit_creation_date              2012-10-26T19:46:07-0400
_audit_creation_method            fapswitch 2.2
_symmetry_space_group_name_H-M    P1
_symmetry_Int_Tables_number       1
_space_group_crystal_system       triclinic
_cell_length_a                    10.762679
_cell_length_b                    9.62445
_cell_length_c                    15.885493
_cell_angle_alpha                 90.029202
_cell_angle_beta                  92.771314
_cell_angle_gamma                 90.020289
_cell_volume                      1643.57187207

loop_
_atom_site_label
_atom_site_type_symbol
_atom_type_description
_atom_site_fract_x
_atom_site_fract_y
_atom_site_fract_z
_atom_type_partial_charge
C1    C     C_R   0.262920 0.499968 0.499869 0.520208
C2    C     C_R   0.928773 0.504061 0.422930 0.017497
C3    C     C_R   0.870996 0.500183 0.500599 -0.030665
C4    C     C_R   0.128972 0.499858 0.500009 -0.001827
C5    C     C_R   0.421474 0.073826 0.446635 0.009668
C6    C     C_R   0.421456 0.926026 0.446647 0.011049
C7    C     C_R   0.500018 0.499961 0.340453 0.537817
C8    C     C_R   0.580133 0.925629 0.554346 0.147224
C9    C     C_R   0.580090 0.074498 0.554380 0.148420
C10   C     C_R   0.737022 0.500039 0.500226 0.534315
C11   C     C_R   0.500656 0.500027 0.659557 0.520666
C12   C     C_3   0.634397 0.438426 0.956721 0.027510
C13   C     C_3   0.487728 0.651677 0.047787 0.448065
C14   C     C_3   0.396640 0.400490 0.044024 0.416662
C15   C     C_3   0.395749 0.410474 0.946194 -0.107128
C16   C     C_3   0.485584 0.648343 0.949310 -0.149233
C17   C     C_1   0.502508 0.499987 0.749123 -0.029106
C18   C     C_3   0.502241 0.498826 0.082927 0.091196
C19   C     C_3   0.507143 0.498250 0.917090 -0.030449
C20   C     C_3   0.671851 0.854142 0.616290 -0.333089
C21   C     C_3   0.671519 0.146108 0.616542 -0.333907
C22   C     C_3   0.747440 0.525583 0.929943 -0.377190
C23   C     C_3   0.629295 0.441166 0.055382 -0.206385
C24   C     C_3   0.657013 0.287070 0.927042 -0.375678
C25   C     C_3   0.879844 0.493042 0.662163 -0.347446
C26   C     C_3   0.850494 0.507965 0.340914 -0.328699
C27   C     C_1   0.504532 0.499464 0.824644 -0.075926
C28   C     C_1   0.502016 0.499417 0.175431 -0.055090
C29   C     C_1   0.501196 0.499793 0.250909 -0.032491
C30   C     C_R   0.070344 0.495925 0.577914 0.218635
C31   C     C_R   0.058752 0.503903 0.422265 0.215428
C32   C     C_R   0.940630 0.496351 0.577998 0.006228
Cu1   Cu    Cu3+1 0.500020 0.640660 0.500000 0.939178
Cu2   Cu    Cu3+1 0.500020 0.359340 0.500000 0.933552
H1    H     H_    0.395489 0.688160 0.921648 0.102581
H2    H     H_    0.768417 0.883750 0.602623 0.100960
H3    H     H_    0.652334 0.884152 0.681761 0.092787
H4    H     H_    0.673375 0.258207 0.617548 0.196474
H5    H     H_    0.651346 0.116582 0.681975 0.090544
H6    H     H_    0.768167 0.116213 0.603317 0.100803
H7    H     H_    0.305651 0.682040 0.042744 0.347211
H8    H     H_    0.274139 0.420963 0.131128 0.343282
H9    H     H_    0.416643 0.251868 0.128544 0.328175
H10   H     H_    0.582359 0.753495 0.136414 0.358597
H11   H     H_    0.745135 0.633042 0.954925 0.167579
H12   H     H_    0.307167 0.458782 0.921605 0.139896
H13   H     H_    0.835895 0.478466 0.955128 0.142816
H14   H     H_    0.751171 0.530437 0.860250 0.128605
H15   H     H_    0.657569 0.280846 0.857235 0.130468
H16   H     H_    0.748397 0.248544 0.952960 0.136806
H17   H     H_    0.585579 0.214421 0.949021 0.179318
H18   H     H_    0.226196 0.492600 0.648511 0.336502
H19   H     H_    0.204660 0.505059 0.351524 0.331315
H20   H     H_    0.910728 0.584456 0.700400 0.160655
H21   H     H_    0.776946 0.495430 0.656884 0.088393
H22   H     H_    0.907729 0.396784 0.696643 0.159844
H23   H     H_    0.395847 0.305258 0.917245 0.154426
H24   H     H_    0.790802 0.602099 0.339289 0.133993
H25   H     H_    0.906549 0.510472 0.284197 0.196304
H26   H     H_    0.790289 0.414301 0.336061 0.127860
H27   H     H_    0.555958 0.720773 0.925133 0.153816
H28   H     H_    0.706407 0.504827 0.084466 0.146250
H29   H     H_    0.644951 0.335672 0.082603 0.144242
H30   H     H_    0.358009 0.128750 0.403532 0.126482
H31   H     H_    0.357973 0.870981 0.403555 0.132931
H32   H     H_    0.673376 0.742014 0.617554 0.196671
N1    N     N_R   0.500030 0.852070 0.500020 -0.224000
N2    N     N_R   0.500030 0.147930 0.500020 -0.222746
O1    O     O_R   0.319660 0.618740 0.500000 -0.492531
O2    O     O_3   0.277902 0.439323 0.069876 -0.693109
O3    O     O_3   0.419505 0.260423 0.066447 -0.691724
O4    O     O_3   0.590993 0.732464 0.075788 -0.691302
O5    O     O_3   0.135542 0.491945 0.655385 -0.703973
O6    O     O_3   0.112987 0.507606 0.344831 -0.705531
O7    O     O_R   0.319660 0.381260 0.500000 -0.494369
O8    O     O_R   0.500020 0.618840 0.379440 -0.488923
O9    O     O_R   0.500020 0.381160 0.379440 -0.498834
O10   O     O_R   0.680370 0.618830 0.500010 -0.513817
O11   O     O_R   0.680370 0.381170 0.500010 -0.512056
O12   O     O_R   0.500010 0.618730 0.620560 -0.509743
O13   O     O_R   0.500010 0.381270 0.620560 -0.510578
O14   O     O_3   0.379320 0.715750 0.076544 -0.652363

loop_
_geom_bond_atom_site_label_1
_geom_bond_atom_site_label_2
_ccdc_geom_bond_type
C22   H14   S    
C7    C29   S    
C14   O2    S    
C14   O3    S    
C14   C18   S    
H19   O6    S    
C25   H22   S    
C10   O10   A    
C11   O13   A    
C15   C19   S    
C12   C23   S    
C8    C20   S    
C13   C18   S    
C20   H32   S    
C28   C29   T    
Cu2   O9    S    
C5    C6    A    
Cu1   O10   S    
C12   C22   S    
H8    O2    S    
C6    H31   S    
C21   H4    S    
C8    C9    A    
Cu2   O13   S    
C19   C27   S    
C26   H25   S    
Cu1   O1    S    
Cu2   O7    S    
C7    O9    A    
C25   C32   S    
C23   H29   S    
C22   H13   S    
C15   H23   S    
C5    N2    A    
C23   H28   S    
C24   H16   S    
C18   C23   S    
C17   C27   T    
C18   C28   S    
C25   H20   S    
H18   O5    S    
Cu2   N2    S    
C30   O5    S    
C31   O6    S    
C13   O14   S    
C1    O1    A    
C5    H30   S    
C2    C31   A    
C1    O7    A    
Cu2   O11   S    
Cu1   O8    S    
C21   H5    S    
Cu1   Cu2   S    
C2    C26   S    
C26   H24   S    
C6    N1    A    
C16   H27   S    
Cu1   N1    S    
C24   H15   S    
C11   C17   S    
H9    O3    S    
C25   H21   S    
C10   O11   A    
Cu1   O12   S    
C7    O8    A    
C13   O4    S    
C12   C24   S    
C1    C4    S    
C2    C3    A    
C9    N2    A    
C16   H1    S    
C3    C10   S    
C30   C32   A    
C20   H3    S    
C9    C21   S    
C21   H6    S    
C24   H17   S    
C16   C19   S    
H7    O14   S    
C12   C19   S    
H10   O4    S    
C3    C32   A    
C4    C31   A    
C11   O12   A    
C20   H2    S    
C22   H11   S    
C8    N1    A    
C13   C16   S    
C14   C15   S    
C15   H12   S    
C26   H26   S    
C4    C30   A    
