data_mof_unit_3967.cif
_audit_creation_date              2012-10-26T20:40:13-0400
_audit_creation_method            fapswitch 2.2
_symmetry_space_group_name_H-M    P1
_symmetry_Int_Tables_number       1
_space_group_crystal_system       triclinic
_cell_length_a                    15.054495
_cell_length_b                    10.831018
_cell_length_c                    9.580471
_cell_angle_alpha                 91.248644
_cell_angle_beta                  89.579623
_cell_angle_gamma                 92.318673
_cell_volume                      1560.46633887

loop_
_atom_site_label
_atom_site_type_symbol
_atom_type_description
_atom_site_fract_x
_atom_site_fract_y
_atom_site_fract_z
_atom_type_partial_charge
C1    C     C_R   0.506300 0.262940 0.498604 0.542893
C2    C     C_R   0.184541 0.437902 0.393439 -0.157475
C3    C     C_R   0.231772 0.501181 0.499976 0.011985
C4    C     C_R   0.328769 0.500015 0.500116 0.569791
C5    C     C_R   0.186612 0.571718 0.601140 0.154219
C6    C     C_R   0.590054 0.127017 0.724126 -0.103598
C7    C     C_R   0.598185 0.072858 0.853391 -0.155110
C8    C     C_R   0.550031 0.964017 0.880878 -0.107049
C9    C     C_R   0.502573 0.900887 0.774479 0.114300
C10   C     C_R   0.508520 0.943795 0.634871 0.029886
C11   C     C_R   0.538320 0.067561 0.617960 0.007848
C12   C     C_R   0.907250 0.540869 0.619563 -0.009104
C13   C     C_R   0.513223 0.128892 0.496822 -0.005958
C14   C     C_R   0.481852 0.060565 0.380612 -0.167065
C15   C     C_R   0.473491 0.933127 0.385674 -0.179811
C16   C     C_R   0.494235 0.737697 0.502921 0.540769
C17   C     C_R   0.487417 0.872562 0.511099 -0.013242
C18   C     C_R   0.620326 0.661146 0.146355 -0.053439
C19   C     C_R   0.680180 0.739752 0.075680 0.108729
C20   C     C_R   0.680887 0.736535 0.931114 -0.171134
C21   C     C_R   0.620594 0.659888 0.858293 -0.113442
C22   C     C_R   0.559701 0.578197 0.926400 0.161084
C23   C     C_R   0.952425 0.394973 0.272072 -0.116169
C24   C     C_R   0.559480 0.578670 0.075902 0.127612
C25   C     C_R   0.443636 0.424973 0.072753 0.015448
C26   C     C_R   0.443590 0.425110 0.924731 0.029949
C27   C     C_R   0.671243 0.499660 0.499589 0.528158
C28   C     C_R   0.814824 0.541484 0.617697 -0.137860
C29   C     C_R   0.768013 0.498099 0.499486 -0.004897
C30   C     C_R   0.813682 0.450795 0.383348 -0.128182
C31   C     C_R   0.906240 0.446484 0.385213 0.020573
C32   C     C_R   0.953353 0.493877 0.502941 0.058385
C33   C     C_3   0.701943 0.911116 0.242088 -0.304008
C34   C     C_R   0.044836 0.390373 0.275481 -0.097835
C35   C     C_3   0.247506 0.775517 0.548685 -0.276420
C36   C     C_R   0.092226 0.441131 0.389887 0.012673
C37   C     C_R   0.046568 0.494706 0.503778 0.017084
C38   C     C_R   0.094032 0.550609 0.617319 0.022127
C39   C     C_R   0.046612 0.584823 0.739699 0.070485
C40   C     C_R   0.953903 0.582294 0.738288 -0.113432
Cu1   Cu    Cu3+1 0.499990 0.499990 0.640660 0.964163
Cu2   Cu    Cu3+1 0.500010 0.500010 0.359340 0.925505
H1    H     H_    0.779420 0.577056 0.707874 0.118603
H2    H     H_    0.777139 0.415229 0.292948 0.124147
H3    H     H_    0.397344 0.363788 0.868356 0.127915
H4    H     H_    0.917049 0.357343 0.181624 0.115231
H5    H     H_    0.079377 0.349064 0.187661 0.135322
H6    H     H_    0.219915 0.389893 0.310947 0.128617
H7    H     H_    0.918084 0.609405 0.831886 0.138653
H8    H     H_    0.463995 0.105485 0.285443 0.139205
H9    H     H_    0.792322 0.857636 0.090075 0.258101
H10   H     H_    0.755302 0.969699 0.292585 0.145667
H11   H     H_    0.659024 0.971423 0.181749 0.138370
H12   H     H_    0.624390 0.215310 0.707809 0.143868
H13   H     H_    0.662324 0.865876 0.326080 0.154694
H14   H     H_    0.198530 0.724081 0.738071 0.297857
H15   H     H_    0.279099 0.859993 0.597646 0.166678
H16   H     H_    0.184686 0.801227 0.498597 0.142278
H17   H     H_    0.293799 0.741050 0.467535 0.164955
H18   H     H_    0.636004 0.120240 0.935519 0.114685
H19   H     H_    0.546142 0.931760 0.986992 0.135845
H20   H     H_    0.454984 0.881922 0.291166 0.156080
H21   H     H_    0.397475 0.363488 0.127137 0.114031
H22   H     H_    0.624833 0.668184 0.256205 0.196642
H23   H     H_    0.726396 0.797114 0.873888 0.115937
H24   H     H_    0.623240 0.671377 0.748727 0.186536
I1    I     I_    0.394972 0.788822 0.852244 -0.350069
I2    I     I_    0.104731 0.605419 0.941818 -0.417720
N1    N     N_R   0.500860 0.501210 0.147910 -0.244260
N2    N     N_R   0.500890 0.501290 0.852040 -0.229435
N3    N     N_2   0.741371 0.820145 0.150315 -0.512791
N4    N     N_2   0.229076 0.683397 0.654039 -0.462855
O1    O     O_R   0.499990 0.319640 0.618810 -0.509830
O2    O     O_R   0.500000 0.319660 0.381240 -0.511011
O3    O     O_R   0.370250 0.499960 0.618800 -0.450954
O4    O     O_R   0.370260 0.499980 0.381230 -0.507373
O5    O     O_R   0.500000 0.680340 0.618760 -0.487624
O6    O     O_R   0.500010 0.680360 0.381190 -0.530685
O7    O     O_R   0.629740 0.500020 0.618770 -0.536092
O8    O     O_R   0.629750 0.500040 0.381200 -0.527652

loop_
_geom_bond_atom_site_label_1
_geom_bond_atom_site_label_2
_ccdc_geom_bond_type
C33   H13   S    
Cu2   O8    S    
C21   H24   S    
C27   C29   S    
C39   I2    S    
C19   N3    S    
C19   C20   A    
C25   H21   S    
C7    C8    A    
C33   H10   S    
C29   C30   A    
C12   C28   A    
C35   H16   S    
C18   C24   A    
C1    O2    A    
C21   C22   A    
C36   C37   A    
C18   C19   A    
C5    N4    S    
C27   O7    A    
Cu1   O5    S    
C38   C39   A    
C10   C17   A    
C40   H7    S    
C35   H17   S    
C16   O5    A    
Cu1   Cu2   S    
C4    O3    A    
C26   H3    S    
C8    C9    A    
H14   N4    S    
C9    C10   A    
C16   O6    A    
C8    H19   S    
C23   H4    S    
C13   C14   A    
C12   C32   A    
C30   H2    S    
H9    N3    S    
C6    H12   S    
C24   N1    A    
C33   H11   S    
Cu2   O2    S    
C20   H23   S    
C27   O8    A    
C39   C40   A    
C16   C17   S    
C2    H6    S    
C25   C26   A    
Cu2   N1    S    
C23   C31   A    
C12   C40   A    
C9    I1    S    
C37   C38   A    
Cu1   O3    S    
C31   C32   A    
C30   C31   A    
C23   C34   A    
C32   C37   A    
C35   N4    S    
Cu2   O6    S    
C26   N2    A    
C22   C24   A    
C25   N1    A    
C3    C4    S    
C7    H18   S    
C6    C11   A    
C2    C36   A    
C15   C17   A    
C28   C29   A    
C3    C5    A    
Cu1   O7    S    
C6    C7    A    
C28   H1    S    
Cu2   O4    S    
C35   H15   S    
C1    O1    A    
C2    C3    A    
C11   C13   A    
C18   H22   S    
C14   H8    S    
C15   H20   S    
C34   C36   A    
C4    O4    A    
C10   C11   A    
C33   N3    S    
Cu1   O1    S    
C1    C13   S    
C20   C21   A    
C14   C15   A    
C34   H5    S    
C5    C38   A    
C22   N2    A    
Cu1   N2    S    
