data_mof_unit_4516.cif
_audit_creation_date              2013-03-05T16:00:43-0500
_audit_creation_method            fapswitch 2.2
_symmetry_space_group_name_H-M    P1
_symmetry_Int_Tables_number       1
_space_group_crystal_system       triclinic
_cell_length_a                    21.261468
_cell_length_b                    21.088857
_cell_length_c                    14.171679
_cell_angle_alpha                 90.002729
_cell_angle_beta                  89.998481
_cell_angle_gamma                 89.873439
_cell_volume                      6354.28274408

loop_
_atom_site_label
_atom_site_type_symbol
_atom_site_description
_atom_site_fract_x
_atom_site_fract_y
_atom_site_fract_z
_atom_type_partial_charge
O1    O     O_R   0.066090 0.433930 0.580280 -0.599307
O2    O     O_R   0.933910 0.566070 0.419720 -0.605808
O3    O     O_R   0.933910 0.566070 0.580280 -0.599314
O4    O     O_R   0.066090 0.433930 0.419720 -0.605812
O5    O     O_R   0.933910 0.433930 0.419720 -0.563810
O6    O     O_R   0.066090 0.566070 0.580280 -0.636573
O7    O     O_R   0.066090 0.566070 0.419720 -0.563824
O8    O     O_R   0.933910 0.433930 0.580280 -0.636573
O9    O     O_R   0.566090 0.933930 0.580280 -0.588219
O10   O     O_R   0.433910 0.066070 0.419720 -0.622895
O11   O     O_R   0.433910 0.066070 0.580280 -0.588569
O12   O     O_R   0.566090 0.933930 0.419720 -0.623011
O13   O     O_R   0.433910 0.933930 0.419720 -0.611720
O14   O     O_R   0.566090 0.066070 0.580280 -0.577652
O15   O     O_R   0.566090 0.066070 0.419720 -0.611708
O16   O     O_R   0.433910 0.933930 0.580280 -0.577531
C1    C     C_R   0.085617 0.412795 0.499834 0.873833
C2    C     C_R   0.914385 0.587209 0.499837 0.873872
C3    C     C_R   0.914590 0.412440 0.499879 0.919237
C4    C     C_R   0.085410 0.587559 0.499880 0.919262
C5    C     C_R   0.585615 0.912722 0.499953 0.871392
C6    C     C_R   0.414399 0.087290 0.499958 0.871205
C7    C     C_R   0.413567 0.913517 0.500382 0.921026
C8    C     C_R   0.586434 0.086482 0.500384 0.920942
Zn1   Zn    Zn3+2 0.000000 0.500000 0.607200 0.961101
Zn2   Zn    Zn3+2 1.000000 0.500000 0.392800 1.011123
Zn3   Zn    Zn3+2 0.500000 0.000000 0.607200 1.014128
Zn4   Zn    Zn3+2 0.500000 0.000000 0.392800 0.962679
C9    C     C_R   0.130351 0.684213 0.430564 0.391992
C10   C     C_R   0.869649 0.315785 0.430556 0.391997
C11   C     C_R   0.874092 0.689458 0.439564 0.397243
C12   C     C_R   0.125887 0.310511 0.439653 0.397250
C13   C     C_R   0.629647 0.184911 0.565319 0.387860
C14   C     C_R   0.370363 0.815085 0.565305 0.387817
C15   C     C_R   0.374343 0.190024 0.559447 0.391032
C16   C     C_R   0.625743 0.810071 0.559581 0.390794
C17   C     C_R   0.132034 0.636663 0.499432 -0.105687
C18   C     C_R   0.867965 0.363337 0.499428 -0.105693
C19   C     C_R   0.868017 0.636349 0.499161 -0.210002
C20   C     C_R   0.131997 0.363668 0.499150 -0.209981
C21   C     C_R   0.634316 0.134171 0.502190 -0.099833
C22   C     C_R   0.365689 0.865825 0.502183 -0.099901
C23   C     C_R   0.368633 0.137147 0.499316 -0.212968
C24   C     C_R   0.631389 0.862873 0.499303 -0.213008
C25   C     C_R   0.179215 0.633881 0.567061 -0.339649
C26   C     C_R   0.820785 0.366120 0.567061 -0.339656
C27   C     C_R   0.815770 0.628030 0.556610 -0.273722
C28   C     C_R   0.184288 0.372050 0.556482 -0.273697
C29   C     C_R   0.684411 0.128189 0.440163 -0.347896
C30   C     C_R   0.315595 0.871804 0.440161 -0.347878
C31   C     C_R   0.318104 0.130602 0.437795 -0.249331
C32   C     C_R   0.681872 0.869364 0.437674 -0.249355
C33   C     C_R   0.228166 0.677232 0.565633 0.021084
C34   C     C_R   0.771836 0.322768 0.565635 0.021081
C35   C     C_R   0.768502 0.673196 0.558451 0.092020
C36   C     C_R   0.231579 0.326908 0.558289 0.092033
C37   C     C_R   0.729598 0.175414 0.434418 0.016704
C38   C     C_R   0.270409 0.824577 0.434413 0.016706
C39   C     C_R   0.270689 0.175711 0.436148 0.091340
C40   C     C_R   0.729297 0.824264 0.436055 0.091376
C41   C     C_R   0.226388 0.727035 0.498390 -0.014210
C42   C     C_R   0.773616 0.272961 0.498392 -0.014207
C43   C     C_R   0.772938 0.726133 0.497599 -0.077812
C44   C     C_R   0.227100 0.273911 0.497551 -0.077837
C45   C     C_R   0.726587 0.226613 0.499180 -0.012005
C46   C     C_R   0.273420 0.773381 0.499174 -0.011995
C47   C     C_R   0.274715 0.228262 0.497829 -0.081364
C48   C     C_R   0.725328 0.771785 0.497876 -0.081294
C49   C     C_R   0.176694 0.731432 0.431974 -0.058727
C50   C     C_R   0.823310 0.268563 0.431971 -0.058737
C51   C     C_R   0.825205 0.733574 0.436803 0.055107
C52   C     C_R   0.174778 0.266400 0.436882 0.055108
C53   C     C_R   0.677399 0.230547 0.566438 -0.058037
C54   C     C_R   0.322609 0.769449 0.566427 -0.058049
C55   C     C_R   0.326469 0.235248 0.559705 0.059911
C56   C     C_R   0.673629 0.764867 0.559876 0.059786
C57   C     C_R   0.277433 0.673709 0.632392 0.445883
C58   C     C_R   0.722569 0.326294 0.632397 0.445876
C59   C     C_R   0.717110 0.666018 0.619823 0.416648
C60   C     C_R   0.283033 0.334163 0.619519 0.416613
C61   C     C_R   0.779293 0.171360 0.368483 0.445713
C62   C     C_R   0.220715 0.828628 0.368482 0.445723
C63   C     C_R   0.219331 0.168671 0.374601 0.423362
C64   C     C_R   0.780602 0.831236 0.374388 0.423380
C65   C     C_R   0.826432 0.216546 0.370324 -0.212306
C66   C     C_R   0.173575 0.783444 0.370327 -0.212328
C67   C     C_R   0.171455 0.214161 0.375873 -0.271718
C68   C     C_R   0.828480 0.785748 0.375672 -0.271770
C69   C     C_R   0.322538 0.720918 0.634082 -0.219991
C70   C     C_R   0.677466 0.279083 0.634092 -0.219969
C71   C     C_R   0.669969 0.712241 0.620123 -0.274788
C72   C     C_R   0.330184 0.287949 0.619809 -0.274699
H1    H     H_    0.177188 0.596963 0.620013 0.180669
H2    H     H_    0.822812 0.403041 0.620015 0.180672
H3    H     H_    0.812231 0.585727 0.599704 0.210779
H4    H     H_    0.187843 0.414384 0.599510 0.210744
H5    H     H_    0.687662 0.085744 0.397643 0.179192
H6    H     H_    0.312343 0.914248 0.397645 0.179208
H7    H     H_    0.315520 0.089222 0.392448 0.214726
H8    H     H_    0.684410 0.910695 0.392215 0.214751
H9    H     H_    0.865280 0.210001 0.322037 0.190279
H10   H     H_    0.134729 0.789988 0.322043 0.190275
H11   H     H_    0.131651 0.208440 0.328935 0.202616
H12   H     H_    0.868242 0.791413 0.328641 0.202599
H13   H     H_    0.357715 0.718474 0.689123 0.189361
H14   H     H_    0.642288 0.281531 0.689133 0.189369
H15   H     H_    0.630446 0.706744 0.667644 0.199401
H16   H     H_    0.369752 0.293509 0.667228 0.199429
C73   C     C_R   0.949754 0.524293 0.799534 0.256837
C74   C     C_R   0.055230 0.491243 0.203002 0.279194
C75   C     C_R   0.050250 0.475715 0.799526 0.256867
C76   C     C_R   0.944770 0.508756 0.203007 0.279244
C77   C     C_R   0.444336 0.995305 0.797059 0.281272
C78   C     C_R   0.550803 0.022755 0.200419 0.267331
C79   C     C_R   0.555663 0.004700 0.797056 0.281255
C80   C     C_R   0.449197 0.977246 0.200420 0.267354
N1    N     N_R   0.000000 0.500000 0.750030 -0.142091
N2    N     N_R   1.000000 0.500000 0.249970 -0.138200
N3    N     N_R   0.500000 0.000000 0.750030 -0.137991
N4    N     N_R   0.500000 0.000000 0.249970 -0.143555
C81   C     C_R   0.054431 0.482217 0.900181 -0.065644
C82   C     C_R   0.944409 0.515272 0.102380 -0.072714
C83   C     C_R   0.945573 0.517787 0.900189 -0.065634
C84   C     C_R   0.055593 0.484729 0.102374 -0.072712
C85   C     C_R   0.556382 0.011645 0.897675 -0.071412
C86   C     C_R   0.444988 0.984554 0.099865 -0.065818
C87   C     C_R   0.443616 0.988362 0.897677 -0.071407
C88   C     C_R   0.555011 0.015449 0.099862 -0.065819
C89   C     C_R   0.000001 0.500000 0.950837 -0.048196
C90   C     C_R   0.000001 0.500000 0.051791 -0.054827
C91   C     C_R   0.499999 0.000002 0.948256 -0.051638
C92   C     C_R   0.499999 0.000002 0.049182 -0.051754
C93   C     C_R   0.110342 0.468264 0.951404 0.160539
C94   C     C_R   0.890415 0.534830 0.051144 0.170089
C95   C     C_R   0.889663 0.531748 0.951417 0.160515
C96   C     C_R   0.109589 0.465176 0.051130 0.170101
C97   C     C_R   0.611323 0.028192 0.948909 0.165997
C98   C     C_R   0.388424 0.973649 0.048814 0.164805
C99   C     C_R   0.388673 0.971820 0.948915 0.165989
C100  C     C_R   0.611574 0.026359 0.048807 0.164801
O17   O     O_3   0.081519 0.684670 0.366249 -0.771008
H17   H     H_    0.098415 0.697043 0.303880 0.324815
O18   O     O_3   0.918478 0.315330 0.366231 -0.770937
H18   H     H_    0.901581 0.302951 0.303865 0.324813
O19   O     O_3   0.926988 0.699904 0.384871 -0.754594
H19   H     H_    0.963555 0.678833 0.414570 0.373273
O20   O     O_3   0.072951 0.300010 0.385071 -0.754530
H20   H     H_    0.036408 0.321138 0.414753 0.373210
O21   O     O_3   0.578239 0.188351 0.624624 -0.779099
H21   H     H_    0.563909 0.233032 0.626988 0.335327
O22   O     O_3   0.421777 0.811644 0.624596 -0.779048
H22   H     H_    0.436096 0.766960 0.626971 0.335191
O23   O     O_3   0.426083 0.199364 0.616884 -0.777788
H23   H     H_    0.462722 0.177336 0.589195 0.366462
O24   O     O_3   0.574030 0.800791 0.617096 -0.777582
H24   H     H_    0.537333 0.822540 0.589102 0.366287
O25   O     O_3   0.282959 0.625686 0.698008 -0.770323
H25   H     H_    0.271636 0.585210 0.667084 0.330785
O26   O     O_3   0.717040 0.374322 0.698010 -0.770332
H26   H     H_    0.728360 0.414797 0.667084 0.330746
O27   O     O_3   0.714127 0.613989 0.679104 -0.790452
H27   H     H_    0.675242 0.616508 0.717576 0.335661
O28   O     O_3   0.286066 0.386256 0.678677 -0.790425
H28   H     H_    0.324993 0.383790 0.717057 0.335679
O29   O     O_3   0.784203 0.123923 0.301782 -0.759178
H29   H     H_    0.741590 0.114242 0.277801 0.327411
O30   O     O_3   0.215810 0.876060 0.301779 -0.759157
H30   H     H_    0.258425 0.885737 0.277799 0.327412
O31   O     O_3   0.216691 0.117068 0.314472 -0.782687
H31   H     H_    0.177756 0.119572 0.276107 0.338707
O32   O     O_3   0.783187 0.882770 0.314131 -0.782751
H32   H     H_    0.822088 0.880221 0.275696 0.338682
N5    N     N_2   0.905476 0.562106 0.750500 -0.251238
H33   H     H_    0.861567 0.543047 0.739570 0.251620
C101  C     C_3   0.908917 0.629666 0.768677 -0.691851
H34   H     H_    0.898327 0.640479 0.843623 0.220891
H35   H     H_    0.874341 0.655174 0.724085 0.242634
H36   H     H_    0.956673 0.647475 0.751281 0.238359
N6    N     N_2   0.111457 0.493277 0.257153 -0.245798
H37   H     H_    0.135380 0.451190 0.265732 0.259080
C102  C     C_3   0.149840 0.549326 0.245349 -0.723482
H38   H     H_    0.175519 0.548097 0.177318 0.220917
H39   H     H_    0.184553 0.552057 0.303714 0.230358
H40   H     H_    0.120088 0.592541 0.247148 0.256546
N7    N     N_2   0.094547 0.437928 0.750475 -0.251216
H41   H     H_    0.138445 0.457010 0.739535 0.251601
C103  C     C_3   0.091141 0.370364 0.768617 -0.691946
H42   H     H_    0.101725 0.359541 0.843557 0.220891
H43   H     H_    0.125734 0.344883 0.724016 0.242595
H44   H     H_    0.043399 0.352534 0.751198 0.238399
N8    N     N_2   0.888542 0.506720 0.257161 -0.245791
H45   H     H_    0.864619 0.548806 0.265751 0.259107
C104  C     C_3   0.850160 0.450672 0.245343 -0.723527
H46   H     H_    0.824486 0.451901 0.177310 0.220926
H47   H     H_    0.815442 0.447940 0.303704 0.230356
H48   H     H_    0.879911 0.407456 0.247140 0.256554
N9    N     N_2   0.388375 0.001904 0.743075 -0.252085
H49   H     H_    0.361577 0.961789 0.733982 0.259211
C105  C     C_3   0.354117 0.060717 0.755914 -0.699396
H50   H     H_    0.332006 0.062773 0.826709 0.218678
H51   H     H_    0.316700 0.064461 0.701542 0.231955
H52   H     H_    0.386227 0.101862 0.747948 0.273956
N10   N     N_2   0.595215 0.060524 0.248941 -0.251006
H53   H     H_    0.638888 0.040932 0.260535 0.241018
C106  C     C_3   0.592816 0.127751 0.227778 -0.738392
H54   H     H_    0.606093 0.136994 0.153345 0.227136
H55   H     H_    0.625879 0.153827 0.273918 0.231021
H56   H     H_    0.544659 0.146391 0.240734 0.245721
N11   N     N_2   0.611626 0.998110 0.743068 -0.252114
H57   H     H_    0.638414 0.038231 0.733973 0.259207
C107  C     C_3   0.645896 0.939306 0.755905 -0.699220
H58   H     H_    0.668028 0.937269 0.826686 0.218630
H59   H     H_    0.683301 0.935555 0.701509 0.231928
H60   H     H_    0.613792 0.898153 0.747979 0.274149
N12   N     N_2   0.404787 0.939474 0.248938 -0.251004
H61   H     H_    0.361112 0.959063 0.260541 0.241030
C108  C     C_3   0.407190 0.872247 0.227760 -0.738401
H62   H     H_    0.393897 0.863007 0.153331 0.227140
H63   H     H_    0.374138 0.846166 0.273913 0.231021
H64   H     H_    0.455354 0.853610 0.240685 0.245698
N13   N     N_2   0.168505 0.459987 0.902951 -0.326035
H65   H     H_    0.196284 0.422902 0.925581 0.241644
C109  C     C_3   0.202945 0.518092 0.887012 -0.763781
H66   H     H_    0.245243 0.507887 0.843586 0.267783
H67   H     H_    0.218093 0.538998 0.955271 0.233766
H68   H     H_    0.173239 0.552856 0.848295 0.253355
N14   N     N_2   0.837883 0.561622 0.099308 -0.329188
H69   H     H_    0.794296 0.546741 0.076658 0.233504
C110  C     C_3   0.841842 0.629469 0.113313 -0.800869
H70   H     H_    0.801411 0.645691 0.156706 0.248906
H71   H     H_    0.840668 0.654546 0.044387 0.235861
H72   H     H_    0.885929 0.641792 0.151199 0.267727
N15   N     N_2   0.831502 0.540038 0.902969 -0.326007
H73   H     H_    0.803728 0.577126 0.925612 0.241676
C111  C     C_3   0.797054 0.481940 0.887009 -0.763738
H74   H     H_    0.754757 0.492156 0.843588 0.267778
H75   H     H_    0.781901 0.461029 0.955261 0.233757
H76   H     H_    0.826755 0.447175 0.848278 0.253347
N16   N     N_2   0.162122 0.438386 0.099284 -0.329180
H77   H     H_    0.205707 0.453274 0.076637 0.233509
C112  C     C_3   0.158170 0.370538 0.113266 -0.800915
H78   H     H_    0.198603 0.354316 0.156650 0.248907
H79   H     H_    0.159346 0.345467 0.044331 0.235872
H80   H     H_    0.114084 0.358208 0.151151 0.267677
N17   N     N_2   0.665562 0.050683 0.900419 -0.329798
H81   H     H_    0.708037 0.033224 0.924035 0.236249
C113  C     C_3   0.665857 0.118441 0.884190 -0.788826
H82   H     H_    0.707376 0.131268 0.840732 0.251385
H83   H     H_    0.668296 0.144431 0.952280 0.235237
H84   H     H_    0.622774 0.133144 0.845440 0.268909
N18   N     N_2   0.330221 0.967377 0.097753 -0.334696
H85   H     H_    0.300573 0.932321 0.073802 0.240366
C114  C     C_3   0.298657 0.026822 0.117013 -0.771544
H86   H     H_    0.256137 0.017866 0.160467 0.274690
H87   H     H_    0.284184 0.050015 0.050027 0.232704
H88   H     H_    0.330147 0.059110 0.157024 0.256555
N19   N     N_2   0.334429 0.949342 0.900426 -0.329792
H89   H     H_    0.291958 0.966809 0.924050 0.236255
C115  C     C_3   0.334121 0.881585 0.884181 -0.788829
H90   H     H_    0.292598 0.868768 0.840725 0.251381
H91   H     H_    0.331679 0.855593 0.952265 0.235239
H92   H     H_    0.377201 0.866875 0.845423 0.268913
N20   N     N_2   0.669777 0.032632 0.097741 -0.334716
H93   H     H_    0.699420 0.067695 0.073798 0.240359
C116  C     C_3   0.701348 0.973188 0.116975 -0.771483
H94   H     H_    0.743866 0.982146 0.160429 0.274693
H95   H     H_    0.715823 0.950005 0.049979 0.232701
H96   H     H_    0.669861 0.940893 0.156976 0.256592

loop_
_geom_bond_atom_site_label_1
_geom_bond_atom_site_label_2
_geom_bond_distance
_ccdc_geom_bond_type
C67   H11   1.083365 S    
C63   C67   1.397313 A    
O32   H32   0.991685 S    
O29   H29   0.989381 S    
C8    C21   1.432824 S    
C18   C26   1.388555 A    
C75   C81   1.435804 A    
O31   H31   0.991700 S    
N16   H77   1.030349 S    
C14   C22   1.398110 A    
N12   H61   1.028730 S    
C64   O32   1.383379 S    
C25   H1    1.082279 S    
C74   N2    1.362003 A    
N7    C103  1.449840 S    
O19   H19   0.988712 S    
N7    H41   1.028962 S    
C109  H68   1.111510 S    
C73   N1    1.376006 A    
N20   H93   1.030141 S    
C12   C52   1.393994 A    
C12   O20   1.383908 S    
C102  H38   1.108229 S    
O10   C6    1.290142 A    
C108  H64   1.111259 S    
N10   C106  1.449924 S    
C15   C55   1.393318 A    
O25   H25   0.989710 S    
O7    Zn2   2.017441 S    
O12   Zn4   2.013175 S    
C54   C69   1.402442 A    
C19   C27   1.388665 A    
C39   C63   1.405670 A    
C53   C70   1.402436 A    
C112  H78   1.110317 S    
C110  H72   1.111544 S    
C38   C62   1.412913 A    
O26   H26   0.989710 S    
C114  H86   1.110375 S    
C73   N5    1.414866 S    
C102  H40   1.108534 S    
O6    Zn1   2.017452 S    
O2    C2    1.288140 A    
C41   C49   1.417915 A    
O18   H18   0.989331 S    
C46   C54   1.417281 A    
C63   O31   1.383386 S    
C29   C37   1.387717 A    
O13   C7    1.296134 A    
O3    C2    1.292265 A    
C20   C28   1.388655 A    
N19   H89   1.030376 S    
O14   C8    1.286572 A    
N9    C105  1.448425 S    
C82   C94   1.418888 A    
C103  H44   1.111025 S    
C32   C40   1.384769 A    
C74   C84   1.432676 A    
C77   N3    1.362038 A    
O28   H28   0.991661 S    
C33   C41   1.418647 A    
C41   C46   1.399872 A    
C38   C46   1.418397 A    
O20   H20   0.988712 S    
C104  H47   1.110125 S    
C100  N20   1.424975 S    
C16   C56   1.393219 A    
C105  H52   1.111008 S    
C93   N13   1.424864 S    
C111  H74   1.110397 S    
C95   N15   1.424871 S    
O13   Zn4   2.017454 S    
O11   Zn3   2.013175 S    
O14   Zn3   2.017452 S    
C113  H84   1.111569 S    
C15   C23   1.408875 A    
N15   H73   1.030211 S    
C10   C50   1.402563 A    
C59   C71   1.396597 A    
C61   C65   1.384713 A    
C39   C47   1.414206 A    
C115  H92   1.111573 S    
O16   Zn3   2.017444 S    
C106  H55   1.107166 S    
C25   C33   1.386939 A    
C105  H50   1.108763 S    
O23   H23   0.987420 S    
C80   C86   1.436128 A    
N17   H81   1.030371 S    
C83   C89   1.411821 A    
O1    Zn1   2.013136 S    
O8    Zn1   2.017444 S    
C111  H75   1.111081 S    
C42   C50   1.417911 A    
O17   H17   0.989332 S    
C87   C99   1.419639 A    
C59   O27   1.383515 S    
C80   N12   1.414996 S    
C88   C92   1.411265 A    
C21   C29   1.386487 A    
C68   H12   1.083334 S    
C110  H70   1.110320 S    
C72   H16   1.083299 S    
O27   H27   0.991663 S    
C101  H36   1.111076 S    
C9    C49   1.402568 A    
C62   O30   1.380096 S    
C113  H83   1.110993 S    
C31   H7    1.085220 S    
C97   C100  1.416255 A    
C75   N7    1.414870 S    
O8    C3    1.293526 A    
C30   H6    1.081115 S    
C78   C88   1.436128 A    
C79   N11   1.421144 S    
N8    H45   1.029213 S    
C30   C38   1.387715 A    
C44   C47   1.395465 A    
C71   H15   1.083296 S    
N18   H85   1.030138 S    
C70   H14   1.081815 S    
C109  H66   1.110388 S    
C101  H35   1.107908 S    
C98   N18   1.424982 S    
Zn4   N4    2.024142 S    
C45   C53   1.417269 A    
C37   C45   1.418396 A    
O30   H30   0.989386 S    
C114  H87   1.111076 S    
C84   C96   1.418883 A    
C73   C83   1.435804 A    
C34   C42   1.418647 A    
C85   C97   1.419622 A    
C108  H62   1.109356 S    
C62   C66   1.384712 A    
O12   C5    1.290149 A    
C32   H8    1.085316 S    
C58   C70   1.384063 A    
C10   O18   1.381585 S    
C80   N4    1.375631 A    
C35   C43   1.414029 A    
C112  H79   1.111050 S    
C1    C20   1.428752 S    
C64   C68   1.397325 A    
C60   C72   1.396616 A    
C33   C57   1.413350 A    
C2    C19   1.428787 S    
N8    C104  1.447542 S    
C60   O28   1.383524 S    
C76   C82   1.432675 A    
N13   H65   1.030205 S    
C3    C18   1.435122 S    
C6    C23   1.431035 S    
C93   C96   1.414881 A    
C5    C24   1.431026 S    
C35   C59   1.404983 A    
C85   C91   1.418609 A    
C7    C22   1.432815 S    
N14   H69   1.030354 S    
C26   H2    1.082287 S    
C86   C92   1.411277 A    
O22   H22   0.990240 S    
C104  H48   1.108535 S    
C9    O17   1.381582 S    
C26   C34   1.386931 A    
C36   C44   1.414031 A    
N11   H57   1.029095 S    
C84   C90   1.418812 A    
N16   C112  1.447131 S    
C48   C56   1.415006 A    
C51   C68   1.402300 A    
N15   C111  1.446612 S    
O7    C4    1.290511 A    
C43   C51   1.415142 A    
N5    C101  1.449857 S    
C55   C72   1.402600 A    
C22   C30   1.386489 A    
C77   C87   1.433525 A    
O4    C1    1.288139 A    
C13   C53   1.400576 A    
O15   C8    1.296142 A    
C107  H59   1.110255 S    
C14   C54   1.400596 A    
C104  H46   1.108232 S    
O16   C7    1.286576 A    
C79   N3    1.362037 A    
N17   C113  1.447363 S    
N10   H53   1.028716 S    
C16   O24   1.382914 S    
C111  H76   1.111519 S    
C37   C61   1.412924 A    
C16   C24   1.408835 A    
C31   C39   1.384748 A    
C9    C17   1.399751 A    
C115  H90   1.110296 S    
O9    C5    1.291261 A    
C116  H95   1.111072 S    
C52   C67   1.402302 A    
C65   H9    1.081204 S    
O9    Zn3   2.013136 S    
C27   C35   1.383360 A    
C89   C90   1.430682 A    
C116  H94   1.110365 S    
C106  H56   1.111216 S    
O10   Zn4   2.013136 S    
C28   C36   1.383382 A    
C106  H54   1.109323 S    
C43   C48   1.395434 A    
C86   C98   1.422634 A    
C61   O29   1.380092 S    
C28   H4    1.083909 S    
C42   C45   1.399865 A    
N14   C110  1.447139 S    
C57   C69   1.384077 A    
C15   O23   1.382948 S    
C81   C89   1.411818 A    
C115  H91   1.110995 S    
Zn1   N1    2.024141 S    
O2    Zn2   2.013136 S    
C114  H88   1.111489 S    
O4    Zn2   2.013175 S    
C14   O22   1.380559 S    
C109  H67   1.111069 S    
C69   H13   1.081819 S    
C94   C95   1.414878 A    
O5    C3    1.290513 A    
Zn3   N3    2.024141 S    
N6    H37   1.029211 S    
C108  H63   1.107184 S    
O6    C4    1.293523 A    
O11   C6    1.291252 A    
O1    C1    1.292238 A    
C36   C60   1.404978 A    
Zn2   N2    2.024142 S    
C75   N1    1.376021 A    
C112  H80   1.111540 S    
C13   C21   1.398107 A    
C94   N14   1.424696 S    
N12   C108  1.449931 S    
C88   C100  1.422643 A    
C103  H42   1.109246 S    
N13   C109  1.446606 S    
C101  H34   1.109289 S    
N20   C116  1.446610 S    
O21   H21   0.990241 S    
C76   N8    1.421342 S    
C76   N2    1.361997 A    
C4    C17   1.435121 S    
C40   C64   1.405666 A    
C24   C32   1.390768 A    
O15   Zn4   2.017441 S    
C74   N6    1.421335 S    
C23   C31   1.390711 A    
C79   C85   1.433515 A    
C99   N19   1.424601 S    
C107  H58   1.108765 S    
N11   C107  1.448427 S    
C34   C58   1.413343 A    
C11   C19   1.408955 A    
C50   C65   1.403779 A    
C12   C20   1.408921 A    
N9    H49   1.029094 S    
C116  H96   1.111486 S    
C87   C91   1.418602 A    
C103  H43   1.107895 S    
C44   C52   1.415151 A    
N18   C114  1.446609 S    
C98   C99   1.416261 A    
C56   C71   1.402567 A    
C29   H5    1.081109 S    
O5    Zn2   2.017454 S    
C11   O19   1.383911 S    
C58   O26   1.379749 S    
C102  H39   1.110128 S    
O3    Zn1   2.013175 S    
C47   C55   1.414988 A    
C40   C48   1.414223 A    
C110  H71   1.111053 S    
C97   N17   1.424604 S    
C96   N16   1.424689 S    
C83   C95   1.423085 A    
O24   H24   0.987412 S    
C105  H51   1.110246 S    
C77   N9    1.421143 S    
C78   N10   1.414988 S    
C13   O21   1.380531 S    
C10   C18   1.399755 A    
C81   C93   1.423085 A    
C107  H60   1.111006 S    
N19   C115  1.447368 S    
N5    H33   1.028968 S    
C17   C25   1.388562 A    
C82   C90   1.418813 A    
C27   H3    1.083904 S    
C78   N4    1.375635 A    
C49   C66   1.403782 A    
C91   C92   1.430304 A    
C113  H82   1.110296 S    
C57   O25   1.379752 S    
C11   C51   1.393978 A    
N6    C102  1.447539 S    
C66   H10   1.081179 S    
