data_mof_unit_904.cif
_audit_creation_date              2012-12-11T17:41:39-0500
_audit_creation_method            fapswitch 2.2
_symmetry_space_group_name_H-M    P1
_symmetry_Int_Tables_number       1
_space_group_crystal_system       triclinic
_cell_length_a                    15.627408
_cell_length_b                    14.998898
_cell_length_c                    14.992142
_cell_angle_alpha                 109.55038
_cell_angle_beta                  121.477666
_cell_angle_gamma                 58.615591
_cell_volume                      2548.96771776

loop_
_atom_site_label
_atom_site_type_symbol
_atom_type_description
_atom_site_fract_x
_atom_site_fract_y
_atom_site_fract_z
_atom_type_partial_charge
C1    C     C_R   0.751121 0.994397 0.791359 -0.121746
C2    C     C_R   0.145906 0.218400 0.976137 -0.116698
C3    C     C_R   0.719220 0.682704 0.885866 -0.171124
C4    C     C_R   0.253706 0.145641 0.988987 -0.154125
C5    C     C_R   0.707808 0.767368 0.962733 0.126446
C6    C     C_R   0.280424 0.038000 0.966542 0.101096
C7    C     C_R   0.801960 0.784698 0.038720 -0.180682
C8    C     C_R   0.197782 0.004275 0.928041 -0.173997
C9    C     C_R   0.905261 0.719411 0.036525 -0.127778
C10   C     C_R   0.089946 0.077271 0.913873 -0.121141
C11   C     C_R   0.915631 0.636111 0.959049 -0.085977
C12   C     C_R   0.196754 0.061014 0.225950 -0.130731
C13   C     C_R   0.064078 0.184233 0.938444 -0.143313
C14   C     C_R   0.590355 0.854919 0.057617 -0.244263
C15   C     C_R   0.398417 0.935928 0.878800 -0.251737
C16   C     C_R   0.198609 0.274641 0.439713 0.524669
C17   C     C_R   0.776124 0.711699 0.528107 0.573942
C18   C     C_R   0.490288 0.926088 0.065460 0.070411
C19   C     C_R   0.501110 0.889922 0.876749 0.045124
C20   C     C_R   0.391409 0.961512 0.972448 0.035027
C21   C     C_R   0.598019 0.837440 0.964109 0.034121
C22   C     C_2   0.025628 0.357834 0.469922 -0.275400
C23   C     C_R   0.137087 0.277286 0.482035 0.099368
C24   C     C_2   0.883308 0.598489 0.420456 -0.371605
C25   C     C_2   0.949949 0.410002 0.383114 0.476885
C26   C     C_2   0.863435 0.513885 0.396813 0.403419
C27   C     C_2   0.832862 0.125112 0.901046 -0.234078
C28   C     C_2   0.020101 0.039209 0.155412 -0.207956
C29   C     C_R   0.185480 0.861561 0.642596 -0.130506
C30   C     C_R   0.806289 0.262257 0.467991 -0.091208
C31   C     C_R   0.288441 0.778829 0.650552 -0.155993
C32   C     C_R   0.707934 0.331540 0.478978 -0.129792
C33   C     C_R   0.295221 0.703025 0.565655 0.115179
C34   C     C_R   0.815869 0.699314 0.459751 0.134340
C35   C     C_R   0.708823 0.359796 0.578707 0.116941
C36   C     C_R   0.197462 0.711781 0.472644 -0.169897
C37   C     C_R   0.809770 0.319367 0.667401 -0.184946
C38   C     C_R   0.095153 0.795189 0.464773 -0.115323
C39   C     C_R   0.907817 0.249708 0.655882 -0.114810
C40   C     C_R   0.593561 0.228106 0.521824 -0.133179
C41   C     C_R   0.406724 0.786120 0.514263 -0.133207
C42   C     C_R   0.089159 0.869980 0.549752 -0.087268
C43   C     C_R   0.906072 0.221150 0.556316 -0.089625
C44   C     C_R   0.408647 0.512785 0.545162 -0.231396
C45   C     C_R   0.502940 0.324260 0.501972 0.064402
C46   C     C_R   0.602839 0.534853 0.636300 -0.222879
C47   C     C_R   0.506078 0.425926 0.542867 0.059615
C48   C     C_R   0.500879 0.623506 0.608864 0.030343
C49   C     C_R   0.605667 0.437667 0.590547 0.028220
C50   C     C_R   0.403359 0.613063 0.574619 0.035636
C51   C     C_2   0.859882 0.100484 0.992930 -0.124343
C52   C     C_2   0.957278 0.109056 0.084292 -0.082049
C53   C     C_R   0.409499 0.981996 0.713648 -0.105407
C54   C     C_R   0.589099 0.957807 0.265021 -0.113444
C55   C     C_R   0.408877 0.305758 0.453031 -0.169495
C56   C     C_R   0.497750 0.707299 0.576435 0.046143
C57   C     C_R   0.589901 0.715432 0.594686 -0.069450
C58   C     C_R   0.593249 0.910417 0.789760 -0.164938
C59   C     C_R   0.404792 0.022870 0.194375 -0.146374
C60   C     C_R   0.199742 0.187125 0.534576 -0.258624
C61   C     C_R   0.776597 0.799246 0.434435 -0.302670
C62   C     C_R   0.756419 0.084186 0.703213 -0.148721
C63   C     C_R   0.199465 0.966232 0.315207 -0.146002
C64   C     C_R   0.780602 0.071099 0.802467 0.152946
C65   C     C_R   0.135787 0.019516 0.226482 0.162520
C66   C     C_3   0.696603 0.504042 0.314482 0.191198
C67   C     C_R   0.502502 0.924572 0.796915 0.066741
C68   C     C_3   0.613780 0.607279 0.261979 -0.319014
C69   C     C_3   0.519015 0.593837 0.159343 -0.992189
C70   C     C_3   0.901311 0.440181 0.216133 0.240670
C71   C     C_3   0.908189 0.385486 0.112482 -0.274521
C72   C     C_3   0.860634 0.465052 0.037910 -1.022701
C73   C     C_R   0.494363 0.965965 0.170419 0.050392
C74   C     C_R   0.822862 0.617610 0.883993 -0.124828
H1    H     H_    0.760140 0.962685 0.852056 0.095637
H2    H     H_    0.316296 0.172720 0.016366 0.117707
H3    H     H_    0.795024 0.849622 0.098637 0.107526
H4    H     H_    0.216684 0.921730 0.907772 0.121682
H5    H     H_    0.977239 0.733543 0.094807 0.108377
H6    H     H_    0.026734 0.050294 0.882579 0.126619
H7    H     H_    0.664589 0.817536 0.125791 0.123097
H8    H     H_    0.322169 0.968968 0.810863 0.123478
H9    H     H_    0.950256 0.593111 0.411027 0.120057
H10   H     H_    0.012784 0.386309 0.540855 0.145234
H11   H     H_    0.009800 0.934201 0.543881 0.103047
H12   H     H_    0.166469 0.119070 0.176555 0.100924
H13   H     H_    0.982130 0.167532 0.547667 0.097109
H14   H     H_    0.179586 0.918893 0.708448 0.112380
H15   H     H_    0.805229 0.240766 0.391048 0.106006
H16   H     H_    0.362428 0.772469 0.723110 0.122896
H17   H     H_    0.631223 0.363511 0.410116 0.099842
H18   H     H_    0.200630 0.654568 0.405891 0.113111
H19   H     H_    0.812257 0.341629 0.745026 0.109326
H20   H     H_    0.020450 0.801595 0.392900 0.101154
H21   H     H_    0.985343 0.218269 0.724104 0.129056
H22   H     H_    0.334596 0.504269 0.520513 0.133626
H23   H     H_    0.989483 0.988578 0.155329 0.120587
H24   H     H_    0.679878 0.541209 0.671559 0.128585
H25   H     H_    0.679036 0.207659 0.548011 0.112280
H26   H     H_    0.320196 0.811224 0.491211 0.115643
H27   H     H_    0.324226 0.996833 0.684435 0.087368
H28   H     H_    0.672914 0.925450 0.274847 0.084474
H29   H     H_    0.323555 0.362445 0.421054 0.133185
H30   H     H_    0.672711 0.678448 0.653823 0.103822
H31   H     H_    0.679443 0.861298 0.833430 0.120217
H32   H     H_    0.319054 0.040912 0.144793 0.131213
H33   H     H_    0.171472 0.158192 0.566428 0.131776
H34   H     H_    0.863115 0.174416 0.898559 0.125240
H35   H     H_    0.802299 0.817979 0.391618 0.135078
H36   H     H_    0.776887 0.133694 0.687454 0.101037
H37   H     H_    0.171304 0.937110 0.347013 0.097446
H38   H     H_    0.987870 0.158537 0.082788 0.128998
H39   H     H_    0.827779 0.053461 0.996655 0.131206
H40   H     H_    0.651123 0.478313 0.330296 0.132306
H41   H     H_    0.730513 0.440291 0.260931 0.084444
H42   H     H_    0.578833 0.667940 0.316143 0.217431
H43   H     H_    0.656897 0.635178 0.245168 0.190343
H44   H     H_    0.552126 0.534798 0.103399 0.266643
H45   H     H_    0.995702 0.585469 0.957540 0.108315
H46   H     H_    0.460787 0.669772 0.123500 0.274526
H47   H     H_    0.472627 0.568304 0.174078 0.264787
H48   H     H_    0.944304 0.492039 0.249809 0.118537
H49   H     H_    0.811850 0.487944 0.198511 0.057107
H50   H     H_    0.996364 0.332485 0.127518 0.209518
H51   H     H_    0.859808 0.338367 0.074753 0.197600
H52   H     H_    0.772405 0.518994 0.021698 0.276128
H53   H     H_    0.864584 0.423770 0.962452 0.261045
H54   H     H_    0.909495 0.511438 0.072886 0.281045
H55   H     H_    0.202266 0.294115 0.322149 0.295889
H56   H     H_    0.980441 0.240950 0.926825 0.104736
H57   H     H_    0.812463 0.682092 0.660872 0.284510
H58   H     H_    0.831964 0.552150 0.825141 0.118257
H59   H     H_    0.125391 0.301281 0.994091 0.117906
H60   H     H_    0.647905 0.667558 0.827854 0.121077
N1    N     N_R   0.705410 0.966550 0.689210 -0.052963
N2    N     N_R   0.556610 0.796750 0.548620 -0.055877
N3    N     N_R   0.556610 0.951620 0.703500 -0.041127
N4    N     N_R   0.443390 0.048380 0.296500 -0.045520
N5    N     N_R   0.294590 0.131500 0.522480 -0.059868
N6    N     N_R   0.705410 0.868500 0.477520 -0.060555
N7    N     N_R   0.705410 0.023370 0.632390 -0.039070
N8    N     N_R   0.294590 0.976630 0.367610 -0.039614
N9    N     N_R   0.294590 0.033450 0.310790 -0.053868
N10   N     N_R   0.294590 0.188320 0.465660 -0.110427
N11   N     N_R   0.705410 0.811680 0.534340 -0.127271
N12   N     N_R   0.556610 0.157790 0.497330 -0.035242
N13   N     N_R   0.443390 0.842210 0.502670 -0.043395
N14   N     N_R   0.443390 0.997080 0.657540 -0.033232
N15   N     N_R   0.556610 0.002920 0.342460 -0.033347
N16   N     N_R   0.443390 0.203250 0.451380 -0.046412
Ni1   Ni    Ni4+2 0.629830 0.882720 0.617850 0.196784
Ni2   Ni    Ni4+2 0.370170 0.117280 0.382150 0.206611
Ni3   Ni    Ni4+2 0.629830 0.013030 0.487540 0.208862
Ni4   Ni    Ni4+2 0.370170 0.986970 0.512460 0.205138
O1    O     O_3   0.780473 0.519249 0.412007 -0.611785
O2    O     O_3   0.953497 0.364328 0.286291 -0.631780
O3    O     O_3   0.157660 0.335058 0.362826 -0.771568
O4    O     O_3   0.822572 0.640625 0.597220 -0.731317

loop_
_geom_bond_atom_site_label_1
_geom_bond_atom_site_label_2
_ccdc_geom_bond_type
C28   H23   S    
C66   C68   S    
C63   C65   A    
C74   H58   S    
C29   C42   A    
C14   C18   A    
N3    N14   A    
C17   N11   A    
C11   H45   S    
C40   H25   S    
H55   O3    S    
C47   C49   A    
C15   C19   A    
C46   C49   A    
C51   H39   S    
C72   H54   S    
C70   O2    S    
C14   C21   A    
C19   C21   A    
C24   H9    S    
C24   C26   D    
C38   C42   A    
C66   O1    S    
C32   H17   S    
C52   H38   S    
C55   H29   S    
C69   H44   S    
C33   C36   A    
C56   C57   A    
C48   C56   S    
C9    H5    S    
C2    C13   A    
N13   Ni4   S    
N15   Ni3   S    
C29   H14   S    
C62   C64   A    
N12   N16   A    
C70   H49   S    
C53   H27   S    
C68   C69   S    
C22   C25   D    
C41   N13   A    
C35   C49   S    
C13   H56   S    
C31   C33   A    
C57   N2    A    
C19   C67   S    
C70   C71   S    
C54   N15   A    
C59   C73   A    
C44   C47   A    
N6    Ni3   S    
C7    H3    S    
C36   H18   S    
C48   C50   A    
C46   H24   S    
C61   H35   S    
C25   O2    S    
C8    H4    S    
C26   O1    S    
C23   C60   A    
N14   Ni4   S    
C30   H15   S    
C27   C51   D    
C15   H8    S    
C45   C47   S    
N4    N15   A    
C40   C45   A    
C37   C39   A    
C46   C48   A    
C2    H59   S    
C66   H41   S    
C72   H53   S    
C51   C52   S    
C1    H1    S    
C32   C35   A    
C71   H50   S    
C4    C6    A    
C5    C7    A    
C10   H6    S    
C39   C43   A    
N5    Ni4   S    
N4    Ni2   S    
C25   C26   S    
C10   C13   A    
C53   N14   A    
C24   C34   S    
C72   H52   S    
C15   C20   A    
C3    C74   A    
C22   H10   S    
H57   O4    S    
C2    C4    A    
C41   C56   A    
C44   H22   S    
C68   H43   S    
C54   C73   A    
N5    N10   A    
C70   H48   S    
C62   H36   S    
C69   H47   S    
C31   H16   S    
C38   H20   S    
C41   H26   S    
C37   H19   S    
C42   H11   S    
N8    Ni4   S    
C17   O4    S    
C9    C11   A    
C39   H21   S    
N11   Ni1   S    
C60   H33   S    
C68   H42   S    
C58   N3    A    
N9    Ni2   S    
C16   C23   A    
N16   Ni2   S    
C30   C43   A    
C17   C34   A    
C62   N7    A    
C1    C64   A    
N2    Ni1   S    
C35   C37   A    
C55   N16   A    
C44   C50   A    
C7    C9    A    
C57   H30   S    
C66   H40   S    
C16   N10   A    
C16   O3    S    
N8    N9    A    
C54   H28   S    
C71   H51   S    
C3    C5    A    
C11   C74   A    
N6    N11   A    
C6    C8    A    
C61   N6    A    
C12   H12   S    
C18   C73   S    
C6    C20   S    
C12   C65   A    
C69   H46   S    
C59   N4    A    
C12   N9    A    
C40   N12   A    
C58   H31   S    
C43   H13   S    
C3    H60   S    
C36   C38   A    
C28   C65   S    
C33   C50   S    
C71   C72   S    
C29   C31   A    
C30   C32   A    
C28   C52   D    
N7    Ni3   S    
C59   H32   S    
N12   Ni3   S    
C27   H34   S    
N1    Ni1   S    
C63   N8    A    
C18   C20   A    
C34   C61   A    
C63   H37   S    
C53   C67   A    
C4    H2    S    
N2    N13   A    
C27   C64   S    
C60   N5    A    
C58   C67   A    
N1    N7    A    
C5    C21   S    
C45   C55   A    
C8    C10   A    
C22   C23   S    
N3    Ni1   S    
C14   H7    S    
C1    N1    A    
N10   Ni2   S    
