data_mof_unit_4184.cif
_audit_creation_date              2012-12-10T20:36:40-0500
_audit_creation_method            fapswitch 2.2
_symmetry_space_group_name_H-M    P1
_symmetry_Int_Tables_number       1
_space_group_crystal_system       triclinic
_cell_length_a                    10.49737
_cell_length_b                    10.676635
_cell_length_c                    9.872572
_cell_angle_alpha                 90.140214
_cell_angle_beta                  89.022889
_cell_angle_gamma                 90.289993
_cell_volume                      1106.30603282

loop_
_atom_site_label
_atom_site_type_symbol
_atom_type_description
_atom_site_fract_x
_atom_site_fract_y
_atom_site_fract_z
_atom_type_partial_charge
C1    C     C_R   0.499788 0.260531 0.499672 0.897884
C2    C     C_R   0.429646 0.935002 0.591618 -0.073612
C3    C     C_3   0.425943 0.930577 0.743987 0.207701
C4    C     C_R   0.257452 0.502140 0.501151 0.877068
C5    C     C_3   0.420456 0.073170 0.742236 0.163816
C6    C     C_R   0.425629 0.580630 0.072712 0.211991
C7    C     C_R   0.580588 0.424143 0.070321 -0.116228
C8    C     C_R   0.580851 0.424234 0.926361 -0.133397
C9    C     C_R   0.425577 0.580641 0.930250 0.274865
C10   C     C_3   0.283877 0.588419 0.927417 -0.527105
C11   C     C_3   0.284063 0.588889 0.081069 -0.532306
C12   C     C_3   0.965336 0.450161 0.380894 0.054913
C13   C     C_R   0.505154 0.739652 0.499685 0.900671
C14   C     C_R   0.742532 0.494980 0.498862 0.850402
C15   C     C_3   0.036272 0.542846 0.620715 -0.142336
C16   C     C_3   0.956826 0.422189 0.600827 -0.179545
C17   C     C_3   0.877621 0.492197 0.496781 -0.007339
C18   C     C_3   0.954883 0.612754 0.516649 -0.178807
C19   C     C_3   0.044193 0.570748 0.399139 -0.211089
C20   C     C_R   0.928419 0.389601 0.249507 0.146473
C21   C     C_R   0.954053 0.449204 0.125435 -0.144296
C22   C     C_R   0.928897 0.387847 0.003591 -0.140545
C23   C     C_3   0.046626 0.379934 0.483927 -0.210777
C24   C     C_R   0.878665 0.266326 0.004582 -0.126603
C25   C     C_R   0.851754 0.206694 0.127756 -0.162688
C26   C     C_R   0.875646 0.268395 0.249947 -0.171125
C27   C     C_R   0.655521 0.878204 0.291126 0.129421
C28   C     C_R   0.785885 0.869066 0.318371 -0.191603
C29   C     C_R   0.869337 0.816428 0.222449 -0.134353
C30   C     C_R   0.822960 0.771456 0.099640 -0.128200
C31   C     C_R   0.693284 0.780458 0.071896 -0.116698
C32   C     C_R   0.609802 0.835491 0.166353 -0.079846
C33   C     C_3   0.122661 0.500646 0.503255 0.022485
C34   C     C_R   0.425218 0.062915 0.591203 0.097675
C35   C     C_R   0.497112 0.129067 0.496215 -0.153797
C36   C     C_R   0.562209 0.067468 0.391193 -0.267959
C37   C     C_R   0.568757 0.938174 0.391191 -0.023338
C38   C     C_R   0.505758 0.871952 0.496988 -0.130649
H1    H     H_    0.916594 0.360099 0.680897 0.133785
H2    H     H_    0.913284 0.707380 0.530414 0.132321
H3    H     H_    0.086273 0.632075 0.319541 0.123569
H4    H     H_    0.089025 0.285461 0.470987 0.147048
H5    H     H_    0.615079 0.120041 0.314704 0.164233
H6    H     H_    0.338810 0.883976 0.785482 0.148625
H7    H     H_    0.612786 0.926461 0.756584 0.326847
H8    H     H_    0.306567 0.121189 0.887697 0.335606
H9    H     H_    0.994893 0.542296 0.122387 0.120408
H10   H     H_    0.949354 0.434481 0.908599 0.131472
H11   H     H_    0.859785 0.218767 0.910030 0.123656
H12   H     H_    0.503840 0.122908 0.786076 0.115839
H13   H     H_    0.812189 0.112866 0.128549 0.151611
H14   H     H_    0.855357 0.220896 0.344753 0.116284
H15   H     H_    0.822821 0.903965 0.413108 0.121040
H16   H     H_    0.970019 0.811257 0.242989 0.124410
H17   H     H_    0.887540 0.730425 0.025537 0.122770
H18   H     H_    0.657789 0.745002 0.976979 0.176634
H19   H     H_    0.509703 0.843625 0.143158 0.134720
H20   H     H_    0.642979 0.362181 0.123695 0.170353
H21   H     H_    0.644238 0.362453 0.870750 0.143272
H22   H     H_    0.250926 0.678149 0.883662 0.190591
H23   H     H_    0.239119 0.502888 0.884261 0.226696
H24   H     H_    0.251752 0.679112 0.125954 0.191739
H25   H     H_    0.239254 0.503794 0.126218 0.231245
H26   H     H_    0.069212 0.581465 0.718575 0.129765
N1    N     N_R   0.499140 0.499140 0.142800 -0.110544
N2    N     N_R   0.499140 0.499180 0.857150 -0.109575
O1    O     O_R   0.500020 0.316790 0.614690 -0.617426
O2    O     O_3   0.302313 0.118848 0.787419 -0.760157
O3    O     O_R   0.500000 0.316760 0.385350 -0.622601
O4    O     O_R   0.313960 0.499990 0.614650 -0.618275
O5    O     O_R   0.313940 0.499950 0.385310 -0.627261
O6    O     O_R   0.500000 0.683240 0.614650 -0.580820
O7    O     O_R   0.499980 0.683210 0.385310 -0.623973
O8    O     O_R   0.686060 0.500050 0.614690 -0.628762
O9    O     O_R   0.686040 0.500010 0.385350 -0.613132
O10   O     O_3   0.538458 0.884305 0.800771 -0.790017
Zn1   Zn    Zn3+2 0.500010 0.500020 0.653130 0.964952
Zn2   Zn    Zn3+2 0.499990 0.499980 0.346870 0.951926

loop_
_geom_bond_atom_site_label_1
_geom_bond_atom_site_label_2
_ccdc_geom_bond_type
C15   C18   S    
C22   H10   S    
C8    N2    A    
C35   C36   A    
O1    Zn1   S    
C11   H24   S    
C6    C9    A    
C4    O4    A    
C7    C8    A    
C12   C23   S    
O6    Zn1   S    
C23   H4    S    
H7    O10   S    
C14   O8    A    
C36   C37   A    
C37   C38   A    
C18   C19   S    
C11   H25   S    
C8    H21   S    
C30   C31   A    
C29   H16   S    
C15   C16   S    
C34   C35   A    
C18   H2    S    
C9    N2    A    
C6    N1    A    
C16   C17   S    
C23   C33   S    
O8    Zn1   S    
C12   C17   S    
O7    Zn2   S    
C31   H18   S    
C9    C10   S    
C7    H20   S    
C2    C34   A    
C21   C22   A    
O4    Zn1   S    
C14   C17   S    
O3    Zn2   S    
C32   H19   S    
C5    O2    S    
C3    H6    S    
C24   C25   A    
C19   C33   S    
C6    C11   S    
C25   C26   A    
C1    O3    A    
C10   H22   S    
C25   H13   S    
H8    O2    S    
C29   C30   A    
C26   H14   S    
C7    N1    A    
C2    C38   A    
C31   C32   A    
C15   H26   S    
C5    C34   S    
C12   C20   S    
C17   C18   S    
C3    O10   S    
C13   C38   S    
C13   O7    A    
C16   C23   S    
C22   C24   A    
C5    H12   S    
C10   H23   S    
C1    C35   S    
C24   H11   S    
N2    Zn1   S    
C4    C33   S    
C28   C29   A    
N1    Zn2   S    
C27   C32   A    
C3    C5    S    
C28   H15   S    
C13   O6    A    
C30   H17   S    
C14   O9    A    
C2    C3    S    
C20   C26   A    
C27   C37   S    
C12   C19   S    
C1    O1    A    
O5    Zn2   S    
O9    Zn2   S    
C10   C11   S    
C16   H1    S    
C20   C21   A    
C27   C28   A    
C36   H5    S    
C15   C33   S    
C4    O5    A    
C19   H3    S    
C21   H9    S    
