data_mof_unit_658.cif
_audit_creation_date              2012-12-10T18:23:01-0500
_audit_creation_method            fapswitch 2.2
_symmetry_space_group_name_H-M    P1
_symmetry_Int_Tables_number       1
_space_group_crystal_system       triclinic
_cell_length_a                    14.986357
_cell_length_b                    14.0209
_cell_length_c                    10.523321
_cell_angle_alpha                 90.963914
_cell_angle_beta                  90.028789
_cell_angle_gamma                 89.331968
_cell_volume                      2210.72021212

loop_
_atom_site_label
_atom_site_type_symbol
_atom_type_description
_atom_site_fract_x
_atom_site_fract_y
_atom_site_fract_z
_atom_type_partial_charge
C1    C     C_R   0.326924 0.500698 0.501958 0.914968
C2    C     C_R   0.958706 0.380440 0.326490 -0.261824
C3    C     C_R   0.539631 0.796534 0.402271 -0.041802
C4    C     C_R   0.461067 0.203513 0.598432 -0.047840
C5    C     C_R   0.460239 0.799870 0.597742 -0.057589
C6    C     C_R   0.538453 0.199942 0.401616 -0.047233
C7    C     C_R   0.459728 0.900542 0.600553 0.015876
C8    C     C_R   0.539577 0.099343 0.399313 0.016907
C9    C     C_R   0.540090 0.897094 0.399577 0.014791
C10   C     C_R   0.460135 0.102899 0.600916 0.015038
C11   C     C_R   0.499932 0.949375 0.500119 0.091030
C12   C     C_R   0.673195 0.499275 0.497488 0.909141
C13   C     C_R   0.499917 0.050547 0.500154 0.090205
C14   C     C_R   0.420130 0.953322 0.700815 -0.193340
C15   C     C_R   0.579213 0.046647 0.299043 -0.195414
C16   C     C_R   0.579578 0.946398 0.299260 -0.188668
C17   C     C_R   0.420481 0.053603 0.701119 -0.190953
C18   C     C_R   0.501154 0.499133 0.257283 0.887272
C19   C     C_R   0.499819 0.500919 0.742664 0.884578
C20   C     C_3   0.571777 0.550559 0.044257 -0.250865
C21   C     C_3   0.430487 0.449865 0.955702 -0.216145
C22   C     C_3   0.578356 0.461651 0.954442 -0.268887
C23   C     C_R   0.953542 0.502983 0.494005 -0.005939
C24   C     C_3   0.423879 0.538952 0.045168 -0.218699
C25   C     C_3   0.493956 0.589634 0.965274 0.301243
C26   C     C_3   0.508502 0.410909 0.034378 0.311310
C27   C     C_3   0.500275 0.502612 0.877115 -0.078148
C28   C     C_3   0.501927 0.497786 0.122697 -0.074957
C29   C     C_R   0.815502 0.434735 0.413503 0.171529
C30   C     C_R   0.185153 0.567720 0.582468 0.183100
C31   C     C_R   0.768801 0.497825 0.495013 -0.125286
C32   C     C_R   0.231509 0.502611 0.503527 -0.122928
C33   C     C_R   0.812491 0.562258 0.574340 -0.248927
C34   C     C_R   0.046925 0.504350 0.495969 -0.005897
C35   C     C_R   0.187827 0.440418 0.421346 -0.250126
C36   C     C_R   0.904822 0.564946 0.576530 0.039644
C37   C     C_R   0.095602 0.441317 0.414713 0.039514
C38   C     C_3   0.471504 0.757463 0.022345 -0.793570
C39   C     C_3   0.507074 0.241481 0.978463 -0.779054
C40   C     C_3   0.764730 0.273193 0.375671 -0.728902
C41   C     C_3   0.256916 0.594257 0.786067 -0.758447
C42   C     C_R   0.908964 0.439040 0.410297 0.020096
C43   C     C_R   0.091592 0.567916 0.580179 0.011437
C44   C     C_R   0.949440 0.627674 0.659893 0.394361
C45   C     C_R   0.051059 0.380620 0.328775 0.393803
C46   C     C_R   0.041883 0.628474 0.661489 -0.255416
Cl1   Cl    Cl    0.892789 0.706120 0.766120 -0.627548
Cl2   Cl    Cl    0.107687 0.302900 0.221563 -0.621139
H1    H     H_    0.628061 0.592311 0.084084 0.160655
H2    H     H_    0.430534 0.244897 0.674863 0.137689
H3    H     H_    0.428911 0.761080 0.673437 0.154589
H4    H     H_    0.568355 0.238629 0.325250 0.137143
H5    H     H_    0.388946 0.917072 0.778996 0.149639
H6    H     H_    0.610000 0.082948 0.220570 0.141562
H7    H     H_    0.610636 0.907461 0.220922 0.147879
H8    H     H_    0.389626 0.092568 0.779593 0.150580
H9    H     H_    0.538578 0.705269 0.863309 0.246260
H10   H     H_    0.464112 0.829117 0.979981 0.238423
H11   H     H_    0.528676 0.758567 0.089562 0.236010
H12   H     H_    0.373918 0.408457 0.916148 0.152435
H13   H     H_    0.409173 0.741702 0.074563 0.253928
H14   H     H_    0.577093 0.304051 0.126890 0.216797
H15   H     H_    0.515833 0.169701 0.020041 0.237901
H16   H     H_    0.557125 0.249977 0.901685 0.238651
H17   H     H_    0.438797 0.246203 0.937916 0.245380
H18   H     H_    0.782706 0.376104 0.237312 0.216530
H19   H     H_    0.726606 0.229044 0.306607 0.215357
H20   H     H_    0.731699 0.270010 0.469857 0.265229
H21   H     H_    0.832873 0.242069 0.383601 0.242165
H22   H     H_    0.211086 0.701231 0.665482 0.228016
H23   H     H_    0.640103 0.429045 0.913732 0.158434
H24   H     H_    0.300599 0.645506 0.837227 0.250987
H25   H     H_    0.293717 0.525468 0.774963 0.230664
H26   H     H_    0.195798 0.583307 0.843412 0.245580
H27   H     H_    0.361770 0.570790 0.085787 0.153484
H28   H     H_    0.773226 0.608989 0.635997 0.213354
H29   H     H_    0.227072 0.392774 0.360898 0.217273
H30   H     H_    0.073806 0.676245 0.728640 0.189054
H31   H     H_    0.926844 0.333070 0.258789 0.190925
H32   H     H_    0.570902 0.755171 0.326454 0.134065
N1    N     N_R   0.500000 0.750030 0.500000 -0.104623
N2    N     N_R   0.500000 0.249970 0.500000 -0.103438
N3    N     N_2   0.487019 0.687088 0.922654 -0.310575
N4    N     N_2   0.518850 0.313725 0.076466 -0.284298
N5    N     N_2   0.767545 0.370716 0.332454 -0.315159
N6    N     N_2   0.233795 0.631572 0.662962 -0.300479
O1    O     O_R   0.367850 0.580280 0.500030 -0.592835
O2    O     O_R   0.632150 0.419720 0.499970 -0.603151
O3    O     O_R   0.632150 0.580280 0.499970 -0.623878
O4    O     O_R   0.367850 0.419720 0.500030 -0.620002
O5    O     O_R   0.499970 0.580260 0.313950 -0.630874
O6    O     O_R   0.500030 0.419740 0.686050 -0.632109
O7    O     O_R   0.500030 0.580260 0.686050 -0.627886
O8    O     O_R   0.499970 0.419740 0.313950 -0.617361
Zn1   Zn    Zn3+2 0.500000 0.607200 0.500000 0.960005
Zn2   Zn    Zn3+2 0.500000 0.392800 0.500000 0.959726

loop_
_geom_bond_atom_site_label_1
_geom_bond_atom_site_label_2
_ccdc_geom_bond_type
C1    O1    A    
C21   C26   S    
O2    Zn2   S    
C1    O4    A    
C6    N2    A    
C29   C42   A    
C34   C37   A    
H18   N5    S    
C7    C11   A    
C39   H16   S    
C8    C13   A    
C23   C42   A    
C18   O5    A    
C35   C37   A    
C9    C16   A    
C39   N4    S    
C38   N3    S    
C20   C25   S    
C10   C17   A    
C15   C16   A    
O6    Zn2   S    
C33   C36   A    
C19   O6    A    
C41   H26   S    
C38   H10   S    
C7    C14   A    
C40   H19   S    
O1    Zn1   S    
C3    N1    A    
C31   C33   A    
C2    H31   S    
C30   N6    S    
C19   C27   S    
C29   N5    S    
C19   O7    A    
C44   Cl1   S    
C38   H13   S    
C21   C27   S    
O7    Zn1   S    
C39   H17   S    
C14   C17   A    
C3    H32   S    
C44   C46   A    
C2    C45   A    
N2    Zn2   S    
C40   H21   S    
C12   O2    A    
C32   C35   A    
C12   O3    A    
C18   C28   S    
C24   C25   S    
C21   H12   S    
C46   H30   S    
C6    C8    A    
C20   C28   S    
C41   H25   S    
C35   H29   S    
C1    C32   S    
C4    H2    S    
C40   N5    S    
O3    Zn1   S    
C15   H6    S    
C20   H1    S    
C3    C9    A    
C5    N1    A    
C33   H28   S    
C23   C34   A    
H9    N3    S    
O8    Zn2   S    
C9    C11   A    
C17   H8    S    
C41   H24   S    
C20   C22   S    
C8    C15   A    
C22   C27   S    
C12   C31   S    
C40   H20   S    
C18   O8    A    
C30   C43   A    
C36   C44   A    
C37   C45   A    
H22   N6    S    
C22   H23   S    
C5    C7    A    
C45   Cl2   S    
H14   N4    S    
C26   N4    S    
C34   C43   A    
C24   C28   S    
C10   C13   A    
C24   H27   S    
O4    Zn2   S    
C25   C27   S    
C39   H15   S    
C26   C28   S    
C16   H7    S    
C29   C31   A    
C30   C32   A    
C11   C13   A    
C2    C42   A    
N1    Zn1   S    
C43   C46   A    
C41   N6    S    
O5    Zn1   S    
C38   H11   S    
C14   H5    S    
C4    N2    A    
C23   C36   A    
C22   C26   S    
C21   C24   S    
C25   N3    S    
C5    H3    S    
C6    H4    S    
C4    C10   A    
