data_mof_unit_1950.cif
_audit_creation_date              2012-10-26T18:29:35-0400
_audit_creation_method            fapswitch 2.2
_symmetry_space_group_name_H-M    P1
_symmetry_Int_Tables_number       1
_space_group_crystal_system       triclinic
_cell_length_a                    11.664077
_cell_length_b                    12.946098
_cell_length_c                    11.807576
_cell_angle_alpha                 99.183423
_cell_angle_beta                  93.091924
_cell_angle_gamma                 91.681787
_cell_volume                      1756.27527285

loop_
_atom_site_label
_atom_site_type_symbol
_atom_type_description
_atom_site_fract_x
_atom_site_fract_y
_atom_site_fract_z
_atom_type_partial_charge
C1    C     C_R   0.497494 0.299568 0.479112 0.543994
C2    C     C_R   0.459633 0.464701 0.967895 -0.067807
C3    C     C_R   0.284292 0.499898 0.500603 0.547949
C4    C     C_R   0.715702 0.499949 0.499339 0.546222
C5    C     C_1   0.162596 0.500034 0.501391 -0.032098
C6    C     C_1   0.837388 0.499592 0.498302 -0.039093
C7    C     C_1   0.059939 0.499908 0.500465 -0.066510
C8    C     C_1   0.940032 0.499632 0.498970 -0.070474
C9    C     C_R   0.508253 0.813705 0.532625 0.005649
C10   C     C_R   0.491353 0.186286 0.467568 0.003691
C11   C     C_R   0.419281 0.018291 0.365009 -0.149791
C12   C     C_R   0.502416 0.700425 0.520913 0.543634
C13   C     C_R   0.580098 0.981708 0.635335 -0.149117
C14   C     C_R   0.430938 0.126312 0.372367 -0.134302
C15   C     C_R   0.568778 0.873656 0.627778 -0.133850
C16   C     C_R   0.542638 0.138025 0.554040 -0.142042
C17   C     C_R   0.456499 0.862002 0.446440 -0.140798
C18   C     C_R   0.530837 0.030169 0.547802 0.042446
C19   C     C_R   0.468304 0.969860 0.452676 0.041401
C20   C     C_R   0.354072 0.392393 0.782032 0.087276
C21   C     C_R   0.242364 0.430129 0.777482 -0.082424
C22   C     C_R   0.149976 0.363611 0.728639 -0.123318
C23   C     C_R   0.389394 0.403019 0.026893 -0.169298
C24   C     C_R   0.167908 0.258498 0.686761 -0.115284
C25   C     C_R   0.277682 0.219155 0.696458 -0.122000
C26   C     C_R   0.369885 0.285323 0.746407 -0.077267
C27   C     C_R   0.641585 0.612496 0.218835 0.087772
C28   C     C_R   0.619956 0.719239 0.248352 -0.078271
C29   C     C_R   0.707820 0.790356 0.298614 -0.120623
C30   C     C_R   0.819008 0.756100 0.315373 -0.114356
C31   C     C_R   0.842849 0.651145 0.279891 -0.126437
C32   C     C_R   0.754968 0.579863 0.229851 -0.083865
C33   C     C_3   0.791622 0.634575 0.822194 0.004747
C34   C     C_R   0.612930 0.594495 0.972934 -0.165492
C35   C     C_3   0.847011 0.739951 0.879309 -0.276052
C36   C     C_3   0.974469 0.730066 0.910627 -0.484536
C37   C     C_3   0.210127 0.343040 0.164061 -0.006218
C38   C     C_3   0.150468 0.447130 0.158997 -0.270352
C39   C     C_3   0.023862 0.427859 0.119436 -0.492945
C40   C     C_R   0.396392 0.414658 0.148386 0.422359
C41   C     C_R   0.604243 0.584231 0.852005 0.414262
C42   C     C_R   0.551691 0.540122 0.154035 0.082675
C43   C     C_R   0.448510 0.459720 0.846027 0.083804
C44   C     C_R   0.542009 0.533638 0.032108 -0.067706
Cu1   Cu    Cu3+1 0.508350 0.507730 0.615930 0.993357
Cu2   Cu    Cu3+1 0.491650 0.492270 0.384070 0.995386
H1    H     H_    0.407470 0.815561 0.374426 0.105832
H2    H     H_    0.064450 0.393480 0.723699 0.108922
H3    H     H_    0.096396 0.207133 0.648742 0.108857
H4    H     H_    0.291044 0.137096 0.666920 0.118646
H5    H     H_    0.453373 0.253234 0.758725 0.102715
H6    H     H_    0.535243 0.747165 0.231234 0.099428
H7    H     H_    0.689994 0.872205 0.323223 0.119822
H8    H     H_    0.887084 0.811206 0.353987 0.108925
H9    H     H_    0.929532 0.625180 0.290660 0.112487
H10   H     H_    0.774794 0.499136 0.200488 0.105011
H11   H     H_    0.833344 0.609986 0.740413 0.163449
H12   H     H_    0.591537 0.184466 0.626160 0.106538
H13   H     H_    0.810381 0.573133 0.876428 0.100474
H14   H     H_    0.837333 0.797662 0.819417 0.164732
H15   H     H_    0.803243 0.769840 0.958520 0.160079
H16   H     H_    0.985850 0.674835 0.973028 0.144448
H17   H     H_    0.012570 0.807824 0.950549 0.146514
H18   H     H_    0.020593 0.701451 0.832463 0.147775
H19   H     H_    0.163096 0.301064 0.223491 0.152355
H20   H     H_    0.201792 0.290073 0.080111 0.109634
H21   H     H_    0.157098 0.496377 0.245287 0.183728
H22   H     H_    0.191920 0.491313 0.098025 0.144563
H23   H     H_    0.609351 0.836759 0.694896 0.157610
H24   H     H_    0.014841 0.376906 0.034080 0.147322
H25   H     H_    0.984453 0.503602 0.111601 0.136971
H26   H     H_    0.977324 0.390184 0.182655 0.150310
H27   H     H_    0.390706 0.163179 0.305056 0.155365
H28   H     H_    0.371557 0.972867 0.291508 0.101472
H29   H     H_    0.627915 0.027111 0.708789 0.101312
H30   H     H_    0.329242 0.345744 0.978622 0.101687
H31   H     H_    0.675924 0.650432 0.019464 0.107633
H32   H     H_    0.227173 0.511025 0.811459 0.101051
N1    N     N_R   0.520920 0.519350 0.790130 -0.222156
N2    N     N_R   0.479080 0.480650 0.209870 -0.221381
O1    O     O_R   0.505930 0.354460 0.582000 -0.516286
O2    O     O_3   0.326143 0.356590 0.208652 -0.536995
O3    O     O_R   0.494070 0.645540 0.418000 -0.515362
O4    O     O_R   0.491820 0.341410 0.386200 -0.464229
O5    O     O_R   0.508180 0.658590 0.613800 -0.464211
O6    O     O_R   0.344250 0.506540 0.597900 -0.499167
O7    O     O_R   0.655750 0.493460 0.402100 -0.499190
O8    O     O_R   0.330140 0.493480 0.402100 -0.466034
O9    O     O_R   0.669860 0.506520 0.597900 -0.474833
O10   O     O_3   0.673024 0.646090 0.795312 -0.540123

loop_
_geom_bond_atom_site_label_1
_geom_bond_atom_site_label_2
_ccdc_geom_bond_type
C22   H2    S    
C42   N2    A    
C35   C36   S    
C23   H30   S    
C7    C8    S    
C4    O7    A    
Cu1   Cu2   S    
C1    O4    A    
C30   H8    S    
C11   C19   A    
C29   C30   A    
C20   C26   A    
C12   O5    A    
C28   C29   A    
Cu2   O7    S    
C34   H31   S    
C30   C31   A    
C11   C14   A    
C43   N1    A    
C23   C40   A    
C18   C19   A    
C25   H4    S    
C17   C19   A    
C13   H29   S    
C2    C44   A    
C37   H19   S    
C21   H32   S    
C39   H26   S    
C40   N2    A    
C36   H17   S    
Cu1   O9    S    
C41   O10   S    
C27   C32   A    
C33   H13   S    
C21   C22   A    
C3    O6    A    
C34   C41   A    
C42   C44   A    
C36   H16   S    
Cu2   O8    S    
C15   H23   S    
C14   H27   S    
C40   O2    S    
C34   C44   A    
C24   C25   A    
C4    C6    S    
C10   C14   A    
C5    C7    T    
C6    C8    T    
C25   C26   A    
C12   O3    A    
C35   H14   S    
Cu1   O5    S    
Cu1   N1    S    
C37   C38   S    
C31   C32   A    
C2    C43   A    
C37   H20   S    
C35   H15   S    
C16   H12   S    
C38   H21   S    
Cu2   O4    S    
C13   C18   A    
C9    C17   A    
C38   H22   S    
C13   C15   A    
C22   C24   A    
C37   O2    S    
C2    C23   A    
C20   C43   S    
C4    O9    A    
C24   H3    S    
C33   H11   S    
C3    O8    A    
Cu1   O1    S    
C1    C10   S    
C17   H1    S    
C3    C5    S    
C11   H28   S    
C41   N1    A    
C26   H5    S    
Cu1   O6    S    
C9    C15   A    
C10   C16   A    
C33   O10   S    
Cu2   N2    S    
C28   H6    S    
C27   C42   S    
C38   C39   S    
C29   H7    S    
C33   C35   S    
C39   H24   S    
C9    C12   S    
Cu2   O3    S    
C20   C21   A    
C16   C18   A    
C27   C28   A    
C39   H25   S    
C31   H9    S    
C36   H18   S    
C1    O1    A    
C32   H10   S    
