data_mof_unit_80.cif
_audit_creation_date              2013-03-05T15:46:00-0500
_audit_creation_method            fapswitch 2.2
_symmetry_space_group_name_H-M    P1
_symmetry_Int_Tables_number       1
_space_group_crystal_system       triclinic
_cell_length_a                    15.015734
_cell_length_b                    14.525982
_cell_length_c                    10.242826
_cell_angle_alpha                 89.993026
_cell_angle_beta                  83.991171
_cell_angle_gamma                 89.990344
_cell_volume                      2221.8726573

loop_
_atom_site_label
_atom_site_type_symbol
_atom_site_description
_atom_site_fract_x
_atom_site_fract_y
_atom_site_fract_z
_atom_type_partial_charge
O1    O     O_R   0.398960 0.091100 0.433300 -0.591039
O2    O     O_R   0.601040 0.908900 0.566700 -0.595036
O3    O     O_R   0.601040 0.091100 0.566700 -0.553523
O4    O     O_R   0.398960 0.908900 0.433300 -0.557539
O5    O     O_R   0.898960 0.591100 0.433300 -0.558169
O6    O     O_R   0.101040 0.408900 0.566700 -0.553868
O7    O     O_R   0.101040 0.591100 0.566700 -0.594457
O8    O     O_R   0.898960 0.408900 0.433300 -0.590541
O9    O     O_R   0.430710 0.091090 0.646210 -0.587703
O10   O     O_R   0.569290 0.908910 0.353790 -0.581663
O11   O     O_R   0.569290 0.091090 0.353790 -0.623133
O12   O     O_R   0.430710 0.908910 0.646210 -0.614503
O13   O     O_R   0.930710 0.591090 0.646210 -0.614153
O14   O     O_R   0.069290 0.408910 0.353790 -0.623064
O15   O     O_R   0.069290 0.591090 0.353790 -0.582148
O16   O     O_R   0.930710 0.408910 0.646210 -0.588273
C1    C     C_R   0.382767 0.117329 0.553990 1.022865
C2    C     C_R   0.617335 0.882588 0.446088 1.034834
C3    C     C_R   0.609874 0.124986 0.449365 1.012285
C4    C     C_R   0.389477 0.875428 0.550820 1.018822
C5    C     C_R   0.889420 0.624537 0.550824 1.019451
C6    C     C_R   0.109939 0.375056 0.449348 1.012368
C7    C     C_R   0.117382 0.617334 0.446046 1.035281
C8    C     C_R   0.882747 0.382718 0.554015 1.023108
C9    C     C_2   0.488827 0.989350 0.930845 -0.036879
C10   C     C_2   0.512146 0.993373 0.069637 -0.028241
C11   C     C_2   0.988832 0.510758 0.930841 -0.036988
C12   C     C_2   0.012142 0.506727 0.069638 -0.028671
Zn1   Zn    Zn3+2 0.478810 0.000000 0.357840 1.025028
Zn2   Zn    Zn3+2 0.521190 0.000000 0.642160 1.026303
Zn3   Zn    Zn3+2 0.978810 0.500000 0.357840 1.024637
Zn4   Zn    Zn3+2 0.021190 0.500000 0.642160 1.026269
N1    N     N_2   0.549450 0.000000 0.831550 -0.196355
N2    N     N_2   0.450550 0.000000 0.168450 -0.197599
N3    N     N_2   0.049450 0.500000 0.831550 -0.196389
N4    N     N_2   0.950550 0.500000 0.168450 -0.197835
H1    H     H_    0.384829 0.006016 0.149622 0.189833
H2    H     H_    0.613792 0.015598 0.849900 0.193127
H3    H     H_    0.884854 0.493806 0.149577 0.189821
H4    H     H_    0.113745 0.484203 0.849945 0.193070
C13   C     C_2   0.334776 0.792801 0.568914 -0.412326
C14   C     C_2   0.663299 0.208280 0.430935 -0.409298
C15   C     C_2   0.696386 0.825175 0.416439 -0.434530
C16   C     C_2   0.303748 0.174216 0.584514 -0.443812
C17   C     C_2   0.803742 0.325864 0.584602 -0.442711
C18   C     C_2   0.196418 0.674724 0.416296 -0.432819
C19   C     C_2   0.163469 0.291813 0.430924 -0.409875
C20   C     C_2   0.834592 0.707097 0.568890 -0.412843
C21   C     C_2   0.339794 0.728362 0.473560 0.283344
C22   C     C_2   0.661308 0.270693 0.528754 0.287329
C23   C     C_2   0.770674 0.841962 0.476354 0.237494
C24   C     C_2   0.229923 0.158767 0.523166 0.235750
C25   C     C_2   0.729957 0.341173 0.523096 0.235189
C26   C     C_2   0.270691 0.658103 0.476328 0.236322
C27   C     C_2   0.161224 0.229224 0.528553 0.287294
C28   C     C_2   0.839876 0.771784 0.473841 0.282587
H5    H     H_    0.710106 0.215114 0.343070 0.145283
H6    H     H_    0.283746 0.788848 0.651994 0.149330
H7    H     H_    0.308218 0.233874 0.647543 0.191799
H8    H     H_    0.691505 0.764196 0.356131 0.185601
H9    H     H_    0.191548 0.735563 0.355677 0.185949
H10   H     H_    0.808180 0.266341 0.647920 0.192210
H11   H     H_    0.783181 0.710731 0.651500 0.149154
H12   H     H_    0.210587 0.285205 0.343363 0.144908
N5    N     N_R   0.592366 0.271711 0.637369 0.233848
O17   O     O_R   0.508721 0.270935 0.615048 -0.385215
O18   O     O_R   0.612320 0.292200 0.754447 -0.416711
N6    N     N_R   0.414196 0.723019 0.373343 0.235644
O19   O     O_R   0.495478 0.725127 0.406182 -0.392534
O20   O     O_R   0.401242 0.696996 0.255328 -0.430550
N7    N     N_R   0.215217 0.074290 0.455149 0.234747
O21   O     O_R   0.169782 0.075278 0.353732 -0.359908
O22   O     O_R   0.229591 0.995846 0.510402 -0.399600
N8    N     N_R   0.785751 0.928143 0.539769 0.236465
O23   O     O_R   0.831634 0.929835 0.640700 -0.359808
O24   O     O_R   0.770889 0.005115 0.480964 -0.400783
N9    N     N_R   0.285743 0.572133 0.540360 0.236002
O25   O     O_R   0.331597 0.570772 0.641332 -0.360564
O26   O     O_R   0.270880 0.494964 0.482091 -0.401085
N10   N     N_R   0.715292 0.425468 0.454569 0.234478
O27   O     O_R   0.669926 0.424208 0.353085 -0.360675
O28   O     O_R   0.729623 0.504060 0.509403 -0.399860
N11   N     N_R   0.914750 0.777672 0.374446 0.235841
O29   O     O_R   0.995782 0.774672 0.408166 -0.392732
O30   O     O_R   0.902553 0.805537 0.257006 -0.428987
N12   N     N_R   0.091822 0.227848 0.636533 0.234098
O31   O     O_R   0.008349 0.228810 0.613342 -0.385111
O32   O     O_R   0.111193 0.206735 0.753677 -0.416290
C29   C     C_R   0.607465 0.986447 0.092115 0.189978
C30   C     C_R   0.650020 0.900257 0.085464 -0.159735
C31   C     C_R   0.741875 0.894002 0.096102 -0.137854
C32   C     C_R   0.791992 0.973706 0.110897 -0.001344
C33   C     C_R   0.750565 0.059918 0.112987 -0.144228
C34   C     C_R   0.658824 0.066461 0.101491 -0.139096
H13   H     H_    0.611979 0.838139 0.072647 0.153722
H14   H     H_    0.774168 0.827373 0.092675 0.172886
H15   H     H_    0.863083 0.968780 0.119232 0.186329
H16   H     H_    0.789666 0.121709 0.122302 0.154781
H17   H     H_    0.627751 0.133710 0.100018 0.157709
C35   C     C_R   0.395345 0.968267 0.909092 0.178834
C36   C     C_R   0.364242 0.877134 0.920983 -0.117297
C37   C     C_R   0.274213 0.857371 0.909807 -0.173347
C38   C     C_R   0.214637 0.928411 0.888623 -0.062083
C39   C     C_R   0.244686 0.019484 0.880810 -0.098227
C40   C     C_R   0.334512 0.039614 0.892729 -0.146500
H18   H     H_    0.409740 0.821648 0.938403 0.148893
H19   H     H_    0.250635 0.786999 0.916950 0.142843
H20   H     H_    0.145036 0.912981 0.879580 0.163965
H21   H     H_    0.198188 0.074549 0.866958 0.200284
H22   H     H_    0.356501 0.110663 0.890228 0.160166
C41   C     C_R   0.107437 0.513935 0.092099 0.190365
C42   C     C_R   0.159015 0.434084 0.101748 -0.139388
C43   C     C_R   0.250743 0.440908 0.113179 -0.144531
C44   C     C_R   0.291943 0.527232 0.110701 -0.002079
C45   C     C_R   0.241605 0.606760 0.095599 -0.137492
C46   C     C_R   0.149758 0.600230 0.085097 -0.159951
H23   H     H_    0.128126 0.366744 0.100506 0.157529
H24   H     H_    0.290015 0.379245 0.122714 0.154774
H25   H     H_    0.363028 0.532379 0.118961 0.186111
H26   H     H_    0.273714 0.673471 0.091815 0.173554
H27   H     H_    0.111547 0.662216 0.072053 0.153396
C47   C     C_R   0.895403 0.532142 0.909097 0.178756
C48   C     C_R   0.834413 0.461015 0.892454 -0.145918
C49   C     C_R   0.744657 0.481451 0.880428 -0.098138
C50   C     C_R   0.714828 0.572607 0.888460 -0.063797
C51   C     C_R   0.774556 0.643422 0.909934 -0.173200
C52   C     C_R   0.864521 0.623354 0.921168 -0.117601
H28   H     H_    0.856223 0.389901 0.889820 0.160107
H29   H     H_    0.698038 0.426563 0.866310 0.200263
H30   H     H_    0.645282 0.588276 0.879347 0.163769
H31   H     H_    0.751152 0.713857 0.917239 0.142997
H32   H     H_    0.910141 0.678667 0.938780 0.148419

loop_
_geom_bond_atom_site_label_1
_geom_bond_atom_site_label_2
_geom_bond_distance
_ccdc_geom_bond_type
O6    Zn4   1.895226 S    
C40   H22   1.083130 S    
C36   C37   1.398417 A    
C21   N6    1.437972 S    
O2    C2    1.291893 A    
N2    H1    1.028831 S    
O13   Zn4   1.893666 S    
C41   C42   1.403806 A    
C23   N8    1.439239 S    
O14   Zn3   1.893666 S    
C15   C23   1.350509 D    
C4    C13   1.455324 S    
C48   H28   1.083105 S    
C48   C49   1.397989 A    
N9    O25   1.301225 A    
C10   C29   1.476695 S    
O11   C3    1.302799 A    
C35   C40   1.402949 A    
C33   C34   1.398026 A    
N8    O24   1.300246 A    
C8    C17   1.452591 S    
C51   H31   1.081802 S    
C13   H6    1.085400 S    
C39   H21   1.080719 S    
N12   O32   1.300520 A    
C16   H7    1.086976 S    
C21   C26   1.453703 S    
O6    C6    1.292621 A    
C17   H10   1.086987 S    
C29   C34   1.403811 A    
C23   C28   1.453842 S    
C47   C52   1.404858 A    
C52   H32   1.083272 S    
C32   C33   1.397384 A    
C38   C39   1.397411 A    
C31   H14   1.081375 S    
C50   H30   1.082306 S    
C10   N2    1.301198 D    
N6    O19   1.299889 A    
N5    O18   1.300691 A    
O3    C3    1.292594 A    
C41   C46   1.403920 A    
O4    Zn1   1.895378 S    
C3    C14   1.453163 S    
C5    C20   1.455366 S    
C16   C24   1.349089 D    
O15   C7    1.304923 A    
C6    C19   1.453198 S    
C17   C25   1.349023 D    
O16   C8    1.302992 A    
C7    C18   1.456310 S    
C18   C26   1.350432 D    
C14   H5    1.086924 S    
C13   C21   1.349293 D    
C39   C40   1.397948 A    
C11   C47   1.476299 S    
C32   H15   1.082112 S    
C44   C45   1.397836 A    
N9    O26   1.300262 A    
C12   C41   1.476623 S    
C22   C25   1.449807 S    
N8    O23   1.301227 A    
C18   H9    1.086839 S    
Zn4   N3    2.028689 S    
C30   H13   1.083336 S    
C25   N10   1.439638 S    
N10   O28   1.300242 A    
C46   H27   1.083359 S    
C31   C32   1.397836 A    
N7    O22   1.300231 A    
N12   O31   1.299985 A    
C20   H11   1.085341 S    
C11   N3    1.301326 D    
C9    C10   1.500426 S    
Zn1   N2    2.028690 S    
O3    Zn2   1.895376 S    
C9    C35   1.476302 S    
N11   O29   1.299874 A    
O12   C4    1.304378 A    
O1    Zn1   1.895227 S    
O13   C5    1.304464 A    
C37   H19   1.081797 S    
O11   Zn1   1.893978 S    
C38   H20   1.082319 S    
O9    Zn2   1.893666 S    
C14   C22   1.349312 D    
C15   H8    1.086823 S    
O9    C1    1.303061 A    
N11   O30   1.300135 A    
N5    O17   1.300002 A    
C50   C51   1.397329 A    
C19   H12   1.086881 S    
C28   N11   1.438130 S    
C19   C27   1.349251 D    
C43   C44   1.397394 A    
C36   H18   1.083290 S    
C20   C28   1.349330 D    
O7    Zn4   1.895376 S    
Zn2   N1    2.028689 S    
O12   Zn2   1.893980 S    
O8    Zn3   1.895378 S    
N4    H3    1.028854 S    
C44   H25   1.082134 S    
N10   O27   1.301209 A    
C24   C27   1.449946 S    
O15   Zn3   1.893978 S    
O16   Zn4   1.893980 S    
O1    C1    1.292150 A    
N1    H2    1.028692 S    
O2    Zn2   1.895226 S    
C26   N9    1.439262 S    
C27   N12   1.438190 S    
N3    H4    1.028704 S    
C47   C48   1.402961 A    
C1    C16   1.452748 S    
N7    O21   1.301209 A    
C24   N7    1.439599 S    
C2    C15   1.456364 S    
O10   Zn1   1.893666 S    
O14   C6    1.302797 A    
C30   C31   1.397830 A    
C42   H23   1.083295 S    
C34   H17   1.083284 S    
O10   C2    1.305005 A    
C51   C52   1.398399 A    
O7    C7    1.291957 A    
C35   C36   1.404861 A    
O8    C8    1.292143 A    
C49   H29   1.080759 S    
C42   C43   1.398040 A    
C37   C38   1.397312 A    
C22   N5    1.438220 S    
C43   H24   1.082323 S    
O4    C4    1.292155 A    
O5    C5    1.292099 A    
C12   N4    1.301266 D    
N6    O20   1.300503 A    
C45   H26   1.081316 S    
C11   C12   1.500412 S    
Zn3   N4    2.028690 S    
C29   C30   1.403958 A    
C33   H16   1.082303 S    
C45   C46   1.397754 A    
C9    N1    1.301221 D    
C49   C50   1.397430 A    
O5    Zn3   1.895227 S    
