data_mof_unit_222.cif
_audit_creation_date              2013-03-05T16:02:48-0500
_audit_creation_method            fapswitch 2.2
_symmetry_space_group_name_H-M    P1
_symmetry_Int_Tables_number       1
_space_group_crystal_system       triclinic
_cell_length_a                    23.642972
_cell_length_b                    11.816156
_cell_length_c                    10.439085
_cell_angle_alpha                 90.025196
_cell_angle_beta                  90.000134
_cell_angle_gamma                 89.999968
_cell_volume                      2916.35692989

loop_
_atom_site_label
_atom_site_type_symbol
_atom_site_description
_atom_site_fract_x
_atom_site_fract_y
_atom_site_fract_z
_atom_type_partial_charge
O1    O     O_R   0.500000 0.337200 0.605810 -0.570506
O2    O     O_R   0.500000 0.662800 0.394190 -0.570506
O3    O     O_R   0.500000 0.662800 0.605810 -0.559755
O4    O     O_R   0.500000 0.337200 0.394190 -0.559755
C1    C     C_R   0.500028 0.283147 0.499976 0.826508
C2    C     C_R   0.500028 0.716853 0.500024 0.826509
O5    O     O_R   0.417880 0.500000 0.605840 -0.535232
O6    O     O_R   0.582120 0.500000 0.394160 -0.541119
O7    O     O_R   0.582120 0.500000 0.605840 -0.541119
O8    O     O_R   0.417880 0.500000 0.394160 -0.535232
C3    C     C_R   0.390167 0.500000 0.500000 0.912966
C4    C     C_R   0.609448 0.500000 0.500000 0.937277
Cu1   Cu    Cu3+1 0.500000 0.500000 0.625300 1.099422
Cu2   Cu    Cu3+1 0.500000 0.500000 0.374700 1.099422
C5    C     C_R   0.880130 0.597215 0.470556 0.715345
C6    C     C_R   0.118336 0.400116 0.515023 0.711967
C7    C     C_R   0.880131 0.402783 0.529450 0.715348
C8    C     C_R   0.118336 0.599884 0.484972 0.711962
N1    N     N_R   0.851907 0.499999 0.500003 -0.439445
N2    N     N_R   0.146448 0.500000 0.499998 -0.435314
C9    C     C_R   0.939523 0.398014 0.519136 -0.159801
C10   C     C_R   0.058914 0.601199 0.473726 -0.168210
C11   C     C_R   0.939522 0.601984 0.480867 -0.159782
C12   C     C_R   0.058914 0.398800 0.526272 -0.168222
C13   C     C_R   0.969390 0.499999 0.500001 -0.082578
C14   C     C_R   0.029116 0.499999 0.499999 -0.081959
C15   C     C_R   0.969853 0.295778 0.531702 0.258997
C16   C     C_R   0.028277 0.700702 0.443449 0.295081
C17   C     C_R   0.969852 0.704221 0.468301 0.258975
C18   C     C_R   0.028278 0.299297 0.556551 0.295128
O9    O     O_2   0.850675 0.687252 0.427597 -0.410101
O10   O     O_2   0.148073 0.302808 0.514436 -0.417504
O11   O     O_2   0.850675 0.312746 0.572410 -0.410099
O12   O     O_2   0.148072 0.697192 0.485558 -0.417507
C19   C     C_R   0.236677 0.514329 0.384858 0.358704
C20   C     C_R   0.761582 0.445901 0.400821 0.366874
C21   C     C_R   0.236677 0.485673 0.615139 0.358701
C22   C     C_R   0.761582 0.554097 0.599183 0.366874
C23   C     C_R   0.296009 0.516769 0.384071 0.275590
C24   C     C_R   0.702302 0.443366 0.401843 0.272782
C25   C     C_R   0.296009 0.483233 0.615927 0.275591
C26   C     C_R   0.702301 0.556632 0.598159 0.272782
C27   C     C_R   0.326870 0.500000 0.499999 -0.361981
C28   C     C_R   0.672045 0.500000 0.500001 -0.350922
C29   C     C_R   0.207228 0.500001 0.499998 0.011895
C30   C     C_R   0.791135 0.499999 0.500002 0.011008
C31   C     C_1   0.500062 0.161745 0.499940 -0.103309
C32   C     C_1   0.500062 0.838255 0.500060 -0.103309
C33   C     C_1   0.500081 0.059733 0.499969 0.062030
C34   C     C_1   0.500081 0.940266 0.500031 0.062030
N3    N     N_1   0.500000 0.500000 0.186410 -0.113516
N4    N     N_1   0.500000 0.500000 0.813590 -0.113516
C35   C     C_1   0.499991 0.499999 0.071978 0.201945
C36   C     C_1   0.499991 0.500001 0.928022 0.201945
S1    S     S_3+6 0.940125 0.166766 0.476395 0.188149
O13   O     O_2   0.912877 0.105111 0.586035 -0.075538
O14   O     O_2   0.896268 0.188755 0.375113 -0.188879
O15   O     O_3   0.991213 0.086243 0.411662 -0.388336
H1    H     H_    0.005679 0.130713 0.338223 0.344720
S2    S     S_3+6 0.058607 0.809703 0.347518 0.144299
O16   O     O_2   0.087988 0.894601 0.431435 -0.144874
O17   O     O_2   0.100750 0.759184 0.255993 -0.195524
O18   O     O_3   0.008247 0.875205 0.261435 -0.441973
H2    H     H_    0.028815 0.931209 0.208408 0.387605
S3    S     S_3+6 0.940125 0.833231 0.523616 0.188157
O19   O     O_2   0.912875 0.894888 0.413979 -0.075549
O20   O     O_2   0.896270 0.811238 0.624900 -0.188851
O21   O     O_3   0.991213 0.913754 0.588350 -0.388323
H3    H     H_    0.005707 0.869250 0.661732 0.344697
S4    S     S_3+6 0.058610 0.190297 0.652481 0.144311
O22   O     O_2   0.087991 0.105400 0.568563 -0.144859
O23   O     O_2   0.100754 0.240817 0.744003 -0.195532
O24   O     O_3   0.008251 0.124793 0.738567 -0.441960
H4    H     H_    0.028821 0.068784 0.791586 0.387614
Cl1   Cl    Cl    0.198161 0.528078 0.240356 -0.353068
Cl2   Cl    Cl    0.799529 0.382110 0.274053 -0.360386
Cl3   Cl    Cl    0.198161 0.471924 0.759640 -0.353072
Cl4   Cl    Cl    0.799529 0.617887 0.725952 -0.360383
Cl5   Cl    Cl    0.329256 0.543817 0.234929 -0.409809
Cl6   Cl    Cl    0.667204 0.363784 0.282005 -0.433095
Cl7   Cl    Cl    0.329255 0.456185 0.765070 -0.409808
Cl8   Cl    Cl    0.667204 0.636215 0.717997 -0.433095

loop_
_geom_bond_atom_site_label_1
_geom_bond_atom_site_label_2
_geom_bond_distance
_ccdc_geom_bond_type
S1    O13   1.502160 D    
C26   C28   1.417358 A    
O24   H4    0.990525 S    
C19   C23   1.403089 A    
C26   Cl8   1.771108 S    
O3    C2    1.275947 A    
N1    C30   1.436828 S    
C31   C33   1.205382 T    
C35   C36   1.502774 S    
O5    C3    1.284547 A    
C1    C31   1.434512 S    
C19   Cl1   1.769557 S    
C2    C32   1.434512 S    
S2    O18   1.680748 S    
O1    C1    1.275901 A    
C11   C17   1.410998 A    
C16   C17   1.406111 A    
C12   C14   1.414841 A    
C22   C26   1.401935 A    
C15   S1    1.774947 S    
S2    O17   1.503807 D    
O7    Cu1   1.952160 S    
C20   Cl2   1.767322 S    
O21   H3    0.990520 S    
S3    O20   1.503586 D    
C24   Cl6   1.771108 S    
C20   C30   1.402935 A    
S4    O22   1.501835 D    
N2    C29   1.437022 S    
O3    Cu1   1.934489 S    
C6    N2    1.363632 A    
C32   C34   1.205382 T    
C9    C15   1.411001 A    
C6    C12   1.409908 A    
C10   C16   1.416775 A    
Cu1   Cu2   2.616035 S    
C15   C18   1.406112 A    
C21   C25   1.403086 A    
C25   C27   1.427028 A    
O2    C2    1.275901 A    
C7    O11   1.348480 S    
C18   S4    1.782442 S    
N4    C36   1.194562 T    
C16   S2    1.782441 S    
C20   C24   1.401937 A    
O8    Cu2   1.952162 S    
C23   C27   1.427029 A    
C22   Cl4   1.767323 S    
O15   H1    0.990541 S    
C21   Cl3   1.769558 S    
C7    C9    1.409452 A    
S2    O16   1.501836 D    
N3    C35   1.194562 T    
C23   Cl5   1.773255 S    
C5    N1    1.363678 A    
Cu1   N4    1.965576 S    
Cu2   N3    1.965575 S    
O5    Cu1   1.952161 S    
O6    C4    1.279922 A    
S3    O21   1.679394 S    
C25   Cl7   1.773257 S    
S4    O24   1.680748 S    
C3    C27   1.496515 S    
C8    O12   1.347734 S    
C17   S3    1.774951 S    
C33   C34   1.411640 S    
S1    O14   1.503588 D    
O1    Cu1   1.934311 S    
C21   C29   1.399403 A    
C19   C29   1.399403 A    
C9    C13   1.411011 A    
O6    Cu2   1.952159 S    
C8    C10   1.409905 A    
O4    C1    1.275947 A    
C5    O9    1.348479 S    
C6    O10   1.347733 S    
C13   C14   1.412103 A    
C4    C28   1.479986 S    
C5    C11   1.409453 A    
C7    N1    1.363678 A    
C8    N2    1.363632 A    
C11   C13   1.411011 A    
O4    Cu2   1.934489 S    
O2    Cu2   1.934311 S    
O7    C4    1.279923 A    
C12   C18   1.416775 A    
C22   C30   1.402935 A    
O8    C3    1.284546 A    
O18   H2    0.990525 S    
C24   C28   1.417358 A    
S3    O19   1.502160 D    
C10   C14   1.414841 A    
S1    O15   1.679392 S    
S4    O23   1.503807 D    
