data_mof_unit_3226.cif
_audit_creation_date              2012-10-26T19:21:51-0400
_audit_creation_method            fapswitch 2.2
_symmetry_space_group_name_H-M    P1
_symmetry_Int_Tables_number       1
_space_group_crystal_system       triclinic
_cell_length_a                    23.528054
_cell_length_b                    11.038525
_cell_length_c                    9.80593
_cell_angle_alpha                 111.090894
_cell_angle_beta                  98.024764
_cell_angle_gamma                 91.071234
_cell_volume                      2346.31686347

loop_
_atom_site_label
_atom_site_type_symbol
_atom_type_description
_atom_site_fract_x
_atom_site_fract_y
_atom_site_fract_z
_atom_type_partial_charge
C1    C     C_R   0.495915 0.254088 0.440640 0.556271
C2    C     C_R   0.709313 0.544594 0.630364 -0.189840
C3    C     C_R   0.247861 0.461966 0.614177 -0.101860
C4    C     C_R   0.768476 0.546393 0.634294 -0.104691
C5    C     C_R   0.210036 0.500340 0.516746 0.235168
C6    C     C_R   0.791766 0.500284 0.503291 0.244126
C7    C     C_2   0.493706 0.114821 0.407113 -0.129386
C8    C     C_2   0.506347 0.885179 0.592826 -0.125859
C9    C     C_2   0.501049 0.069539 0.516634 -0.157497
C10   C     C_2   0.498851 0.930429 0.483286 -0.159328
C11   C     C_2   0.504796 0.510988 0.081402 -0.020495
C12   C     C_R   0.504109 0.745914 0.559344 0.558383
C13   C     C_2   0.495267 0.488876 0.918595 -0.026642
C14   C     C_R   0.391083 0.502984 0.502049 0.555873
C15   C     C_R   0.609082 0.498094 0.497945 0.565508
C16   C     C_R   0.885317 0.616815 0.557745 0.383459
C17   C     C_R   0.117998 0.384677 0.487752 0.379750
C18   C     C_R   0.878348 0.384429 0.474722 0.428342
C19   C     C_R   0.125095 0.617222 0.574605 0.427479
C20   C     C_R   0.938178 0.382176 0.480082 0.025491
C21   C     C_R   0.065563 0.619686 0.574957 0.024790
C22   C     C_R   0.971795 0.500892 0.525633 -0.030284
C23   C     C_R   0.231179 0.542073 0.411849 0.220404
C24   C     C_R   0.031980 0.500989 0.529858 -0.031406
C25   C     C_R   0.945334 0.619476 0.566024 0.025753
C26   C     C_R   0.058381 0.382353 0.487849 0.023720
C27   C     C_R   0.965040 0.264504 0.440577 -0.125791
C28   C     C_R   0.038838 0.737483 0.617091 -0.125527
C29   C     C_R   0.024526 0.264582 0.444236 -0.125757
C30   C     C_R   0.979313 0.737367 0.612379 -0.125455
C31   C     C_3   0.158867 0.484257 0.192165 -0.290063
C32   C     C_3   0.796827 0.503447 0.179714 -0.296645
C33   C     C_3   0.309290 0.515602 0.158625 -0.279415
C34   C     C_R   0.755349 0.451191 0.365476 0.196543
C35   C     C_3   0.638063 0.256727 0.181394 -0.274446
C36   C     C_R   0.290975 0.547279 0.408104 0.121137
C37   C     C_R   0.694848 0.445944 0.360828 0.117067
C38   C     C_R   0.328747 0.506018 0.506200 -0.009809
C39   C     C_R   0.671782 0.495427 0.495022 0.003310
C40   C     C_R   0.306533 0.464484 0.608834 -0.184457
Cu1   Cu    Cu3+1 0.509980 0.521810 0.644910 0.932770
Cu2   Cu    Cu3+1 0.490020 0.478190 0.355090 0.935059
H1    H     H_    0.940169 0.171967 0.405577 0.168107
H2    H     H_    0.537750 0.584506 0.154641 0.155066
H3    H     H_    0.043795 0.172096 0.411746 0.169140
H4    H     H_    0.960024 0.829838 0.644398 0.168619
H5    H     H_    0.209694 0.658314 0.288109 0.283771
H6    H     H_    0.128232 0.528570 0.130226 0.148244
H7    H     H_    0.133614 0.419577 0.229359 0.179817
H8    H     H_    0.187345 0.425364 0.116420 0.136209
H9    H     H_    0.758458 0.323117 0.150784 0.258670
H10   H     H_    0.818319 0.458922 0.081309 0.149449
H11   H     H_    0.827510 0.579120 0.265806 0.189006
H12   H     H_    0.063721 0.830033 0.652385 0.168194
H13   H     H_    0.758296 0.549668 0.147605 0.130186
H14   H     H_    0.349722 0.662182 0.355221 0.268991
H15   H     H_    0.281600 0.556360 0.086985 0.145377
H16   H     H_    0.291316 0.415811 0.139041 0.150468
H17   H     H_    0.352850 0.508228 0.126279 0.153185
H18   H     H_    0.670716 0.412521 0.136880 0.245672
H19   H     H_    0.674914 0.194552 0.161625 0.136958
H20   H     H_    0.606119 0.225948 0.078358 0.143492
H21   H     H_    0.617097 0.242311 0.269702 0.167251
H22   H     H_    0.334669 0.432697 0.684704 0.129980
H23   H     H_    0.555721 0.624438 0.934855 0.201792
H24   H     H_    0.692948 0.582639 0.734408 0.142253
H25   H     H_    0.491039 0.864673 0.368067 0.155291
H26   H     H_    0.508736 0.135278 0.631866 0.155353
H27   H     H_    0.444415 0.375268 0.065064 0.195995
H28   H     H_    0.231614 0.430671 0.695139 0.137741
H29   H     H_    0.796563 0.583599 0.740061 0.138956
H30   H     H_    0.514175 0.951215 0.707849 0.101364
H31   H     H_    0.486024 0.048818 0.292075 0.103139
H32   H     H_    0.462303 0.415356 0.845383 0.142924
N1    N     N_R   0.853168 0.500448 0.511417 -0.383429
N2    N     N_R   0.149807 0.500822 0.527954 -0.388560
N3    N     N_2   0.475010 0.445410 0.137370 -0.358402
N4    N     N_2   0.524990 0.554590 0.862630 -0.350968
N5    N     N_2   0.192445 0.586139 0.317036 -0.474200
N6    N     N_2   0.780227 0.403957 0.233288 -0.489598
N7    N     N_2   0.312594 0.601340 0.311870 -0.517080
N8    N     N_2   0.657431 0.392163 0.222621 -0.502700
O1    O     O_R   0.505330 0.332340 0.577400 -0.496284
O2    O     O_2   0.143819 0.271818 0.444609 -0.502893
O3    O     O_2   0.845549 0.271779 0.433652 -0.486644
O4    O     O_2   0.158068 0.730085 0.619702 -0.481270
O5    O     O_R   0.494670 0.667660 0.422600 -0.504114
O6    O     O_R   0.488470 0.295500 0.332650 -0.492749
O7    O     O_R   0.511530 0.704500 0.667350 -0.488402
O8    O     O_R   0.426310 0.518390 0.622390 -0.498021
O9    O     O_R   0.573690 0.481610 0.377610 -0.458080
O10   O     O_R   0.409450 0.481550 0.377650 -0.486068
O11   O     O_R   0.590550 0.518450 0.622350 -0.502456
O12   O     O_2   0.859151 0.729372 0.594001 -0.504496

loop_
_geom_bond_atom_site_label_1
_geom_bond_atom_site_label_2
_ccdc_geom_bond_type
Cu1   O7    S    
C18   N1    A    
C27   C29   A    
C34   C37   A    
Cu1   Cu2   S    
H27   N3    S    
H5    N5    S    
C19   O4    S    
H14   N7    S    
C7    H31   S    
C10   H25   S    
C33   H16   S    
C17   C26   A    
C19   N2    A    
C19   C21   A    
C24   C26   A    
C14   C38   S    
C16   N1    A    
C16   C25   A    
Cu2   O9    S    
H9    N6    S    
C14   O8    A    
C11   N3    D    
C34   N6    S    
H18   N8    S    
C2    C39   A    
C32   H10   S    
C22   C25   A    
C17   N2    A    
C9    C10   S    
C32   H13   S    
Cu2   O10   S    
C1    O6    A    
Cu1   O8    S    
C33   H17   S    
C31   H7    S    
C35   N8    S    
Cu1   O11   S    
C8    H30   S    
C18   O3    S    
C12   O7    A    
C6    N1    S    
C3    H28   S    
C4    C6    A    
Cu1   N4    S    
C28   H12   S    
C2    H24   S    
C6    C34   A    
C29   H3    S    
C2    C4    A    
C32   N6    S    
C5    C23   A    
C36   N7    S    
C8    C12   S    
C14   O10   A    
C11   H2    S    
C35   H19   S    
C15   C39   S    
C26   C29   A    
C21   C28   A    
C20   C22   A    
C3    C40   A    
C31   H6    S    
C22   C24   A    
C37   N8    S    
Cu2   O6    S    
C31   H8    S    
C32   H11   S    
C25   C30   A    
C7    C9    D    
C13   N4    D    
C33   H15   S    
H23   N4    S    
C12   O5    A    
C1    C7    S    
C30   H4    S    
C3    C5    A    
C15   O11   A    
C31   N5    S    
C20   C27   A    
C1    O1    A    
C16   O12   S    
C40   H22   S    
C17   O2    S    
C5    N2    S    
C36   C38   A    
C9    H26   S    
C37   C39   A    
C38   C40   A    
C11   C13   S    
C28   C30   A    
C35   H20   S    
C18   C20   A    
C15   O9    A    
C27   H1    S    
C13   H32   S    
Cu2   N3    S    
C8    C10   D    
C23   C36   A    
C21   C24   A    
C35   H21   S    
Cu2   O5    S    
C23   N5    S    
C33   N7    S    
C4    H29   S    
Cu1   O1    S    
