data_mof_unit_3494.cif
_audit_creation_date              2012-12-10T16:54:06-0500
_audit_creation_method            fapswitch 2.2
_symmetry_space_group_name_H-M    P1
_symmetry_Int_Tables_number       1
_space_group_crystal_system       triclinic
_cell_length_a                    9.67974
_cell_length_b                    10.951676
_cell_length_c                    13.390476
_cell_angle_alpha                 90.356483
_cell_angle_beta                  72.029488
_cell_angle_gamma                 90.313811
_cell_volume                      1350.22995217

loop_
_atom_site_label
_atom_site_type_symbol
_atom_type_description
_atom_site_fract_x
_atom_site_fract_y
_atom_site_fract_z
_atom_type_partial_charge
C1    C     C_R   0.500059 0.734263 0.502074 0.881963
C2    C     C_R   0.434515 0.471568 0.981627 0.070129
C3    C     C_R   0.466211 0.447158 0.873162 -0.027986
C4    C     C_R   0.540852 0.446796 0.032116 0.006745
C5    C     C_R   0.668238 0.379629 0.979397 -0.112245
C6    C     C_R   0.693395 0.348851 0.872502 0.392586
C7    C     C_R   0.591139 0.378147 0.822899 -0.195626
C8    C     C_R   0.524989 0.492326 0.133023 -0.285232
C9    C     C_R   0.744593 0.391901 0.138097 0.429307
C10   C     C_R   0.372199 0.492459 0.818029 -0.234848
C11   C     C_2   0.616112 0.064514 0.481841 0.380830
C12   C     C_R   0.421347 0.496395 0.701127 0.855934
C13   C     C_2   0.507586 0.135003 0.471338 0.267952
C14   C     C_2   0.610326 0.933371 0.459703 0.180508
C15   C     C_2   0.499102 0.864498 0.517781 0.139201
C16   C     C_2   0.056662 0.581456 0.550454 0.608708
C17   C     C_2   0.895515 0.564761 0.564451 -0.123969
C18   C     C_R   0.502071 0.265556 0.493931 0.760325
C19   C     C_R   0.578234 0.493778 0.299680 0.842763
C20   C     C_R   0.765266 0.346123 0.035921 0.464726
C21   C     C_R   0.622479 0.464327 0.186850 -0.190320
C22   C     C_R   0.235976 0.543209 0.876428 0.349179
C23   C     C_R   0.197993 0.551653 0.985716 0.405996
C24   C     C_R   0.295831 0.517408 0.037128 -0.278406
Cu1   Cu    Cu3+1 0.361370 0.499980 0.499980 1.061425
Cu2   Cu    Cu3+1 0.638630 0.500020 0.500020 1.017664
H1    H     H_    0.115937 0.423733 0.473666 0.163539
H2    H     H_    0.817683 0.613340 0.627791 0.178164
H3    H     H_    0.921305 0.463949 0.436291 0.199039
H4    H     H_    0.437825 0.553695 0.171515 0.189020
H5    H     H_    0.258052 0.524100 0.121626 0.183607
H6    H     H_    0.611169 0.343317 0.744169 0.201419
N1    N     N_2   0.152660 0.501340 0.501130 -0.305023
N2    N     N_2   0.846520 0.501370 0.501160 -0.285414
O1    O     O_R   0.382960 0.678040 0.499980 -0.514243
O2    O     O_R   0.617100 0.678080 0.500020 -0.567291
O3    O     O_R   0.325800 0.499940 0.650950 -0.485671
O4    O     O_R   0.559930 0.499980 0.650990 -0.595907
O5    O     O_R   0.382900 0.321920 0.499980 -0.551833
O6    O     O_R   0.617040 0.321960 0.500020 -0.564337
O7    O     O_R   0.440070 0.500020 0.349010 -0.611626
O8    O     O_R   0.674200 0.500060 0.349050 -0.516274
O9    O     O_3   0.850013 0.373085 0.186681 -0.524273
C25   C     C_3   0.821140 0.264499 0.245983 -0.173732
H7    H     H_    0.704746 0.236366 0.271657 0.060878
H8    H     H_    0.853409 0.278662 0.317816 0.210587
H9    H     H_    0.889403 0.189554 0.200798 0.194851
O10   O     O_3   0.394093 0.083424 0.442305 -0.550530
C26   C     C_3   0.419913 0.102996 0.334044 -0.306466
H10   H     H_    0.523182 0.059537 0.286546 0.165780
H11   H     H_    0.420944 0.202019 0.315625 0.146092
H12   H     H_    0.330479 0.059951 0.310691 0.216071
Cl1   Cl    Cl    0.748179 0.874997 0.350094 -0.610322
Cl2   Cl    Cl    0.367326 0.921328 0.631450 -0.578615
O11   O     O_3   0.103175 0.679024 0.598711 -0.486216
C27   C     C_3   0.035987 0.788468 0.583529 -0.198332
H13   H     H_    0.925343 0.796097 0.640554 0.138703
H14   H     H_    0.033061 0.797758 0.501358 0.136766
H15   H     H_    0.099624 0.866696 0.598749 0.252813
Cl3   Cl    Cl    0.858086 0.287490 0.790229 -0.554705
O12   O     O_3   0.878765 0.266034 0.994649 -0.503737
C28   C     C_3   0.823355 0.145303 0.008704 -0.183547
H16   H     H_    0.757091 0.124911 0.956079 0.177602
H17   H     H_    0.756331 0.126816 0.091025 0.098980
H18   H     H_    0.916031 0.080901 0.988562 0.225149
Cl4   Cl    Cl    0.110256 0.600777 0.816955 -0.430094
Cl5   Cl    Cl    0.029224 0.611472 0.061637 -0.474536
O13   O     O_3   0.736395 0.117225 0.501908 -0.584965
C29   C     C_3   0.788875 0.042251 0.567369 -0.221785
H19   H     H_    0.847066 0.962135 0.523182 0.178911
H20   H     H_    0.700136 0.012636 0.638197 0.169572
H21   H     H_    0.868086 0.095600 0.594802 0.224621

loop_
_geom_bond_atom_site_label_1
_geom_bond_atom_site_label_2
_ccdc_geom_bond_type
C13   O10   S    
C2    C4    A    
O11   C27   S    
C25   H9    S    
C22   Cl4   S    
C6    C7    A    
C1    C15   S    
C16   N1    D    
C29   H21   S    
C9    C20   A    
O12   C28   S    
C27   H15   S    
C4    C8    A    
O9    C25   S    
C26   H12   S    
C8    H4    S    
Cu1   N1    S    
C8    C21   A    
C16   O11   S    
C3    C10   A    
H1    N1    S    
C12   O4    A    
C11   C13   D    
C19   O8    A    
Cu2   O6    S    
C28   H16   S    
C10   C12   S    
C13   C18   S    
Cu1   O1    S    
Cu2   O2    S    
O10   C26   S    
C19   C21   S    
C18   O5    A    
C27   H14   S    
C2    C3    A    
C3    C7    A    
C29   H19   S    
C2    C24   A    
C5    C6    A    
C11   C14   S    
C5    C20   A    
C24   H5    S    
C9    O9    S    
C17   N2    D    
C23   C24   A    
C23   Cl5   S    
C9    C21   A    
C15   Cl2   S    
C6    Cl3   S    
C10   C22   A    
C4    C5    A    
C14   Cl1   S    
C16   C17   S    
C11   O13   S    
Cu2   O8    S    
C29   H20   S    
C26   H10   S    
C12   O3    A    
Cu1   O7    S    
C20   O12   S    
C27   H13   S    
C1    O1    A    
C18   O6    A    
C14   C15   D    
Cu2   O4    S    
C28   H17   S    
C7    H6    S    
C28   H18   S    
Cu1   O3    S    
Cu1   Cu2   S    
C22   C23   A    
C17   H2    S    
H3    N2    S    
Cu2   N2    S    
Cu1   O5    S    
C25   H7    S    
C19   O7    A    
C1    O2    A    
C25   H8    S    
O13   C29   S    
C26   H11   S    
