data_mof_unit_1104.cif
_audit_creation_date              2012-12-11T14:52:46-0500
_audit_creation_method            fapswitch 2.2
_symmetry_space_group_name_H-M    P1
_symmetry_Int_Tables_number       1
_space_group_crystal_system       triclinic
_cell_length_a                    20.61947
_cell_length_b                    7.251798
_cell_length_c                    20.319999
_cell_angle_alpha                 90.0003
_cell_angle_beta                  101.463028
_cell_angle_gamma                 90.00074
_cell_volume                      2977.80672981

loop_
_atom_site_label
_atom_site_type_symbol
_atom_type_description
_atom_site_fract_x
_atom_site_fract_y
_atom_site_fract_z
_atom_type_partial_charge
O1    O     O_R   0.673670 0.377510 0.185950 -0.536072
O2    O     O_R   0.326330 0.622490 0.814050 -0.536072
O3    O     O_R   0.826330 0.877510 0.314050 -0.536074
O4    O     O_R   0.173670 0.122490 0.685950 -0.536073
O5    O     O_R   0.806260 0.705340 0.185590 -0.532042
O6    O     O_R   0.193740 0.294660 0.814410 -0.532042
O7    O     O_R   0.693740 0.205340 0.314410 -0.532041
O8    O     O_R   0.306260 0.794660 0.685590 -0.532041
C1    C     C_R   0.825651 0.538658 0.170798 0.717169
C2    C     C_R   0.174349 0.461342 0.829202 0.717170
C3    C     C_R   0.674349 0.038657 0.329202 0.717173
C4    C     C_R   0.325651 0.961343 0.670798 0.717173
O9    O     O_R   0.672940 0.707120 0.178050 -0.540588
O10   O     O_R   0.327060 0.292880 0.821950 -0.540588
O11   O     O_R   0.827060 0.207120 0.321950 -0.540595
O12   O     O_R   0.172940 0.792880 0.678050 -0.540595
O13   O     O_R   0.692060 0.879040 0.306460 -0.534189
O14   O     O_R   0.307940 0.120960 0.693540 -0.534189
O15   O     O_R   0.807940 0.379040 0.193540 -0.534188
O16   O     O_R   0.192060 0.620960 0.806460 -0.534188
C5    C     C_R   0.648777 0.540118 0.160853 0.687983
C6    C     C_R   0.351223 0.459881 0.839147 0.687983
C7    C     C_R   0.851223 0.040122 0.339147 0.687985
C8    C     C_R   0.148777 0.959878 0.660853 0.687985
O17   O     O_3   0.756430 0.544390 0.292140 -0.374837
O18   O     O_3   0.243570 0.455610 0.707860 -0.374837
O19   O     O_3   0.743570 0.044390 0.207860 -0.374834
O20   O     O_3   0.256430 0.955610 0.792140 -0.374835
V1    V     V_3+5 0.748810 0.818610 0.242180 1.415887
V2    V     V_3+5 0.251190 0.181390 0.757820 1.415886
V3    V     V_3+5 0.751190 0.318610 0.257820 1.415884
V4    V     V_3+5 0.248810 0.681390 0.742180 1.415883
C9    C     C_R   0.088198 0.956408 0.606512 -0.063401
C10   C     C_R   0.911802 0.043592 0.393488 -0.063401
C11   C     C_R   0.411804 0.456421 0.893485 -0.063397
C12   C     C_R   0.588196 0.543578 0.106515 -0.063397
C13   C     C_R   0.004620 0.222255 0.456510 -0.196618
C14   C     C_R   0.995379 0.777745 0.543490 -0.196618
C15   C     C_R   0.495359 0.722206 0.043515 -0.196597
C16   C     C_R   0.504641 0.277794 0.956484 -0.196597
C17   C     C_R   0.951669 0.203591 0.402081 -0.159449
C18   C     C_R   0.048331 0.796409 0.597919 -0.159449
C19   C     C_R   0.548314 0.703544 0.097940 -0.159452
C20   C     C_R   0.451686 0.296456 0.902059 -0.159453
C21   C     C_R   0.927429 0.899772 0.440365 -0.235996
C22   C     C_R   0.072571 0.100227 0.559635 -0.235996
C23   C     C_R   0.572582 0.399790 0.059622 -0.235992
C24   C     C_R   0.427418 0.600209 0.940378 -0.235992
C25   C     C_R   0.980622 0.918519 0.495808 0.157361
C26   C     C_R   0.019377 0.081481 0.504192 0.157361
C27   C     C_R   0.519386 0.418536 0.004182 0.157350
C28   C     C_R   0.480614 0.581464 0.995817 0.157350
H1    H     H_    0.102913 0.223488 0.564989 0.126244
H2    H     H_    0.897086 0.776512 0.435011 0.126244
H3    H     H_    0.397062 0.723440 0.935038 0.126241
H4    H     H_    0.602938 0.276560 0.064962 0.126241
H5    H     H_    0.058584 0.683127 0.633201 0.128635
H6    H     H_    0.941415 0.316873 0.366799 0.128635
H7    H     H_    0.441442 0.183200 0.866764 0.128624
H8    H     H_    0.558558 0.816800 0.133236 0.128624
H9    H     H_    0.033646 0.347915 0.461580 0.122132
H10   H     H_    0.966354 0.652085 0.538420 0.122132
H11   H     H_    0.466321 0.847838 0.038461 0.122137
H12   H     H_    0.533679 0.152162 0.961539 0.122137
C29   C     C_3   0.544426 0.127836 0.521676 0.511468
C30   C     C_3   0.455574 0.872164 0.478324 0.511470
C31   C     C_3   0.955576 0.627838 0.978324 0.511467
C32   C     C_3   0.044424 0.372162 0.021676 0.511470
C33   C     C_3   0.533173 0.955139 0.562434 -0.269977
C34   C     C_3   0.466827 0.044861 0.437565 -0.269974
C35   C     C_3   0.966827 0.455139 0.937565 -0.269968
C36   C     C_3   0.033173 0.544861 0.062435 -0.269958
H13   H     H_    0.560302 0.920727 0.613793 0.131480
H14   H     H_    0.439698 0.079273 0.386207 0.131481
H15   H     H_    0.939698 0.420728 0.886206 0.131482
H16   H     H_    0.060302 0.579271 0.113794 0.131483
H17   H     H_    0.555514 0.700404 0.495893 0.145429
H18   H     H_    0.444486 0.299596 0.504106 0.145429
H19   H     H_    0.944481 0.200407 0.004104 0.145428
H20   H     H_    0.055519 0.799593 0.995895 0.145427
C37   C     C_1   0.371336 0.969898 0.625008 -0.179224
C38   C     C_1   0.628664 0.030102 0.374992 -0.179224
C39   C     C_1   0.128664 0.469896 0.874992 -0.179225
C40   C     C_1   0.871336 0.530104 0.125008 -0.179224
C41   C     C_3   0.469307 0.164838 0.501577 -0.292889
C42   C     C_3   0.530693 0.835162 0.498423 -0.292890
C43   C     C_3   0.030695 0.664837 0.998424 -0.292898
C44   C     C_3   0.969304 0.335163 0.001576 -0.292903
C45   C     C_3   0.457661 0.989811 0.541426 0.063352
C46   C     C_3   0.542339 0.010189 0.458574 0.063352
C47   C     C_3   0.042339 0.489809 0.958574 0.063352
C48   C     C_3   0.957661 0.510191 0.041425 0.063351
C49   C     C_1   0.410047 0.978055 0.587166 0.007954
C50   C     C_1   0.589953 0.021945 0.412834 0.007955
C51   C     C_1   0.089953 0.478052 0.912834 0.007951
C52   C     C_1   0.910047 0.521948 0.087166 0.007951
O21   O     O_3   0.594290 0.260936 0.542113 -0.551107
C53   C     C_3   0.580065 0.362206 0.596808 0.083316
H21   H     H_    0.572296 0.269612 0.638303 0.115681
H22   H     H_    0.535336 0.449279 0.580452 0.125456
C54   C     C_3   0.638074 0.488587 0.624029 -0.695130
H23   H     H_    0.647713 0.582611 0.583929 0.226079
H24   H     H_    0.626658 0.572513 0.666009 0.171979
H25   H     H_    0.683155 0.405289 0.642795 0.223911
O22   O     O_3   0.405710 0.739065 0.457887 -0.551107
C55   C     C_3   0.419936 0.637790 0.403193 0.083317
H26   H     H_    0.464664 0.550714 0.419552 0.125457
H27   H     H_    0.427708 0.730380 0.361698 0.115681
C56   C     C_3   0.361927 0.511411 0.375971 -0.695135
H28   H     H_    0.316847 0.594711 0.357201 0.223910
H29   H     H_    0.373344 0.427478 0.333994 0.171980
H30   H     H_    0.352283 0.417395 0.416072 0.226082
O23   O     O_3   0.905714 0.760937 0.957887 -0.551109
C57   C     C_3   0.919943 0.862212 0.903194 0.083316
H31   H     H_    0.927718 0.769623 0.861700 0.115680
H32   H     H_    0.964669 0.949295 0.919556 0.125456
C58   C     C_3   0.861933 0.988581 0.875969 -0.695126
H33   H     H_    0.852286 0.082599 0.916069 0.226078
H34   H     H_    0.873352 0.072514 0.833993 0.171980
H35   H     H_    0.816854 0.905273 0.857197 0.223907
O24   O     O_3   0.094286 0.239065 0.042114 -0.551109
C59   C     C_3   0.080051 0.137769 0.096799 0.083314
H36   H     H_    0.035329 0.050677 0.080428 0.125459
H37   H     H_    0.072266 0.230344 0.138294 0.115679
C60   C     C_3   0.138063 0.011410 0.124029 -0.695114
H38   H     H_    0.183135 0.094728 0.142820 0.223897
H39   H     H_    0.126635 0.927441 0.165994 0.171978
H40   H     H_    0.147725 0.917424 0.083926 0.226085

loop_
_geom_bond_atom_site_label_1
_geom_bond_atom_site_label_2
_ccdc_geom_bond_type
O17   V3    S    
C24   H3    S    
O1    C5    A    
C54   H23   S    
C38   C50   T    
C43   C47   S    
O19   V1    S    
O13   V1    S    
O3    C7    A    
C48   C52   S    
C36   H16   S    
O15   V3    S    
O21   C53   S    
C5    C12   S    
O7    C3    A    
C6    C11   S    
C9    C18   A    
O9    V1    S    
C17   H6    S    
C14   C18   A    
H20   C43   S    
C56   H29   S    
O4    C8    A    
C55   H26   S    
C20   H7    S    
C2    C39   S    
O1    V3    S    
C32   C47   S    
C12   C23   A    
O2    V4    S    
C40   C52   T    
O3    V1    S    
C34   H14   S    
C1    O15   A    
C36   C48   S    
C44   C48   S    
C2    O16   A    
O2    C6    A    
C60   H40   S    
C33   H13   S    
O14   V2    S    
C16   C20   A    
C32   C36   S    
O11   C7    A    
C15   C28   A    
O12   C8    A    
C45   C49   S    
C9    C22   A    
C34   C46   S    
C10   C17   A    
O10   V2    S    
C33   C45   S    
C11   C24   A    
C18   H5    S    
H19   C44   S    
C46   C50   S    
C30   C45   S    
O5    V1    S    
C3    C38   S    
C29   C46   S    
O7    V3    S    
C27   C28   A    
O8    V4    S    
C42   C46   S    
C58   H35   S    
C14   C25   A    
C41   C45   S    
O18   V4    S    
C23   C27   A    
O5    C1    A    
C37   C49   T    
C57   H32   S    
C21   C25   A    
O8    C4    A    
C7    C10   S    
C39   C51   T    
O9    C5    A    
C10   C21   A    
O11   V3    S    
C11   C20   A    
O24   C59   S    
C19   H8    S    
H18   C41   S    
O6    V2    S    
C21   H2    S    
C53   H21   S    
C54   H25   S    
C53   H22   S    
H17   C42   S    
C60   H38   S    
C32   C44   S    
C56   H30   S    
C30   O22   S    
C59   H37   S    
C53   C54   S    
C36   C43   S    
C13   H9    S    
O23   C57   S    
O16   V4    S    
C3    O13   A    
C32   O24   S    
C30   C42   S    
C15   C19   A    
C29   C41   S    
O12   V4    S    
C16   C27   A    
C15   H11   S    
O22   C55   S    
C22   C26   A    
C31   C43   S    
C8    C9    S    
C16   H12   S    
O10   C6    A    
C59   C60   S    
C58   H34   S    
C31   O23   S    
C29   O21   S    
C58   H33   S    
C35   H15   S    
C13   C26   A    
C30   C34   S    
C55   H27   S    
C29   C33   S    
C22   H1    S    
O20   V2    S    
C31   C48   S    
C4    C37   S    
C31   C35   S    
C57   H31   S    
C13   C17   A    
C57   C58   S    
O6    C2    A    
C1    C40   S    
C47   C51   S    
C35   C44   S    
C24   C28   A    
C35   C47   S    
C54   H24   S    
C25   C26   A    
C4    O14   A    
C60   H39   S    
C12   C19   A    
C59   H36   S    
C56   H28   S    
C34   C41   S    
O4    V2    S    
C33   C42   S    
C23   H4    S    
C14   H10   S    
C55   C56   S    
