data_mof_unit_2893.cif
_audit_creation_date              2013-03-05T16:15:19-0500
_audit_creation_method            fapswitch 2.2
_symmetry_space_group_name_H-M    P1
_symmetry_Int_Tables_number       1
_space_group_crystal_system       triclinic
_cell_length_a                    27.645784
_cell_length_b                    10.652318
_cell_length_c                    9.407002
_cell_angle_alpha                 89.614265
_cell_angle_beta                  90.184272
_cell_angle_gamma                 87.696145
_cell_volume                      2767.96502188

loop_
_atom_site_label
_atom_site_type_symbol
_atom_site_description
_atom_site_fract_x
_atom_site_fract_y
_atom_site_fract_z
_atom_type_partial_charge
O1    O     O_R   0.500020 0.316850 0.620870 -0.586839
O2    O     O_R   0.499980 0.683150 0.379130 -0.586885
O3    O     O_R   0.500000 0.316860 0.379090 -0.580839
O4    O     O_R   0.500000 0.683140 0.620910 -0.580767
C1    C     C_R   0.500104 0.259280 0.500456 0.787846
C2    C     C_R   0.499896 0.740720 0.499545 0.787765
O5    O     O_R   0.430270 0.500020 0.620880 -0.582841
O6    O     O_R   0.569730 0.499980 0.379120 -0.582103
O7    O     O_R   0.430250 0.500030 0.379090 -0.584671
O8    O     O_R   0.569750 0.499970 0.620910 -0.585569
C3    C     C_R   0.407320 0.503692 0.499909 0.795015
C4    C     C_R   0.592683 0.496348 0.500370 0.795078
Cu1   Cu    Cu3+1 0.500010 0.499990 0.643150 0.935189
Cu2   Cu    Cu3+1 0.499990 0.500010 0.356850 0.935589
C5    C     C_R   0.181755 0.417753 0.542597 0.573929
C6    C     C_R   0.818484 0.581416 0.547265 0.573591
O9    O     O_2   0.211316 0.314485 0.557881 -0.520629
O10   O     O_2   0.789044 0.684471 0.563944 -0.521343
N1    N     N_R   0.200840 0.531208 0.512186 -0.471808
N2    N     N_R   0.799220 0.468669 0.515800 -0.471515
C7    C     C_R   0.171930 0.637643 0.495094 0.554383
C8    C     C_R   0.828030 0.362551 0.497084 0.554234
C9    C     C_R   0.276699 0.527559 0.376369 -0.099000
C10   C     C_R   0.723221 0.469732 0.379194 -0.100054
C11   C     C_R   0.327252 0.516798 0.373429 -0.216101
C12   C     C_R   0.672664 0.480535 0.375316 -0.218213
C13   C     C_R   0.329284 0.528050 0.630902 -0.212193
C14   C     C_R   0.670821 0.475032 0.633134 -0.211305
C15   C     C_R   0.278938 0.539024 0.633419 -0.102974
C16   C     C_R   0.721166 0.464093 0.636607 -0.101000
C17   C     C_R   0.252461 0.537747 0.506527 0.354376
C18   C     C_R   0.747563 0.462507 0.509967 0.353481
C19   C     C_R   0.101256 0.516270 0.543635 -0.049616
C20   C     C_R   0.898956 0.482752 0.545867 -0.049703
C21   C     C_R   0.131698 0.408245 0.558937 -0.093821
C22   C     C_R   0.868613 0.590472 0.562940 -0.093328
C23   C     C_R   0.111971 0.294539 0.598009 -0.176265
C24   C     C_R   0.888551 0.703338 0.602818 -0.176693
C25   C     C_R   0.121417 0.632283 0.510748 -0.026077
C26   C     C_R   0.878613 0.367470 0.512113 -0.025506
C27   C     C_R   0.353981 0.515359 0.501004 -0.041021
C28   C     C_R   0.646027 0.484825 0.502518 -0.041434
H1    H     H_    0.348774 0.528262 0.730957 0.153845
H2    H     H_    0.651413 0.477076 0.732960 0.150867
H3    H     H_    0.260314 0.545137 0.734394 0.139305
H4    H     H_    0.739856 0.460126 0.737989 0.139554
H5    H     H_    0.135616 0.213376 0.621553 0.229341
H6    H     H_    0.865039 0.784026 0.627711 0.229088
C29   C     C_R   0.979875 0.380245 0.554900 0.083855
C30   C     C_R   0.020386 0.618504 0.555512 0.083877
C31   C     C_R   0.970033 0.609506 0.580883 -0.076460
C32   C     C_R   0.030370 0.388759 0.579031 -0.077071
C33   C     C_R   0.949688 0.490745 0.561256 0.029410
C34   C     C_R   0.050607 0.507911 0.560062 0.029611
C35   C     C_R   0.959112 0.267630 0.512594 -0.063787
C36   C     C_R   0.040906 0.731938 0.513682 -0.064620
C37   C     C_R   0.909231 0.260881 0.493076 -0.105710
C38   C     C_R   0.090687 0.739173 0.493260 -0.104720
O11   O     O_2   0.807834 0.252894 0.465704 -0.518314
O12   O     O_2   0.191968 0.747993 0.464687 -0.517471
C39   C     C_R   0.062146 0.284854 0.615390 0.375516
C40   C     C_R   0.938464 0.712678 0.619072 0.374885
H7    H     H_    0.654535 0.487075 0.273150 0.153756
H8    H     H_    0.345301 0.507904 0.271781 0.149884
H9    H     H_    0.743508 0.470367 0.280946 0.141793
H10   H     H_    0.256333 0.524602 0.278023 0.141013
H11   H     H_    0.894812 0.171909 0.462483 0.206648
H12   H     H_    0.104941 0.828766 0.463226 0.207551
H13   H     H_    0.981402 0.184803 0.489683 0.206180
H14   H     H_    0.018471 0.815127 0.491941 0.206900
C41   C     C_3   0.500127 0.039439 0.635400 -0.139172
C42   C     C_3   0.499872 0.960560 0.364605 -0.139373
C43   C     C_3   0.539795 0.953206 0.567106 -0.158326
C44   C     C_3   0.460204 0.046793 0.432899 -0.157810
H15   H     H_    0.572371 0.911899 0.621913 0.138886
H16   H     H_    0.427628 0.088101 0.378092 0.138133
H17   H     H_    0.500240 0.074103 0.746436 0.130834
H18   H     H_    0.499759 0.925897 0.253568 0.130811
C45   C     C_3   0.499937 0.877745 0.498668 0.013797
C46   C     C_3   0.500062 0.122255 0.501336 0.013970
C47   C     C_3   0.460269 0.961760 0.566850 -0.163014
C48   C     C_3   0.539730 0.038239 0.433155 -0.163684
H19   H     H_    0.427746 0.927461 0.621448 0.136444
H20   H     H_    0.572253 0.072536 0.378557 0.136533
C49   C     C_3   0.507033 0.611214 0.049649 -0.034278
C50   C     C_3   0.492966 0.388787 0.950349 -0.035059
C51   C     C_3   0.466154 0.575312 0.948375 -0.037601
C52   C     C_3   0.533845 0.424688 0.051622 -0.038446
H21   H     H_    0.437726 0.638667 0.899807 0.111768
H22   H     H_    0.562271 0.361323 0.100181 0.113052
H23   H     H_    0.513056 0.704954 0.095738 0.114173
H24   H     H_    0.486943 0.295047 0.904258 0.114480
N3    N     N_3   0.500040 0.499970 0.858290 -0.154398
N4    N     N_3   0.499960 0.500030 0.141710 -0.154343
C53   C     C_3   0.540924 0.535850 0.949710 -0.038132
C54   C     C_3   0.459075 0.464151 0.050289 -0.036898
H25   H     H_    0.575356 0.566383 0.902815 0.115150
H26   H     H_    0.424638 0.433649 0.097190 0.114857
S1    S     S_3+6 0.044421 0.151971 0.713160 0.009413
O13   O     O_2   0.045906 0.040771 0.615871 -0.274031
O14   O     O_2   0.080181 0.126854 0.831802 -0.284774
O15   O     O_3   0.988906 0.174542 0.783741 -0.493080
H27   H     H_    0.987317 0.112405 0.862171 0.392903
S2    S     S_3+6 0.956711 0.843782 0.717397 0.012073
O16   O     O_2   0.954483 0.956776 0.621032 -0.270439
O17   O     O_2   0.921727 0.866431 0.837478 -0.280944
O18   O     O_3   0.012674 0.820308 0.785917 -0.494492
H28   H     H_    0.015836 0.886768 0.858097 0.395925

loop_
_geom_bond_atom_site_label_1
_geom_bond_atom_site_label_2
_geom_bond_distance
_ccdc_geom_bond_type
C13   C15   1.392361 A    
C42   C44   1.546167 S    
C12   H7    1.083002 S    
N1    C17   1.432752 S    
S2    O17   1.503846 D    
C49   H23   1.109750 S    
O2    C2    1.291684 A    
O5    C3    1.300711 A    
C30   C34   1.416926 A    
C44   H16   1.110208 S    
O1    C1    1.291677 A    
C9    H10   1.082756 S    
N1    C7    1.368926 A    
C10   C12   1.398129 A    
C42   C45   1.534136 S    
C32   C39   1.424276 A    
C50   C52   1.537468 S    
O4    Cu1   1.960745 S    
S2    O16   1.501099 D    
C4    C28   1.474998 S    
C54   H26   1.110073 S    
C42   H18   1.110246 S    
O18   H28   0.990429 S    
C23   H5    1.083923 S    
C24   H6    1.083909 S    
O6    C4    1.303027 A    
C52   C53   1.537563 S    
N3    C53   1.481915 S    
C44   C46   1.532460 S    
Cu1   Cu2   2.693221 S    
C43   H15   1.110210 S    
C39   S1    1.769415 S    
C31   C40   1.424362 A    
C37   H11   1.083183 S    
O8    C4    1.300945 A    
C5    C21   1.400495 A    
C41   C46   1.534139 S    
C47   H19   1.110211 S    
C32   C34   1.417924 A    
C40   S2    1.769581 S    
C49   C51   1.537469 S    
C52   N4    1.481108 S    
C7    O12   1.348820 S    
O4    C2    1.292309 A    
C11   C27   1.406987 A    
C8    O11   1.348833 S    
C45   C47   1.532420 S    
C29   C35   1.409699 A    
C25   C38   1.401454 A    
C14   H2    1.082944 S    
C30   C36   1.409564 A    
C15   H3    1.082990 S    
C31   C33   1.417942 A    
C11   H8    1.082930 S    
C9    C17   1.400409 A    
C5    N1    1.366900 A    
O7    Cu2   1.939995 S    
C10   C18   1.400485 A    
C50   N3    1.482161 S    
C49   N4    1.482171 S    
C13   C27   1.406340 A    
S1    O13   1.501110 D    
C7    C25   1.408095 A    
C6    N2    1.367067 A    
C29   C32   1.420196 A    
C8    C26   1.408199 A    
C51   C54   1.537570 S    
C30   C31   1.420045 A    
C43   C45   1.532461 S    
C19   C25   1.408856 A    
C1    C46   1.459652 S    
N4    C54   1.481935 S    
O7    C3    1.303214 A    
C35   H13   1.079053 S    
O3    Cu2   1.960744 S    
C50   C54   1.536734 S    
C10   H9    1.082745 S    
C38   H12   1.083162 S    
S1    O14   1.504046 D    
C52   H22   1.110274 S    
C36   H14   1.079046 S    
C35   C37   1.395358 A    
C20   C26   1.408820 A    
O1    Cu1   1.963484 S    
C44   C47   1.546849 S    
C22   C24   1.395722 A    
C43   C48   1.546847 S    
C41   H17   1.110247 S    
C12   C28   1.407085 A    
C41   C43   1.546167 S    
N2    C18   1.433143 S    
C19   C34   1.415524 A    
C5    O9    1.350356 S    
O6    Cu2   1.938682 S    
C26   C37   1.401489 A    
C21   C23   1.395705 A    
C16   H4    1.082989 S    
N2    C8    1.369080 A    
O3    C1    1.292317 A    
O8    Cu1   1.939995 S    
C23   C39   1.395495 A    
C53   H25   1.110043 S    
C48   H20   1.110209 S    
C51   H21   1.110286 S    
C14   C16   1.392289 A    
C15   C17   1.398645 A    
C50   H24   1.109750 S    
C6    C22   1.400438 A    
C16   C18   1.398894 A    
C49   C53   1.536730 S    
C2    C45   1.459648 S    
C29   C33   1.416985 A    
C51   N3    1.481107 S    
C14   C28   1.406238 A    
C19   C21   1.404377 A    
C46   C48   1.532416 S    
C36   C38   1.395323 A    
C3    C27   1.474909 S    
C20   C22   1.404332 A    
C9    C11   1.398065 A    
O15   H27   0.990127 S    
O2    Cu2   1.963483 S    
C13   H1    1.083085 S    
O5    Cu1   1.938682 S    
S1    O15   1.683194 S    
C20   C33   1.415526 A    
C6    O10   1.350355 S    
Cu1   N3    2.023819 S    
C24   C40   1.395440 A    
Cu2   N4    2.023819 S    
S2    O18   1.682843 S    
C42   C48   1.546168 S    
C41   C47   1.546171 S    
