data_mof_unit_559.cif
_audit_creation_date              2012-12-10T18:54:22-0500
_audit_creation_method            fapswitch 2.2
_symmetry_space_group_name_H-M    P1
_symmetry_Int_Tables_number       1
_space_group_crystal_system       triclinic
_cell_length_a                    10.674542
_cell_length_b                    9.807565
_cell_length_c                    23.500503
_cell_angle_alpha                 90.095366
_cell_angle_beta                  90.746651
_cell_angle_gamma                 89.434001
_cell_volume                      2459.96553888

loop_
_atom_site_label
_atom_site_type_symbol
_atom_type_description
_atom_site_fract_x
_atom_site_fract_y
_atom_site_fract_z
_atom_type_partial_charge
C1    C     C_R   0.260343 0.500843 0.499267 0.907377
C2    C     C_R   0.560509 0.379794 0.701463 0.040202
C3    C     C_R   0.420088 0.383170 0.238842 0.126947
C4    C     C_R   0.565048 0.374431 0.761012 0.088973
C5    C     C_R   0.461409 0.493880 0.207198 0.234502
C6    C     C_R   0.530973 0.488947 0.792871 0.247480
C7    C     C_R   0.067387 0.488537 0.552019 -0.077396
C8    C     C_R   0.932336 0.509017 0.447168 -0.066291
C9    C     C_R   0.936611 0.489424 0.552325 -0.041231
C10   C     C_R   0.062823 0.514680 0.447123 -0.018091
C11   C     C_R   0.872115 0.496674 0.499795 -0.183344
C12   C     C_R   0.739576 0.499203 0.500126 0.828244
C13   C     C_R   0.127735 0.503820 0.499539 -0.181862
C14   C     C_R   0.583178 0.071308 0.533311 -0.051131
C15   C     C_R   0.416832 0.928659 0.466690 -0.065334
C16   C     C_R   0.416624 0.072772 0.466808 -0.070852
C17   C     C_R   0.583040 0.927177 0.533384 -0.074275
C18   C     C_R   0.496679 0.499899 0.388989 0.914956
C19   C     C_R   0.503205 0.500122 0.611017 0.871434
C20   C     C_R   0.627794 0.470238 0.885683 0.632543
C21   C     C_R   0.362470 0.485916 0.114542 0.608711
C22   C     C_R   0.405200 0.465704 0.875864 0.577094
C23   C     C_R   0.508003 0.611834 0.234155 0.008574
C24   C     C_R   0.584041 0.457077 0.123997 0.580445
C25   C     C_R   0.390824 0.462856 0.935198 -0.041757
C26   C     C_R   0.597896 0.452495 0.064700 -0.020126
C27   C     C_R   0.499823 0.460054 0.970135 -0.085795
C28   C     C_R   0.488661 0.461042 0.029916 -0.069330
C29   C     C_R   0.620057 0.458019 0.945203 -0.039255
C30   C     C_R   0.368476 0.472361 0.054892 -0.061256
C31   C     C_R   0.271327 0.464750 0.960181 0.133625
C32   C     C_R   0.717302 0.441875 0.039619 0.075448
C33   C     C_R   0.259736 0.471023 0.019401 0.055976
C34   C     C_R   0.494278 0.611989 0.766209 0.012801
C35   C     C_R   0.728316 0.445885 0.980099 0.077234
C36   C     C_2   0.544833 0.733962 0.200687 0.466219
C37   C     C_2   0.465556 0.737233 0.799997 0.461813
C38   C     C_2   0.142842 0.466975 0.605249 0.531282
C39   C     C_2   0.856673 0.518892 0.393263 0.362119
C40   C     C_2   0.865321 0.488824 0.606597 0.477688
C41   C     C_2   0.130930 0.522923 0.392310 0.437717
C42   C     C_R   0.521443 0.613623 0.293649 -0.023053
C43   C     C_R   0.482902 0.616096 0.706677 -0.047404
C44   C     C_R   0.483259 0.499376 0.326292 -0.102601
C45   C     C_R   0.515023 0.499147 0.673778 -0.086849
C46   C     C_R   0.428337 0.385689 0.298088 0.019323
H1    H     H_    0.649666 0.125538 0.559834 0.139566
H2    H     H_    0.123709 0.392085 0.069395 0.233998
H3    H     H_    0.892285 0.344317 0.967151 0.181150
H4    H     H_    0.904099 0.517619 0.970049 0.189843
H5    H     H_    0.604360 0.811128 0.219668 0.100725
H6    H     H_    0.412612 0.820832 0.781000 0.097672
H7    H     H_    0.651357 0.703665 0.345616 0.239455
H8    H     H_    0.507271 0.783815 0.343199 0.226000
H9    H     H_    0.358649 0.718881 0.655312 0.217909
H10   H     H_    0.507954 0.784017 0.657164 0.219621
H11   H     H_    0.452354 0.215438 0.346772 0.215063
H12   H     H_    0.350503 0.874394 0.440082 0.165198
H13   H     H_    0.315723 0.305337 0.358730 0.197547
H14   H     H_    0.549089 0.179589 0.679183 0.192768
H15   H     H_    0.696729 0.243822 0.679533 0.190065
H16   H     H_    0.281302 0.248472 0.222866 0.228156
H17   H     H_    0.428106 0.180886 0.221453 0.206191
H18   H     H_    0.692104 0.224124 0.778535 0.217950
H19   H     H_    0.540006 0.173744 0.778306 0.192743
H20   H     H_    0.231224 0.518899 0.611264 0.009922
H21   H     H_    0.767763 0.466881 0.389542 0.061867
H22   H     H_    0.776282 0.437074 0.608806 0.041605
H23   H     H_    0.349748 0.128120 0.440486 0.127845
H24   H     H_    0.101110 0.461581 0.356213 0.100256
H25   H     H_    0.649257 0.871719 0.560056 0.138438
H26   H     H_    0.108094 0.552149 0.933436 0.212075
H27   H     H_    0.107273 0.378371 0.936131 0.204268
H28   H     H_    0.877053 0.341643 0.064332 0.188224
H29   H     H_    0.884662 0.515467 0.067441 0.198702
H30   H     H_    0.119127 0.567215 0.062014 0.248293
N1    N     N_R   0.521464 0.474763 0.853142 -0.332625
N2    N     N_3   0.436928 0.739907 0.680913 -0.475613
N3    N     N_3   0.378815 0.271164 0.328074 -0.470061
N4    N     N_3   0.602986 0.264326 0.669044 -0.444112
N5    N     N_3   0.373032 0.265229 0.209673 -0.430176
N6    N     N_3   0.601194 0.251526 0.790284 -0.435154
N7    N     N_R   0.469103 0.479017 0.146850 -0.322849
N8    N     N_R   0.500000 0.857200 0.500000 -0.088234
N9    N     N_R   0.500000 0.142800 0.500000 -0.081258
N10   N     N_3   0.159989 0.463477 0.925310 -0.349190
N11   N     N_3   0.828246 0.430995 0.074639 -0.368232
N12   N     N_3   0.135177 0.474034 0.041626 -0.498767
N13   N     N_3   0.850034 0.436589 0.955140 -0.380450
N14   N     N_3   0.575433 0.732419 0.319667 -0.467631
O1    O     O_R   0.316770 0.614620 0.500000 -0.584479
O2    O     O_2   0.252509 0.507802 0.140752 -0.561046
O3    O     O_2   0.304616 0.461735 0.840503 -0.512971
O4    O     O_2   0.684030 0.441837 0.159263 -0.526457
O5    O     O_2   0.506824 0.752212 0.152046 -0.570820
O6    O     O_2   0.503278 0.750735 0.848926 -0.570517
O7    O     O_2   0.109780 0.386496 0.641555 -0.516883
O8    O     O_2   0.890301 0.588676 0.353395 -0.555401
O9    O     O_2   0.902493 0.551218 0.648431 -0.519313
O10   O     O_2   0.217766 0.601433 0.386456 -0.574563
O11   O     O_R   0.683230 0.385380 0.500000 -0.627599
O12   O     O_R   0.683230 0.614620 0.500000 -0.608716
O13   O     O_R   0.316770 0.385380 0.500000 -0.631436
O14   O     O_R   0.499970 0.614690 0.416160 -0.604521
O15   O     O_R   0.500030 0.385310 0.583840 -0.586967
O16   O     O_R   0.500030 0.614690 0.583840 -0.645116
O17   O     O_R   0.499970 0.385310 0.416160 -0.641761
O18   O     O_2   0.739694 0.479744 0.859997 -0.499307
Zn1   Zn    Zn3+2 0.500000 0.653120 0.500000 0.970415
Zn2   Zn    Zn3+2 0.500000 0.346880 0.500000 0.957206

loop_
_geom_bond_atom_site_label_1
_geom_bond_atom_site_label_2
_ccdc_geom_bond_type
C25   C31   A    
O15   Zn2   S    
C26   C32   A    
C27   C29   A    
C34   C37   S    
H11   N3    S    
C40   O9    D    
C43   N2    S    
C23   C42   A    
C20   N1    A    
H17   N5    S    
O13   Zn2   S    
C24   N7    A    
C24   C26   A    
H8    N14   S    
C24   O4    S    
C46   N3    S    
C5    N7    S    
H15   N4    S    
C15   C16   A    
H10   N2    S    
C18   O17   A    
C21   N7    A    
C22   C25   A    
C3    N5    S    
H2    N12   S    
C8    C39   S    
H28   N11   S    
H30   N12   S    
C1    O1    A    
C31   N10   S    
C10   C41   S    
C14   C17   A    
C42   C44   A    
C38   O7    D    
C44   C46   A    
C20   C29   A    
C2    C45   A    
C34   C43   A    
C32   C35   A    
C38   H20   S    
C14   N9    A    
C4    C6    A    
N9    Zn2   S    
H13   N3    S    
C37   H6    S    
C39   O8    D    
C22   O3    S    
C3    C5    A    
O11   Zn2   S    
C32   N11   S    
C9    C40   S    
C6    C34   A    
C37   O6    D    
C42   N14   S    
C2    C4    A    
C12   O12   A    
C18   C44   S    
C43   C45   A    
H4    N13   S    
C5    C23   A    
C31   C33   A    
C41   O10   D    
C18   O14   A    
C9    C11   A    
H18   N6    S    
C14   H1    S    
C36   H5    S    
C19   O15   A    
H29   N11   S    
H16   N5    S    
C17   H25   S    
C16   N9    A    
C15   H12   S    
C1    C13   S    
C35   N13   S    
H7    N14   S    
C7    C9    A    
C1    O13   A    
H14   N4    S    
C30   C33   A    
C39   H21   S    
C33   N12   S    
C16   H23   S    
C22   N1    A    
H3    N13   S    
C6    N1    S    
C10   C13   A    
H26   N10   S    
C11   C12   S    
C19   C45   S    
C15   N8    A    
C25   C27   A    
C21   C30   A    
C29   C35   A    
C3    C46   A    
C26   C28   A    
N8    Zn1   S    
C17   N8    A    
O1    Zn1   S    
C28   C30   A    
C12   O11   A    
C36   O5    D    
H19   N6    S    
O14   Zn1   S    
C8    C11   A    
O17   Zn2   S    
C7    C38   S    
H27   N10   S    
C2    N4    S    
H9    N2    S    
C19   O16   A    
C7    C13   A    
C4    N6    S    
C8    C10   A    
C23   C36   S    
C40   H22   S    
C27   C28   A    
O12   Zn1   S    
O16   Zn1   S    
C41   H24   S    
C20   O18   S    
C21   O2    S    
