data_mof_unit_900.cif
_audit_creation_date              2012-10-26T19:59:15-0400
_audit_creation_method            fapswitch 2.2
_symmetry_space_group_name_H-M    P1
_symmetry_Int_Tables_number       1
_space_group_crystal_system       triclinic
_cell_length_a                    7.506563
_cell_length_b                    8.694096
_cell_length_c                    15.813905
_cell_angle_alpha                 95.49731
_cell_angle_beta                  75.274429
_cell_angle_gamma                 103.5391
_cell_volume                      969.699218316

loop_
_atom_site_label
_atom_site_type_symbol
_atom_type_description
_atom_site_fract_x
_atom_site_fract_y
_atom_site_fract_z
_atom_type_partial_charge
C1    C     C_R   0.545290 0.800091 0.502703 0.537730
C2    C     C_R   0.615095 0.511980 0.334091 0.537881
C3    C     C_R   0.315971 0.476532 0.761198 0.002956
C4    C     C_R   0.684196 0.533852 0.239670 0.002258
C5    C     C_R   0.071340 0.382829 0.888655 -0.131611
C6    C     C_R   0.918939 0.657705 0.116529 -0.132134
C7    C     C_R   0.126935 0.411123 0.799569 -0.121882
C8    C     C_R   0.867681 0.616589 0.203752 -0.126177
C9    C     C_R   0.446218 0.521207 0.813399 -0.132114
C10   C     C_R   0.555642 0.486416 0.186875 -0.130131
C11   C     C_R   0.393373 0.496875 0.903765 0.026061
C12   C     C_R   0.454721 0.199909 0.497282 0.537851
C13   C     C_R   0.601034 0.531333 0.099594 0.025553
C14   C     C_R   0.203426 0.422136 0.940476 0.044265
C15   C     C_R   0.787018 0.617343 0.064626 0.042393
C16   C     C_R   0.524976 0.539430 0.957751 0.027173
C17   C     C_R   0.466805 0.495556 0.046799 0.028393
C18   C     C_R   0.275571 0.420488 0.080439 -0.139646
C19   C     C_R   0.711778 0.626386 0.926054 -0.139916
C20   C     C_R   0.147165 0.385430 0.028233 -0.130199
C21   C     C_R   0.839312 0.664481 0.978654 -0.129547
C22   C     C_2   0.570125 0.968488 0.504057 -0.131984
C23   C     C_2   0.429904 0.031509 0.495904 -0.131955
C24   C     C_R   0.384998 0.489152 0.666014 0.537586
Cl1   Cl    Cl    0.016574 0.666197 0.606975 -0.514559
Cl2   Cl    Cl    0.983450 0.333854 0.393003 -0.513170
Cu1   Cu    Cu3+1 0.322120 0.483240 0.490330 1.129751
Cu2   Cu    Cu3+1 0.677880 0.516760 0.509670 1.128817
H1    H     H_    0.002100 0.328510 0.056977 0.128322
H2    H     H_    0.764092 0.671163 0.861204 0.130719
H3    H     H_    0.704721 0.040855 0.511814 0.167586
H4    H     H_    0.295310 0.959141 0.488145 0.167641
H5    H     H_    0.980657 0.731536 0.951572 0.126629
H6    H     H_    0.419670 0.416118 0.216600 0.142979
H7    H     H_    0.590239 0.569329 0.780926 0.147125
H8    H     H_    0.969052 0.654232 0.243689 0.150710
H9    H     H_    0.023965 0.376300 0.760306 0.153407
H10   H     H_    0.925406 0.327764 0.916888 0.123123
H11   H     H_    0.061087 0.723572 0.089943 0.124046
H12   H     H_    0.217648 0.389522 0.147665 0.134077
N1    N     N_2   0.945180 0.542040 0.524240 0.071641
N2    N     N_2   0.054820 0.457960 0.475760 0.071974
O1    O     O_R   0.384450 0.714270 0.493720 -0.473008
O2    O     O_R   0.615550 0.285730 0.506280 -0.473073
O3    O     O_R   0.684880 0.742590 0.510050 -0.485195
O4    O     O_R   0.315120 0.257410 0.489950 -0.485016
O5    O     O_R   0.265540 0.477900 0.617090 -0.469068
O6    O     O_R   0.734460 0.522100 0.382910 -0.468848
O7    O     O_R   0.565970 0.506210 0.633420 -0.495641
O8    O     O_R   0.434030 0.493790 0.366580 -0.493773

loop_
_geom_bond_atom_site_label_1
_geom_bond_atom_site_label_2
_ccdc_geom_bond_type
C2    C4    S    
C10   C13   A    
C3    C9    A    
Cu1   O1    S    
C5    C7    A    
N1    N2    D    
C18   C20   A    
Cu1   N2    S    
Cu1   O8    S    
C13   C17   A    
C4    C8    A    
C23   H4    S    
C17   C18   A    
C7    H9    S    
C1    C22   S    
C10   H6    S    
C5    H10   S    
C9    C11   A    
C12   C23   S    
C1    O3    A    
C5    C14   A    
C19   H2    S    
C16   C19   A    
Cu1   O4    S    
Cu1   O5    S    
C19   C21   A    
C1    O1    A    
C3    C7    A    
C20   H1    S    
C13   C15   A    
C11   C14   A    
Cu2   O3    S    
C11   C16   A    
C21   H5    S    
C22   H3    S    
C4    C10   A    
C14   C20   A    
Cu2   N1    S    
C15   C21   A    
Cl2   N2    S    
C12   O4    A    
C8    H8    S    
Cl1   N1    S    
C24   O7    A    
C9    H7    S    
C18   H12   S    
C6    H11   S    
C12   O2    A    
C6    C8    A    
C2    O8    A    
C2    O6    A    
C6    C15   A    
C22   C23   D    
C24   O5    A    
Cu2   O2    S    
Cu2   O6    S    
C3    C24   S    
C16   C17   A    
Cu1   Cu2   S    
Cu2   O7    S    
