data_mof_unit_4191.cif
_audit_creation_date              2013-03-05T15:52:25-0500
_audit_creation_method            fapswitch 2.2
_symmetry_space_group_name_H-M    P1
_symmetry_Int_Tables_number       1
_space_group_crystal_system       triclinic
_cell_length_a                    27.798618
_cell_length_b                    10.822336
_cell_length_c                    9.575679
_cell_angle_alpha                 90.048663
_cell_angle_beta                  90.159618
_cell_angle_gamma                 92.454418
_cell_volume                      2878.14922328

loop_
_atom_site_label
_atom_site_type_symbol
_atom_site_description
_atom_site_fract_x
_atom_site_fract_y
_atom_site_fract_z
_atom_type_partial_charge
O1    O     O_R   0.500000 0.319640 0.618810 -0.597652
O2    O     O_R   0.500000 0.319660 0.381240 -0.583907
C1    C     C_R   0.503517 0.262717 0.500616 0.817867
O3    O     O_R   0.430260 0.500010 0.618770 -0.569557
O4    O     O_R   0.430270 0.500030 0.381200 -0.581743
C2    C     C_R   0.407509 0.498042 0.499771 0.794486
Cu1   Cu    Cu3+1 0.500000 0.499990 0.640660 0.958815
Cu2   Cu    Cu3+1 0.500000 0.500010 0.359340 0.930486
O5    O     O_R   0.500000 0.680340 0.618760 -0.560974
O6    O     O_R   0.500000 0.680360 0.381190 -0.610406
O7    O     O_R   0.569730 0.499970 0.618800 -0.591619
O8    O     O_R   0.569740 0.499990 0.381230 -0.595521
C3    C     C_R   0.496200 0.737138 0.500859 0.793058
C4    C     C_R   0.592236 0.500246 0.499953 0.878294
C5    C     C_R   0.175737 0.379529 0.529388 0.533428
O9    O     O_2   0.198701 0.274817 0.556708 -0.542171
N1    N     N_R   0.201738 0.486436 0.499095 -0.465004
C6    C     C_R   0.179297 0.593433 0.468901 0.528023
C7    C     C_R   0.278988 0.515819 0.376103 -0.108758
C8    C     C_R   0.329174 0.519363 0.376312 -0.234663
C9    C     C_R   0.328838 0.461137 0.620822 -0.230104
C10   C     C_R   0.278652 0.458745 0.620780 -0.111704
C11   C     C_R   0.253450 0.486547 0.498582 0.348768
C12   C     C_R   0.101394 0.486330 0.497729 -0.045279
C13   C     C_R   0.125189 0.377889 0.530891 -0.019652
C14   C     C_R   0.098147 0.269991 0.563270 -0.147784
C15   C     C_R   0.128836 0.594929 0.465819 -0.017429
C16   C     C_R   0.354542 0.493162 0.499085 -0.042230
H1    H     H_    0.347491 0.438392 0.716227 0.150039
H2    H     H_    0.259326 0.436264 0.716075 0.147429
H3    H     H_    0.115542 0.184790 0.587076 0.186391
C17   C     C_R   0.644775 0.497423 0.498612 -0.212277
C18   C     C_R   0.972098 0.380208 0.542609 0.041444
C19   C     C_R   0.975831 0.591939 0.446288 0.042030
C20   C     C_R   0.948697 0.486145 0.493992 0.070351
C21   C     C_R   0.943445 0.280695 0.597752 -0.205471
C22   C     C_R   0.893514 0.283491 0.600166 -0.146377
C23   C     C_R   0.870112 0.385109 0.547076 -0.029235
C24   C     C_R   0.897568 0.486413 0.493248 -0.045460
C25   C     C_R   0.873797 0.588100 0.438827 -0.022441
C26   C     C_R   0.823283 0.586236 0.438134 0.543098
N2    N     N_R   0.797224 0.488041 0.493934 -0.439900
C27   C     C_R   0.819647 0.388494 0.548217 0.552579
C28   C     C_R   0.717485 0.398825 0.426604 -0.210250
C29   C     C_R   0.667127 0.402633 0.425724 0.332301
C30   C     C_R   0.672897 0.592291 0.563658 0.332560
C31   C     C_R   0.723008 0.586131 0.565598 -0.183766
C32   C     C_R   0.745528 0.490319 0.496383 0.233070
O10   O     O_2   0.793246 0.293652 0.604538 -0.543061
C33   C     C_R   0.023118 0.377638 0.535805 0.042233
C34   C     C_R   0.050260 0.486200 0.496465 0.068321
C35   C     C_R   0.026863 0.594665 0.455845 0.042093
C36   C     C_R   0.048159 0.269671 0.566034 -0.207984
H4    H     H_    0.734836 0.324705 0.373094 0.167253
H5    H     H_    0.873276 0.205042 0.643927 0.186285
H6    H     H_    0.958544 0.200105 0.643524 0.140360
H7    H     H_    0.030133 0.181996 0.588999 0.138729
O11   O     O_2   0.205745 0.698378 0.442937 -0.548626
C37   C     C_R   0.105462 0.702820 0.432706 -0.146089
H8    H     H_    0.348072 0.543579 0.280765 0.160802
H9    H     H_    0.259877 0.536446 0.280805 0.147296
H10   H     H_    0.125722 0.788172 0.410048 0.188705
C38   C     C_R   0.950782 0.691286 0.389292 -0.207848
C39   C     C_R   0.900803 0.689040 0.385476 -0.147077
O12   O     O_2   0.800369 0.681578 0.381251 -0.558411
C40   C     C_R   0.055523 0.702897 0.427503 -0.208702
H11   H     H_    0.968778 0.771382 0.343323 0.140494
H12   H     H_    0.883393 0.767588 0.340882 0.186237
H13   H     H_    0.744523 0.657849 0.618364 0.176574
H14   H     H_    0.040444 0.790607 0.404269 0.139360
H15   H     H_    0.499753 0.110866 0.278043 0.157914
C41   C     C_R   0.526757 0.115072 0.756978 -0.165156
H16   H     H_    0.547647 0.201602 0.758647 0.175469
C42   C     C_R   0.519781 0.054023 0.883775 -0.258396
H17   H     H_    0.533124 0.095866 0.979723 0.161854
C43   C     C_R   0.492928 0.942922 0.887916 -0.182431
H18   H     H_    0.483795 0.901384 0.987764 0.153923
C44   C     C_R   0.476748 0.886571 0.764123 0.464619
C45   C     C_R   0.491763 0.937875 0.632888 -0.043525
C46   C     C_R   0.508618 0.062219 0.631096 0.044872
C47   C     C_R   0.506455 0.128135 0.503287 -0.080590
C48   C     C_R   0.500252 0.063307 0.377508 -0.204507
H19   H     H_    0.494495 0.887782 0.278578 0.166756
C49   C     C_R   0.495490 0.935788 0.377943 -0.219648
C50   C     C_R   0.491866 0.871362 0.504506 -0.114377
H20   H     H_    0.446474 0.357869 0.128759 0.139954
C51   C     C_R   0.563276 0.665996 0.145217 -0.168346
H21   H     H_    0.566784 0.672814 0.255134 0.196789
C52   C     C_R   0.593783 0.748202 0.073512 -0.245785
H22   H     H_    0.617771 0.811939 0.130250 0.154058
C53   C     C_R   0.593838 0.748159 0.929752 -0.161766
H23   H     H_    0.617914 0.811938 0.874313 0.174143
C54   C     C_R   0.563318 0.666083 0.856840 -0.101092
H24   H     H_    0.566635 0.672863 0.746957 0.218456
C55   C     C_R   0.531075 0.581767 0.925624 0.208073
C56   C     C_R   0.531069 0.581707 0.075304 0.210297
N3    N     N_R   0.500460 0.501210 0.147910 -0.199845
C57   C     C_R   0.470570 0.421876 0.073627 -0.082971
H25   H     H_    0.446492 0.357941 0.869836 0.137490
C58   C     C_R   0.470578 0.421920 0.925568 -0.056203
N4    N     N_R   0.500480 0.501290 0.852040 -0.191023
O13   O     O_3   0.651727 0.692992 0.622790 -0.619081
C59   C     C_3   0.650132 0.787091 0.520690 0.031593
H26   H     H_    0.626576 0.756284 0.431835 0.119809
H27   H     H_    0.686924 0.812037 0.480621 0.174630
C60   C     C_3   0.629613 0.902658 0.585214 -0.366458
H28   H     H_    0.592906 0.879940 0.625639 0.216008
H29   H     H_    0.652816 0.934805 0.673866 0.229166
C61   C     C_3   0.627081 0.006760 0.478329 -0.811379
H30   H     H_    0.663586 0.032498 0.438108 0.266009
H31   H     H_    0.612213 0.089385 0.528368 0.274975
H32   H     H_    0.603403 0.977558 0.389623 0.246087
O14   O     O_3   0.443489 0.788123 0.776384 -0.592315
C62   C     C_3   0.399566 0.816897 0.711313 0.072435
H33   H     H_    0.399484 0.782374 0.601913 0.144278
H34   H     H_    0.393227 0.918236 0.710274 0.125785
C63   C     C_3   0.358051 0.752616 0.790694 -0.356077
H35   H     H_    0.364089 0.652119 0.797485 0.234103
H36   H     H_    0.357021 0.789996 0.898768 0.218200
C64   C     C_3   0.309819 0.772296 0.719237 -0.840883
H37   H     H_    0.302255 0.872235 0.717513 0.261561
H38   H     H_    0.280588 0.721907 0.777417 0.256418
H39   H     H_    0.310137 0.736773 0.610401 0.276089
O15   O     O_3   0.639245 0.309566 0.362031 -0.580645
C65   C     C_3   0.643533 0.321018 0.215603 0.113091
H40   H     H_    0.679021 0.288984 0.180482 0.141657
H41   H     H_    0.639315 0.418296 0.180388 0.151568
C66   C     C_3   0.604158 0.240715 0.145879 -0.796464
H42   H     H_    0.568231 0.272703 0.176207 0.262490
H43   H     H_    0.607721 0.247210 0.030601 0.197016
H44   H     H_    0.607081 0.142692 0.177903 0.241198

loop_
_geom_bond_atom_site_label_1
_geom_bond_atom_site_label_2
_geom_bond_distance
_ccdc_geom_bond_type
C28   C32   1.401606 A    
C51   H21   1.058990 S    
C14   C36   1.389782 A    
C54   H24   1.058820 S    
C55   C56   1.433292 A    
C17   C29   1.407632 A    
C20   C24   1.421424 A    
C7    C8    1.393984 A    
C12   C15   1.407745 A    
C45   C50   1.424127 A    
C66   H42   1.110266 S    
C62   H33   1.111867 S    
Cu1   Cu2   2.693830 S    
C40   H14   1.077118 S    
C28   C29   1.402240 A    
Cu1   O7    1.950256 S    
C30   O13   1.382171 S    
N1    C11   1.437493 S    
C42   C43   1.388472 A    
C39   H12   1.083480 S    
C21   C22   1.389911 A    
C43   C44   1.397038 A    
C61   H31   1.109972 S    
C37   C40   1.389026 A    
O4    C2    1.301079 A    
O7    C4    1.300146 A    
C5    C13   1.404627 A    
C60   H28   1.110136 S    
C5    O9    1.349700 S    
N3    C57   1.366782 A    
C18   C21   1.415260 A    
Cu1   O5    1.963219 S    
C19   C20   1.420336 A    
C26   N2    1.369959 A    
O5    C3    1.292164 A    
C31   H13   1.083195 S    
C48   C49   1.380749 A    
C49   C50   1.400414 A    
C6    O11   1.349920 S    
C2    C16   1.471079 S    
H25   C58   1.081769 S    
C1    C47   1.462516 S    
C65   C66   1.520712 S    
C8    H8    1.083067 S    
C64   H39   1.110707 S    
C41   H16   1.080640 S    
H15   C48   1.083344 S    
C12   C34   1.421399 A    
C14   H3    1.083489 S    
C54   C55   1.415662 A    
C9    C10   1.394226 A    
C51   C56   1.416888 A    
O3    Cu1   1.949406 S    
C64   H38   1.110464 S    
C47   C48   1.399867 A    
C29   O15   1.384436 S    
C38   H11   1.077100 S    
C33   C36   1.415169 A    
C42   H17   1.081559 S    
C34   C35   1.420220 A    
C31   C32   1.401114 A    
C12   C13   1.407703 A    
C41   C42   1.392855 A    
C63   C64   1.526718 S    
C53   H23   1.081305 S    
C36   H7    1.077036 S    
C44   C45   1.430359 A    
C27   O10   1.349691 S    
C26   O12   1.349973 S    
C8    C16   1.404606 A    
C33   C34   1.420557 A    
C18   C33   1.421423 A    
C9    H1    1.082929 S    
C38   C39   1.388902 A    
O1    C1    1.294063 A    
C7    C11   1.402088 A    
Cu2   N3    2.024711 S    
C22   C23   1.396935 A    
C21   H6    1.076998 S    
C53   C54   1.388302 A    
H19   C49   1.083418 S    
Cu2   O8    1.949400 S    
C56   N3    1.380992 A    
N1    C6    1.369330 A    
C59   H27   1.115742 S    
N2    C32   1.438597 S    
C43   H18   1.083049 S    
O3    C2    1.301412 A    
C25   C26   1.403486 A    
C9    C16   1.404891 A    
O8    C4    1.295917 A    
C57   C58   1.417764 A    
C51   C52   1.386279 A    
C65   H40   1.112422 S    
C61   H32   1.110523 S    
C44   O14   1.385707 S    
C52   C53   1.376603 A    
N2    C27   1.369686 A    
C66   H44   1.110770 S    
C24   C25   1.407363 A    
C35   C40   1.415004 A    
C64   H37   1.110756 S    
O14   C62   1.415869 S    
C5    N1    1.369425 A    
C30   C31   1.397527 A    
C37   H10   1.083502 S    
C10   H2    1.082782 S    
O1    Cu1   1.962814 S    
C17   C30   1.407364 A    
O2    Cu2   1.963219 S    
C6    C15   1.403761 A    
C4    C17   1.462219 S    
C46   C47   1.419533 A    
O6    C3    1.306478 A    
C66   H43   1.110592 S    
O4    Cu2   1.950259 S    
C62   H34   1.118274 S    
C19   C35   1.420343 A    
C25   C39   1.396702 A    
C63   H36   1.111707 S    
O2    C1    1.304510 A    
C13   C14   1.396955 A    
C23   C27   1.404976 A    
C41   C46   1.416040 A    
C15   C37   1.396628 A    
C63   H35   1.109506 S    
C23   C24   1.407721 A    
C60   H29   1.111284 S    
C7    H9    1.082873 S    
C19   C38   1.414824 A    
C18   C20   1.420371 A    
C59   C60   1.527455 S    
O13   C59   1.414287 S    
H20   C57   1.081695 S    
C62   C63   1.526643 S    
C45   C46   1.405997 A    
C22   H5    1.083467 S    
C28   H4    1.082794 S    
Cu2   O6    1.962814 S    
Cu1   N4    2.024148 S    
C3    C50   1.463129 S    
C59   H26   1.114284 S    
C65   H41   1.116583 S    
C10   C11   1.401650 A    
C58   N4    1.366615 A    
C52   H22   1.083323 S    
C61   H30   1.110788 S    
C55   N4    1.382231 A    
O15   C65   1.412637 S    
C60   C61   1.526484 S    
