data_mof_unit_2035.cif
_audit_creation_date              2012-12-10T16:38:03-0500
_audit_creation_method            fapswitch 2.2
_symmetry_space_group_name_H-M    P1
_symmetry_Int_Tables_number       1
_space_group_crystal_system       triclinic
_cell_length_a                    28.13957
_cell_length_b                    18.364576
_cell_length_c                    16.941857
_cell_angle_alpha                 90.179587
_cell_angle_beta                  61.049147
_cell_angle_gamma                 90.50962
_cell_volume                      7660.68052763

loop_
_atom_site_label
_atom_site_type_symbol
_atom_type_description
_atom_site_fract_x
_atom_site_fract_y
_atom_site_fract_z
_atom_type_partial_charge
C1    C     C_R   0.701014 0.266226 0.677006 0.921470
C2    C     C_R   0.094120 0.502649 0.519474 -0.039210
C3    C     C_R   0.186347 0.226526 0.912871 0.078709
C4    C     C_R   0.617527 0.329618 0.048848 -0.174483
C5    C     C_R   0.382473 0.670382 0.951152 -0.174484
C6    C     C_R   0.384650 0.325634 0.949921 -0.166135
C7    C     C_R   0.615350 0.674366 0.050078 -0.166132
C8    C     C_R   0.117527 0.829618 0.048848 -0.174483
C9    C     C_R   0.882473 0.170382 0.951152 -0.174484
C10   C     C_R   0.884650 0.825633 0.949921 -0.166133
C11   C     C_R   0.115350 0.174367 0.050079 -0.166136
C12   C     C_R   0.648276 0.318192 0.091746 -0.217186
C13   C     C_R   0.405879 0.997351 0.480527 -0.039207
C14   C     C_R   0.351724 0.681808 0.908254 -0.217186
C15   C     C_R   0.353972 0.314303 0.906706 -0.211706
C16   C     C_R   0.646029 0.685696 0.093294 -0.211683
C17   C     C_R   0.148276 0.818192 0.091746 -0.217186
C18   C     C_R   0.851724 0.181808 0.908254 -0.217185
C19   C     C_R   0.853972 0.814303 0.906706 -0.211692
C20   C     C_R   0.146028 0.185697 0.093294 -0.211708
C21   C     C_R   0.745732 0.196464 0.791340 -0.170278
C22   C     C_R   0.254268 0.803536 0.208660 -0.170280
C23   C     C_R   0.252481 0.196656 0.209774 -0.128248
C24   C     C_R   0.594123 0.002650 0.519464 -0.039208
C25   C     C_R   0.747519 0.803344 0.790227 -0.128242
C26   C     C_R   0.245732 0.696464 0.791340 -0.170280
C27   C     C_R   0.754268 0.303536 0.208660 -0.170279
C28   C     C_R   0.752482 0.696655 0.209773 -0.128243
C29   C     C_R   0.247519 0.303344 0.790226 -0.128249
C30   C     C_R   0.777131 0.184349 0.833048 -0.219533
C31   C     C_R   0.222869 0.815651 0.166952 -0.219534
C32   C     C_R   0.220610 0.185699 0.168469 -0.204262
C33   C     C_R   0.779389 0.814301 0.831531 -0.204250
C34   C     C_R   0.277131 0.684349 0.833048 -0.219535
C35   C     C_R   0.126560 0.394045 0.426667 0.322020
C36   C     C_R   0.722869 0.315651 0.166952 -0.219534
C37   C     C_R   0.720611 0.685698 0.168469 -0.204242
C38   C     C_R   0.279389 0.314301 0.831531 -0.204264
C39   C     C_R   0.071962 0.103049 0.936587 0.922141
C40   C     C_R   0.928038 0.896951 0.063413 0.922140
C41   C     C_R   0.927376 0.102209 0.064132 0.919132
C42   C     C_R   0.072624 0.897791 0.935867 0.919134
C43   C     C_R   0.571962 0.603049 0.936587 0.922141
C44   C     C_R   0.428038 0.396951 0.063413 0.922141
C45   C     C_R   0.427376 0.602209 0.064132 0.919134
C46   C     C_R   0.873440 0.605961 0.573333 0.322018
C47   C     C_R   0.572624 0.397791 0.935867 0.919133
C48   C     C_R   0.517153 0.114269 0.596531 0.037078
C49   C     C_R   0.482842 0.885720 0.403483 0.037081
C50   C     C_R   0.421065 0.108975 0.581163 0.040478
C51   C     C_R   0.578929 0.891014 0.418853 0.040485
C52   C     C_R   0.017154 0.614273 0.596528 0.037079
C53   C     C_R   0.982847 0.385734 0.403467 0.037075
C54   C     C_R   0.921067 0.608979 0.581159 0.040482
C55   C     C_R   0.078935 0.391028 0.418837 0.040476
C56   C     C_R   0.476495 0.166982 0.638342 -0.170499
C57   C     C_R   0.934676 0.383447 0.396293 0.324313
C58   C     C_R   0.523486 0.832986 0.361713 -0.170495
C59   C     C_R   0.429151 0.164016 0.631437 -0.171711
C60   C     C_R   0.570831 0.835952 0.368616 -0.171702
C61   C     C_R   0.976505 0.666998 0.638314 -0.170501
C62   C     C_R   0.023506 0.333026 0.361653 -0.170510
C63   C     C_R   0.929161 0.664031 0.631410 -0.171709
C64   C     C_R   0.070849 0.335992 0.368559 -0.171718
C65   C     C_R   0.461320 0.055596 0.538493 0.013786
C66   C     C_R   0.538680 0.944403 0.461503 0.013789
C67   C     C_R   0.508910 0.057637 0.547252 0.012882
C68   C     C_R   0.065324 0.616558 0.603706 0.324312
C69   C     C_R   0.491091 0.942362 0.452744 0.012884
C70   C     C_R   0.961318 0.555594 0.538503 0.013791
C71   C     C_R   0.038679 0.444406 0.461509 0.013791
C72   C     C_R   0.008907 0.557636 0.547262 0.012887
C73   C     C_R   0.991089 0.442364 0.452749 0.012888
C74   C     C_R   0.952698 0.498236 0.490868 -0.047604
C75   C     C_R   0.047297 0.501762 0.509147 -0.047605
C76   C     C_R   0.452702 0.998238 0.490855 -0.047601
C77   C     C_R   0.547301 0.001764 0.509134 -0.047601
C78   C     C_R   0.894498 0.437429 0.439423 0.003549
C79   C     C_R   0.626557 0.894035 0.426675 0.322019
C80   C     C_R   0.105500 0.562571 0.560584 0.003548
C81   C     C_R   0.130755 0.444117 0.486906 -0.008084
C82   C     C_R   0.869243 0.555883 0.513101 -0.008086
C83   C     C_R   0.394499 0.937428 0.439418 0.003546
C84   C     C_R   0.605502 0.062571 0.560577 0.003547
C85   C     C_R   0.630756 0.944116 0.486901 -0.008088
C86   C     C_R   0.369245 0.055883 0.513094 -0.008087
C87   C     C_R   0.843072 0.435765 0.441978 -0.064196
C88   C     C_R   0.156927 0.564235 0.558026 -0.064199
C89   C     C_R   0.170639 0.439680 0.515579 -0.075989
C90   C     C_R   0.373439 0.105956 0.573333 0.322020
C91   C     C_R   0.829359 0.560320 0.484426 -0.075993
C92   C     C_R   0.343073 0.935765 0.441974 -0.064199
C93   C     C_R   0.656928 0.064235 0.558021 -0.064195
C94   C     C_R   0.670641 0.939680 0.515574 -0.075995
C95   C     C_R   0.329361 0.060320 0.484420 -0.075989
C96   C     C_R   0.816379 0.499831 0.450433 -0.311645
C97   C     C_R   0.183620 0.500169 0.549572 -0.311643
C98   C     C_R   0.316380 0.999831 0.450426 -0.311642
C99   C     C_R   0.683621 0.000169 0.549567 -0.311645
C100  C     C_R   0.434674 0.883438 0.396300 0.324314
C101  C     C_R   0.298986 0.733774 0.322994 0.921469
C102  C     C_R   0.565324 0.116555 0.603706 0.324313
C103  C     C_R   0.717849 0.261062 0.957295 0.023478
C104  C     C_R   0.282151 0.738938 0.042705 0.023478
C105  C     C_R   0.282403 0.259961 0.042461 0.025195
C106  C     C_R   0.717597 0.740039 0.957539 0.025192
C107  C     C_R   0.217849 0.761062 0.957295 0.023478
C108  C     C_R   0.782151 0.238938 0.042705 0.023478
C109  C     C_R   0.782403 0.759961 0.042460 0.025192
C110  C     C_R   0.217597 0.240039 0.957539 0.025195
C111  C     C_R   0.766053 0.220029 0.913668 0.051526
C112  C     C_R   0.299262 0.265583 0.322795 0.940894
C113  C     C_R   0.233947 0.779971 0.086332 0.051526
C114  C     C_R   0.232864 0.220848 0.087086 0.057802
C115  C     C_R   0.767136 0.779152 0.912914 0.057810
C116  C     C_R   0.266053 0.720029 0.913668 0.051526
C117  C     C_R   0.733947 0.279971 0.086332 0.051526
C118  C     C_R   0.732864 0.720847 0.087085 0.057812
C119  C     C_R   0.267136 0.279152 0.912914 0.057804
C120  C     C_R   0.799519 0.211849 0.954686 0.051657
C121  C     C_R   0.200481 0.788151 0.045314 0.051656
C122  C     C_R   0.199197 0.213852 0.046267 0.052094
C123  C     C_R   0.700738 0.734417 0.677205 0.940894
C124  C     C_R   0.800803 0.786148 0.953733 0.052094
C125  C     C_R   0.299519 0.711849 0.954686 0.051657
C126  C     C_R   0.700481 0.288151 0.045314 0.051657
C127  C     C_R   0.699197 0.713852 0.046267 0.052093
C128  C     C_R   0.300803 0.286148 0.953733 0.052095
C129  C     C_R   0.638714 0.316088 0.955691 0.073126
C130  C     C_R   0.361286 0.683912 0.044309 0.073126
C131  C     C_R   0.362576 0.313324 0.043435 0.067840
C132  C     C_R   0.637424 0.686675 0.956565 0.067837
C133  C     C_R   0.138714 0.816088 0.955691 0.073126
C134  C     C_R   0.201014 0.766226 0.677006 0.921470
C135  C     C_R   0.861286 0.183912 0.044309 0.073126
C136  C     C_R   0.862576 0.813324 0.043434 0.067838
C137  C     C_R   0.137424 0.186676 0.956566 0.067840
C138  C     C_R   0.613435 0.340448 0.904480 -0.146133
C139  C     C_R   0.386565 0.659552 0.095520 -0.146133
C140  C     C_R   0.387648 0.338528 0.094684 -0.131031
C141  C     C_R   0.612352 0.661472 0.905316 -0.131029
C142  C     C_R   0.113435 0.840448 0.904480 -0.146133
C143  C     C_R   0.886565 0.159552 0.095520 -0.146133
C144  C     C_R   0.887648 0.838528 0.094684 -0.131030
C145  C     C_R   0.798986 0.233774 0.322994 0.921468
C146  C     C_R   0.112352 0.161472 0.905316 -0.131031
C147  C     C_R   0.632323 0.317467 0.816920 -0.260259
C148  C     C_R   0.367676 0.682533 0.183080 -0.260257
C149  C     C_R   0.368565 0.315959 0.182420 -0.302746
C150  C     C_R   0.631435 0.684041 0.817580 -0.302749
C151  C     C_R   0.132323 0.817467 0.816920 -0.260257
C152  C     C_R   0.867676 0.182533 0.183080 -0.260259
C153  C     C_R   0.868565 0.815959 0.182420 -0.302750
C154  C     C_R   0.131435 0.184041 0.817580 -0.302745
C155  C     C_R   0.677463 0.273912 0.775197 -0.110483
C156  C     C_R   0.799262 0.765583 0.322795 0.940893
C157  C     C_R   0.322537 0.726087 0.224803 -0.110485
C158  C     C_R   0.322797 0.272755 0.224604 -0.106656
C159  C     C_R   0.677203 0.727244 0.775396 -0.106657
C160  C     C_R   0.177463 0.773912 0.775197 -0.110484
C161  C     C_R   0.822537 0.226088 0.224803 -0.110483
C162  C     C_R   0.822797 0.772755 0.224604 -0.106659
C163  C     C_R   0.177202 0.227245 0.775396 -0.106656
C164  C     C_R   0.703801 0.248535 0.824691 0.066603
C165  C     C_R   0.296199 0.751465 0.175309 0.066604
C166  C     C_R   0.295910 0.247476 0.175455 0.106804
C167  C     C_R   0.200738 0.234417 0.677205 0.940899
C168  C     C_R   0.704090 0.752524 0.824545 0.106806
C169  C     C_R   0.203801 0.748535 0.824691 0.066604
C170  C     C_R   0.796199 0.251465 0.175309 0.066603
C171  C     C_R   0.795910 0.747475 0.175455 0.106805
C172  C     C_R   0.204090 0.252524 0.824545 0.106805
C173  C     C_R   0.690547 0.129868 0.538206 0.947724
C174  C     C_R   0.309453 0.870132 0.461793 0.947718
C175  C     C_R   0.302812 0.127276 0.483846 0.964766
C176  C     C_R   0.697188 0.872724 0.516151 0.964762
C177  C     C_R   0.190547 0.629868 0.538207 0.947720
C178  C     C_R   0.905876 0.497350 0.480537 -0.039210
C179  C     C_R   0.809453 0.370132 0.461794 0.947723
C180  C     C_R   0.802811 0.627276 0.483849 0.964765
C181  C     C_R   0.197188 0.372724 0.516152 0.964768
C182  C     C_R   0.686819 0.275293 0.912483 0.075281
C183  C     C_R   0.313181 0.724707 0.087517 0.075282
C184  C     C_R   0.313653 0.273474 0.087129 0.078709
C185  C     C_R   0.686347 0.726525 0.912871 0.078708
C186  C     C_R   0.186819 0.775293 0.912483 0.075281
C187  C     C_R   0.813181 0.224707 0.087517 0.075281
C188  C     C_R   0.813653 0.773474 0.087128 0.078706
Cl1   Cl    Cl    0.185428 0.350941 0.343062 -0.644799
Cl2   Cl    Cl    0.814575 0.649069 0.656937 -0.644788
Cl3   Cl    Cl    0.929306 0.321420 0.320315 -0.664554
Cl4   Cl    Cl    0.070695 0.678586 0.679682 -0.664544
Cl5   Cl    Cl    0.685421 0.850926 0.343067 -0.644776
Cl6   Cl    Cl    0.314570 0.149059 0.656938 -0.644792
Cl7   Cl    Cl    0.429305 0.821412 0.320321 -0.664538
Cl8   Cl    Cl    0.570696 0.178581 0.679683 -0.664549
H1    H     H_    0.613355 0.337479 0.778764 0.204563
H2    H     H_    0.423659 0.653130 0.908238 0.170744
H3    H     H_    0.426315 0.342322 0.907559 0.174933
H4    H     H_    0.573685 0.657677 0.092441 0.174934
H5    H     H_    0.076341 0.846870 0.091762 0.170744
H6    H     H_    0.923659 0.153130 0.908238 0.170744
H7    H     H_    0.926315 0.842322 0.907559 0.174934
H8    H     H_    0.073685 0.157678 0.092441 0.174933
H9    H     H_    0.754190 0.161814 0.734656 0.174312
H10   H     H_    0.245810 0.838186 0.265344 0.174312
H11   H     H_    0.242861 0.162464 0.267231 0.164078
H12   H     H_    0.386645 0.662521 0.221236 0.204563
H13   H     H_    0.757139 0.837536 0.732769 0.164077
H14   H     H_    0.254190 0.661814 0.734656 0.174312
H15   H     H_    0.745810 0.338186 0.265344 0.174312
H16   H     H_    0.742861 0.662463 0.267231 0.164077
H17   H     H_    0.257139 0.337536 0.732769 0.164078
H18   H     H_    0.808777 0.144234 0.802607 0.139672
H19   H     H_    0.191223 0.855765 0.197393 0.139672
H20   H     H_    0.187600 0.146875 0.199851 0.133200
H21   H     H_    0.812400 0.853126 0.800149 0.133195
H22   H     H_    0.308777 0.644234 0.802607 0.139672
H23   H     H_    0.387719 0.336330 0.220458 0.190053
H24   H     H_    0.691223 0.355766 0.197393 0.139672
H25   H     H_    0.687601 0.646874 0.199850 0.133192
H26   H     H_    0.312400 0.353125 0.800149 0.133199
H27   H     H_    0.100437 0.293487 0.335885 0.191422
H28   H     H_    0.899582 0.706551 0.664057 0.191399
H29   H     H_    0.019196 0.288535 0.323562 0.195984
H30   H     H_    0.980825 0.711506 0.676373 0.195967
H31   H     H_    0.600405 0.793423 0.335986 0.191384
H32   H     H_    0.399565 0.206525 0.664107 0.191409
H33   H     H_    0.519161 0.788469 0.323671 0.195958
H34   H     H_    0.612281 0.663670 0.779542 0.190053
H35   H     H_    0.480807 0.211479 0.676426 0.195972
H36   H     H_    0.782010 0.500767 0.438015 0.188291
H37   H     H_    0.217989 0.499233 0.561988 0.188290
H38   H     H_    0.282011 0.000767 0.438010 0.188290
H39   H     H_    0.717991 0.999233 0.561984 0.188292
H40   H     H_    0.629311 0.330743 0.162825 0.140832
H41   H     H_    0.370689 0.669257 0.837175 0.140831
H42   H     H_    0.373486 0.325813 0.835284 0.138837
H43   H     H_    0.626515 0.674186 0.164716 0.138840
H44   H     H_    0.129311 0.830743 0.162825 0.140832
H45   H     H_    0.113355 0.837479 0.778764 0.204564
H46   H     H_    0.870689 0.169257 0.837175 0.140832
H47   H     H_    0.873485 0.825813 0.835284 0.138839
H48   H     H_    0.126514 0.174188 0.164716 0.138838
H49   H     H_    0.886645 0.162521 0.221236 0.204563
H50   H     H_    0.887719 0.836330 0.220458 0.190054
H51   H     H_    0.112281 0.163670 0.779542 0.190053
H52   H     H_    0.576341 0.346870 0.091762 0.170744
O1    O     O_R   0.746490 0.236330 0.638080 -0.655466
O2    O     O_R   0.325830 0.813840 0.483730 -0.585676
O3    O     O_R   0.325830 0.186160 0.483730 -0.603222
O4    O     O_R   0.674170 0.813840 0.516270 -0.603224
O5    O     O_R   0.174170 0.686160 0.516270 -0.585673
O6    O     O_R   0.825830 0.313840 0.483730 -0.585672
O7    O     O_R   0.825830 0.686160 0.483730 -0.603222
O8    O     O_R   0.174170 0.313840 0.516270 -0.603221
O9    O     O_R   0.739960 0.127620 0.525000 -0.646820
O10   O     O_R   0.260040 0.872380 0.475000 -0.646817
O11   O     O_R   0.260040 0.127620 0.475000 -0.651704
O12   O     O_R   0.253510 0.763670 0.361920 -0.655466
O13   O     O_R   0.739960 0.872380 0.525000 -0.651706
O14   O     O_R   0.239960 0.627620 0.525000 -0.646818
O15   O     O_R   0.760040 0.372380 0.475000 -0.646820
O16   O     O_R   0.760040 0.627620 0.475000 -0.651705
O17   O     O_R   0.239960 0.372380 0.525000 -0.651706
O18   O     O_R   0.680700 0.294870 0.629350 -0.590946
O19   O     O_R   0.319300 0.705130 0.370650 -0.590945
O20   O     O_R   0.319300 0.294870 0.370650 -0.631316
O21   O     O_R   0.680700 0.705130 0.629350 -0.631317
O22   O     O_R   0.180700 0.794870 0.629350 -0.590945
O23   O     O_R   0.253510 0.236330 0.361920 -0.607248
O24   O     O_R   0.819300 0.205130 0.370650 -0.590947
O25   O     O_R   0.819300 0.794870 0.370650 -0.631317
O26   O     O_R   0.180700 0.205130 0.629350 -0.631314
O27   O     O_R   0.062020 0.072840 0.007170 -0.625892
O28   O     O_R   0.937980 0.927160 0.992830 -0.625892
O29   O     O_R   0.937980 0.072840 0.992830 -0.629788
O30   O     O_R   0.062020 0.927160 0.007170 -0.629788
O31   O     O_R   0.562020 0.572840 0.007170 -0.625893
O32   O     O_R   0.437980 0.427160 0.992830 -0.625892
O33   O     O_R   0.437980 0.572840 0.992830 -0.629788
O34   O     O_R   0.746490 0.763670 0.638080 -0.607244
O35   O     O_R   0.562020 0.427160 0.007170 -0.629788
O36   O     O_R   0.947860 0.073950 0.109290 -0.614870
O37   O     O_R   0.052140 0.926050 0.890710 -0.614869
O38   O     O_R   0.052140 0.073950 0.890710 -0.619865
O39   O     O_R   0.947860 0.926050 0.109290 -0.619865
O40   O     O_R   0.447860 0.573950 0.109290 -0.614869
O41   O     O_R   0.552140 0.426050 0.890710 -0.614870
O42   O     O_R   0.552140 0.573950 0.890710 -0.619865
O43   O     O_R   0.447860 0.426050 0.109290 -0.619865
O44   O     O_R   0.246490 0.736330 0.638080 -0.655467
O45   O     O_R   0.753510 0.263670 0.361920 -0.655467
O46   O     O_R   0.753510 0.736330 0.361920 -0.607244
O47   O     O_R   0.246490 0.263670 0.638080 -0.607247
O48   O     O_R   0.674170 0.186160 0.516270 -0.585672
Zn1   Zn    Zn3+2 0.792340 0.208750 0.507670 0.988588
Zn2   Zn    Zn3+2 0.494040 0.500000 0.919480 0.937152
Zn3   Zn    Zn3+2 0.005960 0.000000 0.080520 0.937153
Zn4   Zn    Zn3+2 0.994040 0.000000 0.919480 0.937153
Zn5   Zn    Zn3+2 0.207660 0.791250 0.492330 0.988586
Zn6   Zn    Zn3+2 0.207660 0.208750 0.492330 0.977231
Zn7   Zn    Zn3+2 0.792340 0.791250 0.507670 0.977227
Zn8   Zn    Zn3+2 0.292340 0.708750 0.507670 0.988582
Zn9   Zn    Zn3+2 0.707660 0.291250 0.492330 0.988587
Zn10  Zn    Zn3+2 0.707660 0.708750 0.492330 0.977224
Zn11  Zn    Zn3+2 0.292340 0.291250 0.507670 0.977228
Zn12  Zn    Zn3+2 0.505960 0.500000 0.080520 0.937152

loop_
_geom_bond_atom_site_label_1
_geom_bond_atom_site_label_2
_ccdc_geom_bond_type
O32   Zn2   S    
C108  C120  A    
O17   Zn11  S    
O5    Zn5   S    
C88   C177  S    
O13   Zn7   S    
O14   Zn8   S    
C50   C59   A    
C41   C143  S    
C52   C61   A    
C180  O16   A    
C12   C126  A    
C54   C63   A    
C40   O28   A    
C58   C60   A    
C43   O42   A    
C45   C139  S    
C61   C63   A    
C103  C126  A    
C95   C175  S    
C62   C64   A    
C131  C140  A    
C91   C96   A    
C179  O6    A    
C179  O15   A    
C50   C90   A    
C162  C171  A    
C16   H43   S    
C170  C187  A    
C70   C74   A    
C4    C12   A    
C147  C155  A    
C24   C85   A    
C112  O20   A    
O8    Zn6   S    
C88   C97   A    
C19   H47   S    
C119  C128  A    
C39   O38   A    
C49   C69   A    
O26   Zn6   S    
O27   Zn3   S    
C109  C118  A    
C173  O48   A    
C11   C20   A    
C150  C159  A    
C165  C183  A    
C137  C146  A    
C166  C184  A    
O15   Zn9   S    
C86   C90   A    
C71   C73   A    
C106  C127  A    
C82   C91   A    
C64   H27   S    
C51   C66   A    
C89   C181  S    
C142  C151  A    
C173  O9    A    
C52   C72   A    
C131  C184  A    
C105  C114  A    
C29   H17   S    
C54   C70   A    
C153  H50   S    
C82   C178  A    
C36   C117  A    
C7    C132  A    
C112  C158  S    
C38   C119  A    
C5    C130  A    
C83   C100  A    
C47   O41   A    
C79   C85   A    
C66   C77   A    
C40   O39   A    
C23   H11   S    
C57   C78   A    
O33   Zn2   S    
C176  O4    A    
C14   H41   S    
O46   Zn10  S    
C33   H21   S    
C62   H29   S    
O36   Zn3   S    
C8    C17   A    
C150  H34   S    
C56   C59   A    
C106  C115  A    
C37   H25   S    
C80   C88   A    
O6    Zn1   S    
C145  C161  S    
O2    Zn8   S    
C93   C173  S    
C11   H8    S    
C48   C67   A    
O7    Zn7   S    
C86   C95   A    
C24   C77   A    
C104  C183  A    
C43   O31   A    
O3    Zn11  S    
O43   Zn12  S    
C2    C81   A    
C55   C71   A    
C2    C75   A    
C78   C87   A    
C134  C160  S    
C84   C102  A    
C67   C77   A    
C152  H49   S    
C133  C142  A    
C45   O40   A    
C123  C159  S    
C130  C183  A    
C6    H3    S    
C1    O1    A    
C31   H19   S    
C3    C110  A    
C99   H39   S    
C22   H10   S    
C69   C76   A    
C149  H23   S    
O40   Zn12  S    
C46   C82   A    
C29   C38   A    
C149  C158  A    
C20   C122  A    
C152  C161  A    
C84   C93   A    
C135  C143  A    
C105  C184  A    
C87   C96   A    
C72   C75   A    
C112  O23   A    
C135  C187  A    
C180  O7    A    
C141  C150  A    
O22   Zn5   S    
C25   C168  A    
C139  C148  A    
C104  C125  A    
C9    H6    S    
C157  C165  A    
C92   C174  S    
C56   H35   S    
C181  O8    A    
C151  H45   S    
C175  O3    A    
C98   H38   S    
C91   C180  S    
C26   H14   S    
C47   O35   A    
C9    C135  A    
C116  C125  A    
O37   Zn4   S    
C118  C127  A    
O20   Zn11  S    
O35   Zn12  S    
C117  C126  A    
C39   O27   A    
C132  C141  A    
C108  C117  A    
C110  C119  A    
C174  O10   A    
C134  O22   A    
C61   H30   S    
C79   Cl5   S    
C18   H46   S    
C44   O32   A    
C28   C37   A    
C47   C138  S    
C148  C157  A    
C50   C65   A    
C51   C79   A    
C107  C116  A    
C41   O29   A    
C104  C113  A    
C32   H20   S    
C9    C18   A    
C113  C121  A    
C154  H51   S    
C44   C140  S    
C51   C60   A    
C140  C149  A    
C31   C113  A    
C25   C33   A    
O47   Zn11  S    
C129  C182  A    
C44   O43   A    
C73   C74   A    
O42   Zn2   S    
C12   H40   S    
C41   O36   A    
C107  C186  A    
C65   C76   A    
O39   Zn3   S    
C171  C188  A    
C145  O24   A    
C8    H5    S    
C134  O44   A    
C169  C186  A    
C57   Cl3   S    
C42   O30   A    
C3    C172  A    
O10   Zn5   S    
O48   Zn9   S    
C103  C111  A    
C7    H4    S    
C1    O18   A    
C65   C67   A    
C160  C169  A    
C3    C137  A    
C10   H7    S    
C93   C99   A    
C81   C89   A    
C123  O21   A    
C101  C157  S    
C35   Cl1   S    
C21   C164  A    
O19   Zn8   S    
C130  C139  A    
C167  O26   A    
O28   Zn4   S    
O12   Zn5   S    
C53   C73   A    
C33   C115  A    
C53   C57   A    
C132  C185  A    
C177  O14   A    
C30   H18   S    
O29   Zn4   S    
O30   Zn3   S    
C90   Cl6   S    
C10   C19   A    
C48   C102  A    
C46   C54   A    
C27   C170  A    
C5    C14   A    
O34   Zn7   S    
C181  O17   A    
C17   C121  A    
C143  C152  A    
C15   C128  A    
C43   C141  S    
C107  C121  A    
O16   Zn10  S    
C158  C166  A    
C100  Cl7   S    
C20   H48   S    
C115  C124  A    
C78   C178  A    
C106  C185  A    
C6    C131  A    
C123  O34   A    
C34   H22   S    
C4    C129  A    
C27   C36   A    
C28   H16   S    
C21   C30   A    
C13   C83   A    
O11   Zn6   S    
O4    Zn10  S    
C156  O46   A    
C153  C162  A    
C23   C32   A    
C38   H26   S    
C11   C137  A    
C136  C144  A    
C110  C122  A    
O31   Zn12  S    
C39   C146  S    
C42   O37   A    
C164  C182  A    
C148  H12   S    
O21   Zn10  S    
C17   H44   S    
C176  O13   A    
O23   Zn6   S    
O18   Zn9   S    
C94   C176  S    
C68   C80   A    
O1    Zn1   S    
C103  C182  A    
C108  C187  A    
C36   H24   S    
C35   C81   A    
C95   C98   A    
C92   C98   A    
C83   C92   A    
C15   H42   S    
C14   C125  A    
O41   Zn2   S    
C10   C136  A    
C66   C69   A    
C68   Cl4   S    
C34   C116  A    
C101  O12   A    
C159  C168  A    
C21   H9    S    
C144  C153  A    
C1    C155  S    
C4    H52   S    
C6    C15   A    
C22   C165  A    
C26   C34   A    
C129  C138  A    
C26   C169  A    
C74   C178  A    
C13   C86   A    
C42   C142  S    
C52   C68   A    
C101  O19   A    
C156  C162  S    
O38   Zn4   S    
C46   Cl2   S    
C16   C127  A    
C109  C188  A    
C167  O47   A    
C19   C124  A    
C45   O33   A    
C22   C31   A    
C37   C118  A    
C35   C55   A    
C154  C163  A    
C2    C80   A    
C174  O2    A    
C49   C58   A    
C89   C97   A    
C111  C120  A    
C163  C167  S    
C146  C154  A    
C59   H32   S    
C23   C166  A    
O45   Zn9   S    
C85   C94   A    
C28   C171  A    
C13   C76   A    
C138  C147  A    
C97   H37   S    
C55   C64   A    
C27   H15   S    
C156  O25   A    
C25   H13   S    
C133  C186  A    
C161  C170  A    
C40   C144  S    
C18   C120  A    
O9    Zn1   S    
C48   C56   A    
C7    C16   A    
C168  C185  A    
C105  C128  A    
C8    C133  A    
C63   H28   S    
C163  C172  A    
O25   Zn7   S    
C102  Cl8   S    
C109  C124  A    
C5    H2    S    
C155  C164  A    
C177  O5    A    
C30   C111  A    
C60   H31   S    
C151  C160  A    
C24   C84   A    
C58   H33   S    
C145  O45   A    
C49   C100  A    
C71   C75   A    
C94   C99   A    
O44   Zn8   S    
C96   H36   S    
C29   C172  A    
C147  H1    S    
C87   C179  S    
C114  C122  A    
C53   C62   A    
C70   C72   A    
C32   C114  A    
O24   Zn1   S    
C136  C188  A    
C175  O11   A    
