data_mof_unit_4448.cif
_audit_creation_date              2013-03-05T15:45:48-0500
_audit_creation_method            fapswitch 2.2
_symmetry_space_group_name_H-M    P1
_symmetry_Int_Tables_number       1
_space_group_crystal_system       triclinic
_cell_length_a                    9.942673
_cell_length_b                    10.995981
_cell_length_c                    15.738603
_cell_angle_alpha                 95.627973
_cell_angle_beta                  79.508009
_cell_angle_gamma                 110.460568
_cell_volume                      1584.07854887

loop_
_atom_site_label
_atom_site_type_symbol
_atom_site_description
_atom_site_fract_x
_atom_site_fract_y
_atom_site_fract_z
_atom_type_partial_charge
O1    O     O_R   0.426810 0.668300 0.492040 -0.532066
O2    O     O_R   0.573190 0.331700 0.507960 -0.573431
O3    O     O_R   0.658240 0.703130 0.517240 -0.578862
O4    O     O_R   0.341760 0.296870 0.482760 -0.569659
C1    C     C_R   0.553553 0.745585 0.508136 0.841655
C2    C     C_R   0.444501 0.255041 0.495907 0.870031
O5    O     O_R   0.319390 0.472820 0.610170 -0.582344
O6    O     O_R   0.680610 0.527180 0.389830 -0.555081
O7    O     O_R   0.550820 0.507640 0.635370 -0.547727
O8    O     O_R   0.449180 0.492360 0.364630 -0.569695
C3    C     C_R   0.411904 0.484849 0.662500 0.874529
C4    C     C_R   0.588598 0.516396 0.337426 0.833174
Cu1   Cu    Cu3+1 0.362980 0.479380 0.485080 1.065726
Cu2   Cu    Cu3+1 0.637020 0.520620 0.514920 1.064564
C5    C     C_R   0.358226 0.467477 0.755915 -0.214206
C6    C     C_R   0.644612 0.540295 0.244463 -0.237976
C7    C     C_R   0.171746 0.366451 0.876357 0.251302
C8    C     C_R   0.834310 0.651667 0.127891 0.241464
C9    C     C_R   0.219416 0.378557 0.786501 0.267681
C10   C     C_R   0.785968 0.627188 0.216552 0.264926
C11   C     C_R   0.451809 0.533272 0.815138 -0.074662
C12   C     C_R   0.550871 0.485941 0.183561 -0.068726
C13   C     C_R   0.418553 0.493437 0.900980 0.046236
C14   C     C_R   0.587633 0.534684 0.099820 0.043018
C15   C     C_R   0.270523 0.430406 0.934902 -0.102836
C16   C     C_R   0.736205 0.597155 0.067674 -0.099471
C17   C     C_R   0.526436 0.519335 0.955075 -0.036518
C18   C     C_R   0.481801 0.514885 0.045453 -0.035383
C19   C     C_R   0.333593 0.496514 0.079442 0.278769
C20   C     C_R   0.675819 0.540662 0.921646 0.278162
C21   C     C_R   0.226814 0.442068 0.025336 -0.121122
C22   C     C_R   0.781319 0.591502 0.977008 -0.113005
C23   C     C_2   0.577203 0.885972 0.515176 -0.312095
C24   C     C_2   0.418573 0.116077 0.496335 -0.284511
C25   C     C_2   0.464481 0.930236 0.543946 0.250008
C26   C     C_2   0.482385 0.069236 0.549066 0.215116
N1    N     N_2   0.842890 0.551600 0.537350 -0.286917
N2    N     N_2   0.157110 0.448400 0.462650 -0.272037
C27   C     C_2   0.917607 0.482372 0.494743 0.006714
C28   C     C_2   0.061852 0.487895 0.515381 -0.020598
C29   C     C_1   0.075229 0.417372 0.061484 0.487256
N3    N     N_1   0.954291 0.397766 0.090669 -0.208836
C30   C     C_1   0.932933 0.614741 0.941371 0.491575
N4    N     N_1   0.053835 0.633010 0.912694 -0.198675
C31   C     C_1   0.432095 0.364409 0.201030 0.330353
N5    N     N_1   0.338718 0.266514 0.214166 -0.183337
C32   C     C_1   0.568005 0.654516 0.791824 0.341827
N6    N     N_1   0.659891 0.751490 0.773256 -0.163312
N7    N     N_R   0.879378 0.694651 0.277950 0.169530
O9    O     O_R   0.858962 0.794397 0.322644 -0.323858
O10   O     O_R   0.977200 0.650410 0.294080 -0.256712
N8    N     N_R   0.130083 0.295669 0.727030 0.153521
O11   O     O_R   0.177784 0.215888 0.674104 -0.288247
O12   O     O_R   0.000112 0.297430 0.726582 -0.242967
N9    N     N_R   0.031491 0.274661 0.906446 0.142061
O13   O     O_R   0.021426 0.172174 0.945516 -0.259681
O14   O     O_R   0.913909 0.297240 0.899743 -0.270319
N10   N     N_R   0.976260 0.744086 0.101575 0.129881
O15   O     O_R   0.990207 0.846096 0.060617 -0.268233
O16   O     O_R   0.090934 0.730407 0.122205 -0.259542
N11   N     N_R   0.295419 0.547142 0.165121 0.134225
O17   O     O_R   0.178113 0.483423 0.215976 -0.332423
O18   O     O_R   0.375744 0.661080 0.191146 -0.279035
N12   N     N_R   0.717410 0.494099 0.835489 0.122937
O19   O     O_R   0.647314 0.376438 0.809789 -0.226137
O20   O     O_R   0.828794 0.565906 0.784056 -0.350874
N13   N     N_R   0.547427 0.146735 0.620151 0.163373
O21   O     O_R   0.650007 0.122293 0.648547 -0.274330
O22   O     O_R   0.483945 0.220821 0.667857 -0.265881
N14   N     N_R   0.321772 0.844232 0.574802 0.120117
O23   O     O_R   0.266859 0.855480 0.655535 -0.282308
O24   O     O_R   0.234705 0.788877 0.519178 -0.373532
C33   C     C_1   0.338413 0.035022 0.431249 0.320955
N15   N     N_1   0.274567 0.970997 0.378965 -0.098765
C34   C     C_1   0.722978 0.974620 0.488413 0.369558
N16   N     N_1   0.839484 0.045367 0.467086 -0.181936
C35   C     C_1   0.092571 0.538208 0.600626 0.478998
N17   N     N_1   0.113255 0.578532 0.669631 -0.161526
C36   C     C_1   0.851037 0.389162 0.430182 0.405568
N18   N     N_1   0.798439 0.314721 0.378020 -0.258821
C37   C     C_1   0.117815 0.356600 0.396146 0.528364
N19   N     N_1   0.086116 0.279022 0.341271 -0.203694
C38   C     C_1   0.906380 0.669545 0.579816 0.562035
N20   N     N_1   0.956517 0.767883 0.615517 -0.143298

loop_
_geom_bond_atom_site_label_1
_geom_bond_atom_site_label_2
_geom_bond_distance
_ccdc_geom_bond_type
C15   C21   1.417395 A    
N2    C28   1.305750 D    
N9    O13   1.301069 A    
C16   C22   1.417837 A    
C20   N12   1.442044 S    
C33   N15   1.157534 T    
C25   C26   1.471445 S    
C8    C16   1.423184 A    
C30   N4    1.157776 T    
C37   N19   1.157398 T    
C26   N13   1.444748 S    
C35   N17   1.158253 T    
C5    C9    1.414026 A    
O1    C1    1.303734 A    
C18   C19   1.422824 A    
C14   C16   1.412977 A    
N10   O16   1.300897 A    
C29   N3    1.157751 T    
O4    Cu1   1.940570 S    
N11   O18   1.301613 A    
C23   C25   1.360652 D    
C3    C5    1.476792 S    
C9    N8    1.437063 S    
C23   C34   1.448712 S    
C4    C6    1.481968 S    
C25   N14   1.429848 S    
N7    O10   1.300782 A    
C1    C23   1.474017 S    
O6    Cu2   1.940162 S    
N14   O23   1.300620 A    
C13   C17   1.424076 A    
C7    N9    1.434172 S    
C8    C10   1.410521 A    
C6    C10   1.414155 A    
Cu1   Cu2   2.722238 S    
C17   C20   1.426156 A    
O2    C2    1.298722 A    
N8    O12   1.300460 A    
C19   N11   1.444448 S    
N13   O21   1.301324 A    
C32   N6    1.157545 T    
O4    C2    1.312245 A    
C27   C28   1.506978 S    
O7    Cu2   1.929893 S    
N10   O15   1.301344 A    
C31   N5    1.156924 T    
C2    C24   1.458570 S    
N13   O22   1.301035 A    
N12   O20   1.301038 A    
O5    C3    1.308198 A    
C34   N16   1.157282 T    
C10   N7    1.432207 S    
C38   N20   1.157353 T    
C5    C11   1.403906 A    
O6    C4    1.308053 A    
O7    C3    1.310358 A    
Cu1   N2    2.045126 S    
O3    Cu2   1.940569 S    
O8    C4    1.313242 A    
C11   C13   1.406626 A    
N2    C37   1.390369 S    
C12   C14   1.408576 A    
O1    Cu1   1.946578 S    
N8    O11   1.300803 A    
C6    C12   1.402927 A    
C21   C29   1.449420 S    
C14   C18   1.420560 A    
O3    C1    1.314921 A    
O8    Cu1   1.929890 S    
C7    C15   1.423979 A    
N12   O19   1.301109 A    
N9    O14   1.300962 A    
C19   C21   1.412654 A    
Cu2   N1    2.045127 S    
C20   C22   1.413990 A    
C7    C9    1.411046 A    
C22   C30   1.450224 S    
C8    N10   1.436362 S    
C24   C26   1.364053 D    
C13   C15   1.415933 A    
N11   O17   1.300226 A    
O2    Cu2   1.946580 S    
C24   C33   1.449338 S    
C36   N18   1.158772 T    
O5    Cu1   1.940164 S    
C12   C31   1.451404 S    
N1    C27   1.301851 D    
N7    O9    1.300499 A    
C17   C18   1.411102 A    
C28   C35   1.443910 S    
N1    C38   1.392288 S    
N14   O24   1.299771 A    
C27   C36   1.444803 S    
C11   C32   1.453099 S    
