data_mof_unit_3888.cif
_audit_creation_date              2012-12-11T17:22:08-0500
_audit_creation_method            fapswitch 2.2
_symmetry_space_group_name_H-M    P1
_symmetry_Int_Tables_number       1
_space_group_crystal_system       triclinic
_cell_length_a                    20.41904
_cell_length_b                    7.21053
_cell_length_c                    20.67421
_cell_angle_alpha                 91.225493
_cell_angle_beta                  102.171804
_cell_angle_gamma                 89.613833
_cell_volume                      2974.79129199

loop_
_atom_site_label
_atom_site_type_symbol
_atom_type_description
_atom_site_fract_x
_atom_site_fract_y
_atom_site_fract_z
_atom_type_partial_charge
O1    O     O_R   0.807340 0.614490 0.194100 -0.522461
O2    O     O_R   0.192660 0.385510 0.805900 -0.528933
O3    O     O_R   0.692660 0.114490 0.305900 -0.524564
O4    O     O_R   0.307340 0.885510 0.694100 -0.529501
O5    O     O_R   0.672910 0.282300 0.178070 -0.521411
O6    O     O_R   0.327090 0.717700 0.821930 -0.518328
O7    O     O_R   0.827090 0.782300 0.321930 -0.532073
O8    O     O_R   0.172910 0.217700 0.678070 -0.524231
C1    C     C_R   0.649132 0.452175 0.160597 0.731133
C2    C     C_R   0.351382 0.547865 0.839003 0.724900
C3    C     C_R   0.850297 0.954226 0.339862 0.734102
C4    C     C_R   0.149123 0.045973 0.660983 0.731508
O9    O     O_R   0.805620 0.284620 0.186180 -0.540072
O10   O     O_R   0.194380 0.715380 0.813820 -0.538025
O11   O     O_R   0.694380 0.784620 0.313820 -0.543554
O12   O     O_R   0.305620 0.215380 0.686180 -0.541529
O13   O     O_R   0.826310 0.116750 0.314070 -0.543482
O14   O     O_R   0.173690 0.883250 0.685930 -0.539219
O15   O     O_R   0.673690 0.616750 0.185930 -0.542484
O16   O     O_R   0.326310 0.383250 0.814070 -0.540832
C5    C     C_R   0.825365 0.451574 0.171706 0.694793
C6    C     C_R   0.174559 0.548452 0.827915 0.712867
C7    C     C_R   0.674663 0.954510 0.327986 0.707094
C8    C     C_R   0.324397 0.045290 0.671236 0.699639
O17   O     O_3   0.756630 0.448770 0.291950 -0.378055
O18   O     O_3   0.243370 0.551230 0.708050 -0.375061
O19   O     O_3   0.743370 0.948770 0.208050 -0.369130
O20   O     O_3   0.256630 0.051230 0.791950 -0.372856
V1    V     V_3+5 0.748770 0.172970 0.242220 1.459930
V2    V     V_3+5 0.251230 0.827030 0.757780 1.443832
V3    V     V_3+5 0.751230 0.672970 0.257780 1.431562
V4    V     V_3+5 0.248770 0.327030 0.742220 1.427254
C9    C     C_R   0.442478 0.122527 0.485460 -0.349846
C10   C     C_R   0.549029 0.870615 0.507417 -0.338408
C11   C     C_R   0.021063 0.671876 0.984605 -0.349516
C12   C     C_R   0.985480 0.320852 0.019676 -0.345018
H1    H     H_    0.400478 0.217467 0.477139 0.148237
H2    H     H_    0.590637 0.773934 0.516797 0.147150
H3    H     H_    0.032963 0.808082 0.969852 0.172377
H4    H     H_    0.970181 0.184198 0.030840 0.179293
C13   C     C_R   0.451326 0.007669 0.540443 -0.006722
C14   C     C_R   0.540760 0.986833 0.452582 -0.008089
C15   C     C_R   0.047091 0.514917 0.957779 -0.003240
C16   C     C_R   0.959377 0.478735 0.046717 -0.023063
C17   C     C_R   0.504383 0.879420 0.551044 0.433061
C18   C     C_R   0.487578 0.116230 0.441699 0.438468
C19   C     C_R   0.032905 0.338611 0.979186 0.444964
C20   C     C_R   0.981866 0.654766 0.032937 0.464911
C21   C     C_1   0.405698 0.021450 0.585939 0.018423
C22   C     C_1   0.588331 0.975698 0.408780 0.031385
C23   C     C_1   0.090939 0.534367 0.910984 0.003908
C24   C     C_1   0.911918 0.462389 0.090611 0.034874
C25   C     C_1   0.627983 0.966291 0.372298 -0.178895
C26   C     C_1   0.368384 0.032644 0.624560 -0.206033
C27   C     C_1   0.872247 0.455908 0.127223 -0.155893
C28   C     C_1   0.128772 0.543416 0.872916 -0.193932
C29   C     C_R   0.912158 0.964678 0.392920 -0.128051
C30   C     C_R   0.086762 0.034646 0.608911 -0.119557
C31   C     C_R   0.587521 0.456375 0.107094 -0.144792
C32   C     C_R   0.413817 0.543020 0.891889 -0.114857
C33   C     C_R   0.964917 0.056767 0.575219 -0.239824
C34   C     C_R   0.033989 0.945800 0.426936 -0.243594
C35   C     C_R   0.531273 0.624065 0.934937 -0.271356
C36   C     C_R   0.469899 0.375100 0.064990 -0.248578
C37   C     C_R   0.023994 0.068943 0.624979 0.395392
C38   C     C_R   0.975476 0.949329 0.376470 0.412393
C39   C     C_R   0.472355 0.636525 0.883914 0.404268
C40   C     C_R   0.526574 0.385210 0.117703 0.431003
C41   C     C_R   0.089635 0.987815 0.543191 -0.279539
C42   C     C_R   0.908635 0.998369 0.459466 -0.288956
C43   C     C_R   0.414009 0.450751 0.951431 -0.281161
C44   C     C_R   0.588762 0.534817 0.045762 -0.284240
C45   C     C_R   0.030694 0.978875 0.493266 0.103077
C46   C     C_R   0.967650 0.010381 0.509481 0.105488
C47   C     C_R   0.471332 0.452000 0.003439 0.097189
C48   C     C_R   0.530714 0.536450 0.994536 0.117973
H5    H     H_    0.860089 0.018139 0.472013 0.122553
H6    H     H_    0.137976 0.962766 0.530748 0.120213
H7    H     H_    0.634907 0.595681 0.038181 0.131941
H8    H     H_    0.368580 0.383727 0.958056 0.126801
H9    H     H_    0.917061 0.088002 0.587742 0.124227
H10   H     H_    0.082220 0.924347 0.413942 0.120516
H11   H     H_    0.578067 0.685024 0.929804 0.104274
H12   H     H_    0.424157 0.313270 0.073115 0.123824
O21   O     O_3   0.478281 0.224780 0.385574 -0.570442
C49   C     C_3   0.466209 0.413564 0.399953 0.077731
H13   H     H_    0.500280 0.499355 0.377688 0.134322
H14   H     H_    0.478635 0.450404 0.453630 0.094711
C50   C     C_3   0.393598 0.466224 0.368877 -0.320447
H15   H     H_    0.387585 0.474259 0.314369 0.184156
H16   H     H_    0.358598 0.358194 0.378547 0.200282
C51   C     C_3   0.373861 0.652228 0.396070 -0.832801
H17   H     H_    0.372005 0.640583 0.449083 0.224404
H18   H     H_    0.323420 0.693555 0.368328 0.233448
H19   H     H_    0.410188 0.761895 0.391026 0.239924
O22   O     O_3   0.514722 0.771363 0.606739 -0.564731
C52   C     C_3   0.497896 0.585777 0.587616 0.087301
H20   H     H_    0.538998 0.520505 0.567272 0.091813
H21   H     H_    0.450176 0.575049 0.549841 0.105326
C53   C     C_3   0.489901 0.476967 0.648003 -0.341931
H22   H     H_    0.490176 0.326816 0.635281 0.161079
H23   H     H_    0.532800 0.506806 0.689802 0.208577
C54   C     C_3   0.424343 0.522767 0.669278 -0.600339
H24   H     H_    0.421333 0.672712 0.681073 0.242894
H25   H     H_    0.421643 0.443577 0.714115 0.208619
H26   H     H_    0.380916 0.483961 0.629243 0.197781
O23   O     O_3   0.965945 0.808987 0.067826 -0.566644
C55   C     C_3   0.025063 0.881538 0.109249 0.064813
H27   H     H_    0.013283 0.021476 0.127113 0.128361
H28   H     H_    0.065763 0.900494 0.082183 0.106899
C56   C     C_3   0.050309 0.761332 0.169796 -0.325424
H29   H     H_    0.013015 0.766588 0.201746 0.232250
H30   H     H_    0.056310 0.615148 0.154146 0.184484
C57   C     C_3   0.118264 0.828000 0.209066 -0.839385
H31   H     H_    0.157221 0.805034 0.179454 0.229222
H32   H     H_    0.132313 0.748656 0.255414 0.238023
H33   H     H_    0.116783 0.977854 0.221997 0.218100
O24   O     O_3   0.063125 0.182716 0.958132 -0.578607
C58   C     C_3   0.120873 0.135330 0.006456 0.050725
H34   H     H_    0.126609 0.982469 0.004361 0.141034
H35   H     H_    0.116931 0.173482 0.058149 0.094011
C59   C     C_3   0.184588 0.219825 0.991417 -0.299335
H36   H     H_    0.185390 0.196185 0.938280 0.215094
H37   H     H_    0.185463 0.371200 0.002422 0.181577
C60   C     C_3   0.247504 0.134190 0.033559 -0.844691
H38   H     H_    0.247859 0.155622 0.087005 0.230214
H39   H     H_    0.292616 0.201107 0.022524 0.224724
H40   H     H_    0.249750 0.983204 0.022328 0.232661
O25   O     O_3   0.979144 0.943950 0.310328 -0.588660
C61   C     C_3   0.012077 0.104406 0.294678 0.045110
H41   H     H_    0.014450 0.091569 0.241781 0.151742
H42   H     H_    0.064751 0.112651 0.322990 0.120821
C62   C     C_3   0.973826 0.284699 0.303254 -0.328952
H43   H     H_    0.921999 0.273174 0.273775 0.214884
H44   H     H_    0.971886 0.309492 0.356042 0.194506
C63   C     C_3   0.007142 0.450755 0.279722 -0.835593
H45   H     H_    0.058554 0.470346 0.309927 0.237229
H46   H     H_    0.977106 0.577082 0.284572 0.264210
H47   H     H_    0.009588 0.429293 0.227010 0.220746
O26   O     O_3   0.021358 0.130500 0.688241 -0.575378
C64   C     C_3   0.993920 0.990162 0.720949 0.034560
H48   H     H_    0.024113 0.860169 0.722564 0.120954
H49   H     H_    0.941110 0.960964 0.695726 0.124354
C65   C     C_3   0.994797 0.056107 0.791883 -0.247450
H50   H     H_    0.047494 0.076514 0.818902 0.219380
H51   H     H_    0.968150 0.191295 0.791081 0.204045
C66   C     C_3   0.960838 0.916474 0.828406 -0.801589
H52   H     H_    0.908141 0.893552 0.802025 0.222287
H53   H     H_    0.960576 0.970919 0.878960 0.258564
H54   H     H_    0.988195 0.782232 0.832196 0.234128
O27   O     O_3   0.522598 0.330432 0.180580 -0.572921
C67   C     C_3   0.483329 0.459865 0.208707 0.046646
H55   H     H_    0.473021 0.397597 0.254094 0.171078
H56   H     H_    0.433556 0.484164 0.175647 0.113495
C68   C     C_3   0.520377 0.644841 0.228442 -0.344694
H57   H     H_    0.566245 0.619615 0.266989 0.203077
H58   H     H_    0.535466 0.705806 0.184977 0.200329
C69   C     C_3   0.476287 0.787370 0.254511 -0.787493
H59   H     H_    0.429242 0.810630 0.217332 0.231332
H60   H     H_    0.503377 0.921325 0.264786 0.257603
H61   H     H_    0.463980 0.739815 0.300989 0.228935
O28   O     O_3   0.469534 0.730828 0.824811 -0.578739
C70   C     C_3   0.522480 0.858700 0.828370 0.059139
H62   H     H_    0.569884 0.781830 0.828068 0.126738
H63   H     H_    0.527673 0.950214 0.873350 0.130662
C71   C     C_3   0.508959 0.982313 0.768087 -0.277316
H64   H     H_    0.503652 0.894825 0.722611 0.240066
H65   H     H_    0.461735 0.061573 0.766175 0.186144
C72   C     C_3   0.566874 0.117105 0.770820 -0.825521
H66   H     H_    0.568143 0.221469 0.811384 0.231817
H67   H     H_    0.560665 0.189311 0.723306 0.229546
H68   H     H_    0.615440 0.041632 0.778834 0.232558

loop_
_geom_bond_atom_site_label_1
_geom_bond_atom_site_label_2
_ccdc_geom_bond_type
O17   V3    S    
C69   H60   S    
O1    C5    A    
O19   V1    S    
O13   V1    S    
C72   H66   S    
O3    C7    A    
C70   H62   S    
C10   C14   A    
C29   C38   A    
C44   C48   A    
O15   V3    S    
C57   H31   S    
O21   C49   S    
O7    C3    A    
O5    C1    A    
C36   C40   A    
O9    V1    S    
C66   H53   S    
O25   C61   S    
C44   H7    S    
C64   H49   S    
C14   C18   A    
C11   H3    S    
O4    C8    A    
C49   H14   S    
C20   O23   S    
C68   H58   S    
C35   C48   A    
C8    C26   S    
C21   C26   T    
O1    V3    S    
C55   H27   S    
C12   C19   A    
O2    V4    S    
C23   C28   T    
C45   C46   A    
O3    V1    S    
O24   C58   S    
C36   H12   S    
C69   H61   S    
C37   O26   S    
C1    O15   A    
C19   O24   S    
C66   H52   S    
C32   C39   A    
C2    O16   A    
O2    C6    A    
C62   C63   S    
O23   C55   S    
C34   C45   A    
C41   C45   A    
O14   V2    S    
C29   C42   A    
C50   H16   S    
C11   C15   A    
C24   C27   T    
C31   C44   A    
C38   O25   S    
C4    C30   S    
C16   C24   S    
O11   C7    A    
C34   H10   S    
O27   C67   S    
O12   C8    A    
C42   H5    S    
C71   H65   S    
C9    C18   A    
C72   H67   S    
C41   H6    S    
O10   V2    S    
C65   C66   S    
C11   C20   A    
C13   C21   S    
C43   H8    S    
C52   H21   S    
C52   H20   S    
O5    V1    S    
C58   H35   S    
C35   C39   A    
C22   C25   T    
O7    V3    S    
C34   C38   A    
O8    V4    S    
C12   H4    S    
C66   H54   S    
O26   C64   S    
C63   H46   S    
C64   C65   S    
C5    C27   S    
C49   H13   S    
C63   H45   S    
C6    C28   S    
C32   C43   A    
C53   C54   S    
C9    H1    S    
C35   H11   S    
C1    C31   S    
C63   H47   S    
C61   H42   S    
C47   C48   A    
C42   C46   A    
C31   C40   A    
C60   H40   S    
C62   H43   S    
C30   C37   A    
C67   C68   S    
O8    C4    A    
O22   C52   S    
C70   C71   S    
C53   H23   S    
O9    C5    A    
C56   H30   S    
C10   C17   A    
C50   C51   S    
C14   C22   S    
C65   H51   S    
O6    V2    S    
C67   H56   S    
C60   H38   S    
C54   H25   S    
C12   C16   A    
C61   C62   S    
C56   C57   S    
C59   H37   S    
C68   H57   S    
C52   C53   S    
C60   H39   S    
O28   C70   S    
O16   V4    S    
C58   C59   S    
C2    C32   S    
C3    O13   A    
C56   H29   S    
C70   H63   S    
C10   H2    S    
C65   H50   S    
C49   C50   S    
O6    C2    A    
C57   H32   S    
C58   H34   S    
C30   C41   A    
O11   V3    S    
O18   V4    S    
C33   C46   A    
O12   V4    S    
C55   C56   S    
C9    C13   A    
C18   O21   S    
C59   C60   S    
O20   V2    S    
C61   H41   S    
C59   H36   S    
C40   O27   S    
C33   H9    S    
C64   H48   S    
C43   C47   A    
C39   O28   S    
O10   C6    A    
C51   H18   S    
C69   H59   S    
C71   H64   S    
C15   C23   S    
C7    C25   S    
C51   H17   S    
C72   H68   S    
C36   C47   A    
C55   H28   S    
C54   H26   S    
C51   H19   S    
C57   H33   S    
C33   C37   A    
C67   H55   S    
C71   C72   S    
C4    O14   A    
C54   H24   S    
C62   H44   S    
C13   C17   A    
C53   H22   S    
C50   H15   S    
C3    C29   S    
C17   O22   S    
C15   C19   A    
O4    V2    S    
C16   C20   A    
C68   C69   S    
