data_mof_unit_3842.cif
_audit_creation_date              2012-12-10T20:38:24-0500
_audit_creation_method            fapswitch 2.2
_symmetry_space_group_name_H-M    P1
_symmetry_Int_Tables_number       1
_space_group_crystal_system       triclinic
_cell_length_a                    9.86431
_cell_length_b                    10.688204
_cell_length_c                    16.692287
_cell_angle_alpha                 89.983479
_cell_angle_beta                  85.106023
_cell_angle_gamma                 89.913979
_cell_volume                      1753.47904767

loop_
_atom_site_label
_atom_site_type_symbol
_atom_type_description
_atom_site_fract_x
_atom_site_fract_y
_atom_site_fract_z
_atom_type_partial_charge
C1    C     C_R   0.500560 0.739209 0.496015 0.930260
C2    C     C_R   0.530957 0.452342 0.263621 -0.022210
C3    C     C_R   0.400534 0.936841 0.533584 0.149884
C4    C     C_R   0.480778 0.498482 0.653474 0.957056
C5    C     C_R   0.501117 0.870546 0.489144 -0.193020
C6    C     C_R   0.602918 0.936623 0.440789 -0.044791
C7    C     C_R   0.602805 0.067800 0.445067 -0.198480
C8    C     C_R   0.501129 0.129802 0.493979 -0.127150
C9    C     C_R   0.399968 0.061394 0.535364 0.131936
C10   C     C_3   0.283415 0.070277 0.598616 -0.310690
C11   C     C_3   0.283764 0.924819 0.596757 -0.300453
C12   C     C_R   0.348166 0.424650 0.776842 -0.154446
C13   C     C_R   0.922181 0.585182 0.545005 0.240752
C14   C     C_R   0.935308 0.423362 0.450291 -0.123103
C15   C     C_R   0.079299 0.423257 0.450344 -0.126080
C16   C     C_R   0.500254 0.260661 0.499302 0.942189
C17   C     C_R   0.064844 0.585453 0.544828 0.222548
C18   C     C_3   0.057990 0.598983 0.633893 -0.516576
C19   C     C_3   0.904342 0.597574 0.634174 -0.514009
C20   C     C_R   0.518977 0.493494 0.346863 0.825755
C21   C     C_R   0.467747 0.477655 0.739871 -0.000010
C22   C     C_R   0.579560 0.497586 0.784335 -0.181898
C23   C     C_R   0.439296 0.330772 0.159036 -0.153144
C24   C     C_R   0.574786 0.459081 0.863734 -0.143209
C25   C     C_R   0.457945 0.399445 0.899422 0.206158
C26   C     C_R   0.343366 0.385932 0.856435 -0.164649
C27   C     C_2   0.704965 0.872382 0.384281 0.415365
C28   C     C_2   0.319218 0.129341 0.676346 0.454442
C29   C     C_2   0.319089 0.861139 0.673210 0.464299
C30   C     C_R   0.425696 0.380583 0.235825 -0.200925
C31   C     C_R   0.652565 0.469110 0.215036 -0.198358
C32   C     C_R   0.665229 0.420885 0.137357 -0.162598
C33   C     C_R   0.556792 0.355333 0.108285 0.200336
C34   C     C_2   0.448443 0.363583 0.984062 -0.226009
C35   C     C_2   0.558799 0.334447 0.021801 -0.231072
H1    H     H_    0.670984 0.541806 0.757622 0.146647
H2    H     H_    0.736320 0.521145 0.236600 0.153297
H3    H     H_    0.656876 0.321708 0.987960 0.150329
H4    H     H_    0.251217 0.343501 0.884064 0.122144
H5    H     H_    0.356079 0.277018 0.138364 0.133369
H6    H     H_    0.260565 0.408030 0.743470 0.133540
H7    H     H_    0.350249 0.377302 0.017592 0.149503
H8    H     H_    0.661786 0.478052 0.897145 0.126549
H9    H     H_    0.692998 0.774699 0.368975 0.073375
H10   H     H_    0.242487 0.134052 0.726822 0.035594
H11   H     H_    0.244862 0.860849 0.725036 0.035857
H12   H     H_    0.756510 0.440461 0.098599 0.126397
H13   H     H_    0.192168 0.884441 0.572159 0.135409
H14   H     H_    0.886633 0.359669 0.411376 0.153091
H15   H     H_    0.139347 0.359425 0.411501 0.145686
H16   H     H_    0.679543 0.121513 0.409698 0.192466
H17   H     H_    0.192001 0.112842 0.574928 0.140333
H18   H     H_    0.098968 0.516072 0.663954 0.212731
H19   H     H_    0.333394 0.361463 0.273767 0.152094
H20   H     H_    0.098341 0.690373 0.652499 0.191151
H21   H     H_    0.858033 0.512808 0.663619 0.215642
H22   H     H_    0.855780 0.687789 0.653480 0.214961
N1    N     N_R   0.857140 0.500860 0.500530 -0.113624
N2    N     N_R   0.142780 0.500820 0.500530 -0.111734
O1    O     O_R   0.385310 0.683210 0.499990 -0.609068
O2    O     O_2   0.432599 0.171332 0.683660 -0.563006
O3    O     O_2   0.428865 0.809870 0.677887 -0.572776
O4    O     O_R   0.614650 0.683240 0.500000 -0.622812
O5    O     O_R   0.371780 0.500000 0.615800 -0.622259
O6    O     O_R   0.601120 0.500040 0.615800 -0.611659
O7    O     O_R   0.385350 0.316760 0.500000 -0.631322
O8    O     O_R   0.614690 0.316790 0.500010 -0.613812
O9    O     O_R   0.398880 0.499960 0.384200 -0.621806
O10   O     O_R   0.628220 0.500000 0.384200 -0.633472
O11   O     O_2   0.803276 0.928694 0.352928 -0.579100
Zn1   Zn    Zn3+2 0.346870 0.499980 0.499990 0.953486
Zn2   Zn    Zn3+2 0.653130 0.500020 0.500010 0.964701

loop_
_geom_bond_atom_site_label_1
_geom_bond_atom_site_label_2
_ccdc_geom_bond_type
C19   H21   S    
O10   Zn2   S    
C24   C25   A    
O7    Zn1   S    
C29   O3    D    
C6    C7    A    
C3    C9    A    
O6    Zn2   S    
C22   H1    S    
C9    C10   S    
C4    O5    A    
C6    C27   S    
O1    Zn1   S    
C13   C17   A    
C29   H11   S    
C2    C30   A    
C10   H17   S    
C32   C33   A    
C17   C18   S    
C7    H16   S    
C7    C8    A    
C8    C16   S    
C16   O8    A    
O5    Zn1   S    
C21   C22   A    
C19   H22   S    
C4    C21   S    
C30   H19   S    
N1    Zn2   S    
C11   H13   S    
C4    O6    A    
C27   O11   D    
C18   H20   S    
C17   N2    A    
O9    Zn1   S    
C1    C5    S    
C27   H9    S    
C1    O4    A    
C33   C35   S    
C34   C35   D    
C5    C6    A    
C28   H10   S    
C32   H12   S    
C22   C24   A    
C26   H4    S    
C15   H15   S    
C14   H14   S    
C16   O7    A    
C10   C11   S    
C13   C19   S    
C28   O2    D    
C2    C20   S    
C23   H5    S    
C23   C30   A    
O8    Zn2   S    
C35   H3    S    
C3    C11   S    
O4    Zn2   S    
C11   C29   S    
C12   H6    S    
C23   C33   A    
C18   C19   S    
C1    O1    A    
C10   C28   S    
C24   H8    S    
C20   O10   A    
C8    C9    A    
C13   N1    A    
C18   H18   S    
N2    Zn1   S    
C25   C26   A    
C14   C15   A    
C15   N2    A    
C12   C21   A    
C20   O9    A    
C31   C32   A    
C25   C34   S    
C31   H2    S    
C14   N1    A    
C12   C26   A    
C2    C31   A    
C3    C5    A    
C34   H7    S    
