data_mof_unit_3891.cif
_audit_creation_date              2013-03-05T16:43:41-0500
_audit_creation_method            fapswitch 2.2
_symmetry_space_group_name_H-M    P1
_symmetry_Int_Tables_number       1
_space_group_crystal_system       triclinic
_cell_length_a                    15.769029
_cell_length_b                    10.660206
_cell_length_c                    9.862814
_cell_angle_alpha                 89.953552
_cell_angle_beta                  89.955974
_cell_angle_gamma                 90.003989
_cell_volume                      1657.94882009

loop_
_atom_site_label
_atom_site_type_symbol
_atom_site_description
_atom_site_fract_x
_atom_site_fract_y
_atom_site_fract_z
_atom_type_partial_charge
O1    O     O_R   0.500010 0.316790 0.614690 -0.601930
O2    O     O_R   0.500000 0.316760 0.385350 -0.618401
C1    C     C_R   0.503183 0.259899 0.500108 0.889945
O3    O     O_R   0.376780 0.500010 0.614650 -0.629780
O4    O     O_R   0.376770 0.499970 0.385310 -0.606558
C2    C     C_R   0.338089 0.500012 0.500023 0.891896
Zn1   Zn    Zn3+2 0.500010 0.500020 0.653130 1.023674
Zn2   Zn    Zn3+2 0.499990 0.499980 0.346870 1.007986
O5    O     O_R   0.500000 0.683240 0.614650 -0.596739
O6    O     O_R   0.499990 0.683210 0.385310 -0.608317
O7    O     O_R   0.623230 0.500030 0.614690 -0.604385
O8    O     O_R   0.623220 0.499990 0.385350 -0.619030
C3    C     C_R   0.503119 0.740099 0.499945 0.902135
C4    C     C_R   0.661919 0.499976 0.499959 0.904236
C5    C     C_3   0.971790 0.385332 0.520788 0.118935
C6    C     C_3   0.027762 0.427431 0.400676 0.202242
C7    C     C_1   0.249588 0.500986 0.499943 -0.118599
C8    C     C_1   0.750425 0.500682 0.499684 -0.080748
C9    C     C_3   0.028850 0.462091 0.620036 -0.301126
C10   C     C_3   0.084098 0.503208 0.497582 -0.131310
C11   C     C_3   0.972493 0.578539 0.594753 0.226942
C12   C     C_3   0.915957 0.502894 0.498011 -0.165520
C13   C     C_3   0.027984 0.619012 0.475037 0.169774
C14   C     C_3   0.971972 0.543188 0.378145 0.123591
C15   C     C_1   0.174603 0.502061 0.499117 0.172429
C16   C     C_1   0.825415 0.501639 0.499032 0.179662
H1    H     H_    0.052736 0.430004 0.720121 0.222841
C17   C     C_R   0.524611 0.063881 0.622648 0.069923
C18   C     C_R   0.518611 0.128722 0.500291 -0.152980
C19   C     C_R   0.530595 0.064947 0.377369 -0.136730
H2    H     H_    0.533274 0.113893 0.281146 0.219680
C20   C     C_R   0.530535 0.935344 0.377229 -0.123883
H3    H     H_    0.533219 0.886642 0.280947 0.221260
C21   C     C_R   0.518434 0.871290 0.499998 -0.152673
C22   C     C_R   0.524323 0.935773 0.622396 0.063060
C23   C     C_3   0.470922 0.927806 0.748256 0.051946
C24   C     C_3   0.471542 0.071372 0.749015 0.042204
H4    H     H_    0.407435 0.885605 0.729806 0.104211
H5    H     H_    0.408285 0.114761 0.731888 0.086233
C25   C     C_R   0.425587 0.505398 0.071302 0.228578
N1    N     N_R   0.499430 0.499140 0.142800 -0.124343
C26   C     C_R   0.573900 0.504674 0.071755 -0.048246
H6    H     H_    0.633640 0.506599 0.125301 0.182080
C27   C     C_R   0.573899 0.504643 0.927997 0.027673
H7    H     H_    0.633635 0.506524 0.874300 0.181411
N2    N     N_R   0.499430 0.499180 0.857150 -0.118657
C28   C     C_R   0.425587 0.505632 0.928765 0.227981
C29   C     C_3   0.354756 0.413192 0.922973 -0.468871
C30   C     C_3   0.354942 0.412561 0.076950 -0.416342
H8    H     H_    0.296196 0.454728 0.879181 0.222389
H9    H     H_    0.374234 0.322330 0.877392 0.234644
H10   H     H_    0.296375 0.453381 0.121576 0.240994
H11   H     H_    0.374824 0.321324 0.121485 0.245176
N3    N     N_R   0.056467 0.344795 0.292181 0.257680
O9    O     O_R   0.001159 0.287931 0.216202 -0.281770
O10   O     O_R   0.136951 0.328526 0.269461 -0.362265
N4    N     N_R   0.515499 0.870304 0.863045 0.269524
O11   O     O_R   0.475501 0.854190 0.977121 -0.362968
O12   O     O_R   0.591844 0.825396 0.849641 -0.322602
N5    N     N_R   0.516987 0.126494 0.864207 0.264878
O13   O     O_R   0.591185 0.178206 0.848634 -0.335508
O14   O     O_R   0.479746 0.133065 0.981694 -0.382266
I1    I     I_    0.927412 0.198826 0.557297 -0.031540
N6    N     N_R   0.943611 0.587051 0.245669 0.273023
O15   O     O_R   0.999139 0.617273 0.153712 -0.264717
O16   O     O_R   0.863183 0.595876 0.218326 -0.325449
N7    N     N_R   0.056133 0.747310 0.450511 0.266993
O17   O     O_R   0.000460 0.835968 0.433754 -0.265122
O18   O     O_R   0.136518 0.773980 0.444896 -0.340310
N8    N     N_R   0.944048 0.663049 0.701656 0.265577
O19   O     O_R   0.999564 0.720650 0.776588 -0.270225
O20   O     O_R   0.863625 0.681260 0.723151 -0.313494

loop_
_geom_bond_atom_site_label_1
_geom_bond_atom_site_label_2
_geom_bond_distance
_ccdc_geom_bond_type
C25   C28   1.405811 A    
N1    C26   1.368269 A    
C4    C8    1.395683 S    
C9    C10   1.551529 S    
C8    C16   1.182564 T    
Zn1   O7    1.979414 S    
C17   C18   1.393518 A    
C9    C11   1.546900 S    
C19   H2    1.083422 S    
O7    C4    1.285142 A    
N4    O12   1.302290 A    
C10   C15   1.427321 S    
C5    C6    1.543148 S    
N5    O14   1.300612 A    
C21   C22   1.392825 A    
C13   N7    1.457848 S    
C1    C18   1.419405 S    
O5    C3    1.283931 A    
N2    C28   1.363216 A    
C29   H9    1.111384 S    
C22   C23   1.501801 S    
C17   C22   1.365669 A    
C23   C24   1.530496 S    
C13   C14   1.532691 S    
N8    O19   1.300480 A    
C9    H1    1.110554 S    
C6    C10   1.535462 S    
C29   H8    1.111621 S    
C6    C14   1.531696 S    
C11   C12   1.535554 S    
C26   C27   1.417860 A    
O3    Zn1   1.980218 S    
C27   N2    1.368191 A    
C5    C12   1.547974 S    
N3    O10   1.300265 A    
N7    O17   1.300520 A    
Zn1   N2    2.012238 S    
Zn2   N1    2.012758 S    
O3    C2    1.285082 A    
C23   N4    1.466884 S    
N5    O13   1.302283 A    
N7    O18   1.300190 A    
N6    O16   1.300221 A    
C5    C9    1.562008 S    
C18   C19   1.403107 A    
C28   C29   1.490605 S    
C10   C13   1.535057 S    
Zn2   O8    1.980219 S    
C30   H10   1.111656 S    
C25   N1    1.363381 A    
O8    C4    1.284989 A    
C11   C13   1.530852 S    
C12   C14   1.536197 S    
C26   H6    1.080533 S    
C27   H7    1.080469 S    
Zn1   O5    1.989393 S    
C2    C7    1.395626 S    
N3    O9    1.300509 A    
C29   C30   1.518659 S    
O1    Zn1   1.990025 S    
O2    Zn2   1.989391 S    
O6    C3    1.284416 A    
O4    Zn2   1.979415 S    
C11   N8    1.457864 S    
C7    C15   1.182533 T    
C20   H3    1.083435 S    
C23   H4    1.112701 S    
O2    C1    1.284513 A    
C3    C21   1.419201 S    
C24   H5    1.112502 S    
N6    O15   1.300525 A    
C19   C20   1.381599 A    
N4    O11   1.300693 A    
O4    C2    1.284922 A    
C17   C24   1.502863 S    
C30   H11   1.112092 S    
C14   N6    1.458005 S    
C6    N3    1.458349 S    
C24   N5    1.466933 S    
Zn2   O6    1.990025 S    
C12   C16   1.427849 S    
C5    I1    2.137886 S    
N8    O20   1.300256 A    
O1    C1    1.283920 A    
C25   C30   1.491036 S    
C20   C21   1.402541 A    
