data_mof_unit_2284.cif
_audit_creation_date              2013-03-05T15:55:16-0500
_audit_creation_method            fapswitch 2.2
_symmetry_space_group_name_H-M    P1
_symmetry_Int_Tables_number       1
_space_group_crystal_system       triclinic
_cell_length_a                    27.597974
_cell_length_b                    10.633173
_cell_length_c                    9.995923
_cell_angle_alpha                 91.417489
_cell_angle_beta                  90.781517
_cell_angle_gamma                 92.551391
_cell_volume                      2929.22018855

loop_
_atom_site_label
_atom_site_type_symbol
_atom_site_description
_atom_site_fract_x
_atom_site_fract_y
_atom_site_fract_z
_atom_type_partial_charge
O1    O     O_R   0.500000 0.316780 0.614690 -0.568669
O2    O     O_R   0.500000 0.316750 0.385360 -0.572256
C1    C     C_R   0.503351 0.260138 0.498916 0.885263
O3    O     O_R   0.428760 0.500030 0.614650 -0.545845
O4    O     O_R   0.428750 0.500010 0.385320 -0.593540
C2    C     C_R   0.406305 0.501517 0.498161 0.982709
Zn1   Zn    Zn3+2 0.500000 0.500020 0.653130 1.069842
Zn2   Zn    Zn3+2 0.500000 0.499980 0.346870 0.993762
O5    O     O_R   0.500000 0.683250 0.614640 -0.565398
O6    O     O_R   0.500000 0.683220 0.385310 -0.605756
O7    O     O_R   0.571250 0.499990 0.614680 -0.546240
O8    O     O_R   0.571240 0.499970 0.385350 -0.624757
C3    C     C_R   0.493377 0.738055 0.502159 0.852812
C4    C     C_R   0.593784 0.500560 0.500480 0.932238
C5    C     C_R   0.176791 0.446989 0.380624 0.666763
O9    O     O_2   0.199799 0.345542 0.334683 -0.435972
N1    N     N_R   0.203494 0.551522 0.425117 -0.339353
C6    C     C_R   0.182033 0.662014 0.455149 0.653080
C7    C     C_R   0.287991 0.620662 0.380788 0.495484
C8    C     C_R   0.337578 0.610885 0.406610 -0.450672
C9    C     C_R   0.321242 0.429374 0.543595 0.414602
C10   C     C_R   0.271171 0.449330 0.534188 0.325083
C11   C     C_R   0.254696 0.541679 0.447686 0.124581
C12   C     C_R   0.103246 0.555827 0.424629 -0.216640
C13   C     C_R   0.125941 0.444057 0.386844 -0.075953
C14   C     C_R   0.097373 0.333364 0.357583 0.491201
C15   C     C_R   0.131412 0.668691 0.445345 -0.078790
C16   C     C_R   0.354211 0.516737 0.488862 -0.251269
C17   C     C_R   0.646783 0.504905 0.500560 -0.262835
C18   C     C_R   0.976089 0.434474 0.471718 0.059664
C19   C     C_R   0.978307 0.666795 0.489164 -0.122924
C20   C     C_R   0.951872 0.549054 0.484046 -0.034292
C21   C     C_R   0.950536 0.319819 0.502087 0.415744
C22   C     C_R   0.900282 0.318687 0.518278 -0.241557
C23   C     C_R   0.875206 0.429306 0.509133 -0.038886
C24   C     C_R   0.900819 0.545323 0.494470 -0.119802
C25   C     C_R   0.875393 0.657490 0.491272 -0.206837
C26   C     C_R   0.824236 0.648075 0.486920 0.598717
N2    N     N_R   0.800226 0.533552 0.499701 -0.314040
C27   C     C_R   0.824826 0.426756 0.519325 0.607175
C28   C     C_R   0.723181 0.445049 0.402133 0.549133
C29   C     C_R   0.672190 0.432447 0.405653 0.213674
C30   C     C_R   0.672103 0.590376 0.588629 0.375151
C31   C     C_R   0.722720 0.595421 0.589818 -0.318503
C32   C     C_R   0.748164 0.525087 0.496626 0.096626
O10   O     O_2   0.800490 0.318459 0.549449 -0.578637
C33   C     C_R   0.025380 0.439035 0.435030 0.039573
C34   C     C_R   0.052498 0.554773 0.442989 0.085668
C35   C     C_R   0.029303 0.669283 0.467489 0.051057
C36   C     C_R   0.047504 0.332687 0.380918 -0.249286
H1    H     H_    0.880850 0.230436 0.538035 0.207368
H2    H     H_    0.026007 0.249193 0.350836 0.195601
O11   O     O_2   0.209472 0.763322 0.498945 -0.436612
C37   C     C_R   0.108294 0.783766 0.455540 0.507393
H3    H     H_    0.363440 0.673599 0.358166 0.172583
C38   C     C_R   0.952172 0.776615 0.519255 0.384442
C39   C     C_R   0.901884 0.774169 0.501832 0.448597
O12   O     O_2   0.798512 0.751529 0.470129 -0.536934
C40   C     C_R   0.057528 0.782630 0.457511 -0.339812
H4    H     H_    0.742623 0.656988 0.661197 0.194969
H5    H     H_    0.040995 0.871899 0.448633 0.201898
H6    H     H_    0.475664 0.108071 0.294708 0.206027
C41   C     C_R   0.542041 0.116592 0.724022 -0.278045
H7    H     H_    0.563898 0.202419 0.711233 0.178886
C42   C     C_R   0.542073 0.062070 0.849789 0.372267
C43   C     C_R   0.513123 0.951717 0.870379 0.433835
C44   C     C_R   0.486866 0.894694 0.761986 0.385805
C45   C     C_R   0.493712 0.940574 0.630018 -0.143272
C46   C     C_R   0.514053 0.061712 0.616894 -0.001049
C47   C     C_R   0.504383 0.124969 0.497606 -0.157415
C48   C     C_R   0.484372 0.059995 0.385453 -0.192143
C49   C     C_R   0.473513 0.932914 0.389865 0.438337
C50   C     C_R   0.482622 0.870406 0.509795 -0.246350
H8    H     H_    0.570282 0.579661 0.131019 0.166403
C51   C     C_R   0.420568 0.389017 0.133331 0.337643
C52   C     C_R   0.375316 0.377571 0.067671 0.178142
C53   C     C_R   0.375076 0.369760 0.928403 0.319762
C54   C     C_R   0.419670 0.384346 0.861535 0.421596
C55   C     C_R   0.459671 0.450413 0.926294 -0.124086
C56   C     C_R   0.460046 0.450419 0.069948 -0.007319
N3    N     N_R   0.499540 0.498800 0.142780 -0.087435
C57   C     C_R   0.538746 0.543288 0.074739 -0.238753
C58   C     C_R   0.539839 0.538539 0.932007 0.556717
N4    N     N_R   0.499520 0.498720 0.857170 -0.100633
O13   O     O_3   0.338058 0.323086 0.601673 -0.570902
C59   C     C_3   0.330687 0.219482 0.511790 -0.214051
H9    H     H_    0.291545 0.199276 0.488563 0.216749
H10   H     H_    0.344810 0.134904 0.558976 0.193969
H11   H     H_    0.351014 0.234511 0.418260 0.142432
O14   O     O_3   0.271192 0.704895 0.289913 -0.692051
H12   H     H_    0.299226 0.752445 0.251605 0.352359
O15   O     O_3   0.135485 0.896264 0.456598 -0.663513
H13   H     H_    0.113705 0.967529 0.466303 0.346887
O16   O     O_3   0.973381 0.884895 0.576819 -0.731098
H14   H     H_    0.998684 0.859048 0.640667 0.343704
O17   O     O_3   0.646668 0.672130 0.667876 -0.702196
H15   H     H_    0.669872 0.726767 0.722146 0.343203
O18   O     O_3   0.879322 0.886516 0.513720 -0.679202
H16   H     H_    0.863862 0.899558 0.425327 0.354878
O19   O     O_3   0.569794 0.119061 0.952234 -0.618460
C60   C     C_3   0.540601 0.201005 0.024808 -0.256957
H17   H     H_    0.510137 0.148958 0.073731 0.201206
H18   H     H_    0.526359 0.273442 0.958958 0.149934
H19   H     H_    0.563117 0.250091 0.104542 0.205101
O20   O     O_3   0.237441 0.378343 0.604495 -0.719454
H20   H     H_    0.254429 0.326976 0.670132 0.392497
O21   O     O_3   0.505063 0.906574 0.997499 -0.548560
C61   C     C_3   0.548396 0.863558 0.053072 -0.149746
H21   H     H_    0.570554 0.942217 0.100837 0.193491
H22   H     H_    0.570161 0.811370 0.978800 0.156856
H23   H     H_    0.538697 0.798480 0.134279 0.201180
O22   O     O_3   0.452175 0.801817 0.790417 -0.689695
H24   H     H_    0.429056 0.792047 0.713654 0.330012
O23   O     O_3   0.453288 0.873959 0.276568 -0.711190
H25   H     H_    0.433734 0.798936 0.304109 0.330958
O24   O     O_3   0.429445 0.312119 0.238092 -0.727147
H26   H     H_    0.403389 0.245222 0.242661 0.326798
O25   O     O_3   0.333196 0.350319 0.136315 -0.734659
H27   H     H_    0.338834 0.374378 0.231863 0.347795
O26   O     O_3   0.333840 0.330669 0.856670 -0.695883
H28   H     H_    0.305199 0.329896 0.915235 0.401138
O27   O     O_3   0.427569 0.309915 0.750704 -0.680572
H29   H     H_    0.403280 0.238354 0.746136 0.372021
O28   O     O_3   0.582500 0.571291 0.868774 -0.569115
C62   C     C_3   0.616225 0.477858 0.893966 -0.221750
H30   H     H_    0.626066 0.473637 0.001952 0.162072
H31   H     H_    0.602401 0.383714 0.855446 0.161517
H32   H     H_    0.650339 0.501078 0.841356 0.209399
O29   O     O_3   0.118519 0.226350 0.308684 -0.671062
H33   H     H_    0.093419 0.157277 0.295802 0.331847
O30   O     O_3   0.648415 0.352307 0.313101 -0.762559
H34   H     H_    0.618903 0.315035 0.354530 0.327408
O31   O     O_3   0.749588 0.389089 0.301100 -0.604136
C63   C     C_3   0.741640 0.256686 0.296311 -0.088752
H35   H     H_    0.715629 0.228927 0.214037 0.198895
H36   H     H_    0.728772 0.216456 0.392222 0.165718
H37   H     H_    0.776465 0.213455 0.272711 0.172410
O32   O     O_3   0.975432 0.212722 0.527714 -0.754294
H38   H     H_    0.952171 0.142417 0.548656 0.385263

loop_
_geom_bond_atom_site_label_1
_geom_bond_atom_site_label_2
_geom_bond_distance
_ccdc_geom_bond_type
C41   C42   1.397357 A    
C60   H17   1.111515 S    
C17   C29   1.419634 A    
C28   C29   1.408665 A    
C7    C8    1.398064 A    
C12   C15   1.409842 A    
C43   O21   1.386687 S    
C51   C52   1.401921 A    
C53   O26   1.379459 S    
C63   H37   1.109417 S    
C28   O31   1.390716 S    
O23   H25   0.989949 S    
C15   C37   1.407058 A    
C53   C54   1.412795 A    
C61   H21   1.108254 S    
Zn1   O7    2.008716 S    
C22   H1    1.083707 S    
N1    C11   1.436768 S    
C62   H30   1.111935 S    
C20   C24   1.413088 A    
C24   C25   1.411278 A    
H8    C57   1.081412 S    
C14   C36   1.398769 A    
O4    C2    1.294328 A    
O7    C4    1.307384 A    
C59   H10   1.109218 S    
C5    C13   1.404574 A    
C5    O9    1.349851 S    
C49   O23   1.379702 S    
C38   C39   1.395386 A    
N1    C6    1.367713 A    
C22   C23   1.395301 A    
O5    C3    1.293622 A    
O25   H27   0.991044 S    
O15   H13   0.991690 S    
C6    O11   1.349267 S    
C26   O12   1.348204 S    
C2    C16   1.455883 S    
C41   C46   1.410760 A    
C45   C46   1.391941 A    
H6    C48   1.081573 S    
C62   H32   1.105951 S    
C36   H2    1.079634 S    
O21   C61   1.411067 S    
C47   C48   1.396410 A    
C58   O28   1.379006 S    
C51   C56   1.410925 A    
N2    C32   1.435463 S    
Zn1   N4    2.040176 S    
C60   H18   1.107252 S    
C9    C10   1.409594 A    
C17   C30   1.405835 A    
C55   N4    1.392385 A    
C38   O16   1.377445 S    
C19   C35   1.426061 A    
C8    H3    1.082416 S    
O22   H24   0.991701 S    
N3    C57   1.359234 A    
C33   C36   1.408669 A    
C37   C40   1.400956 A    
C9    O13   1.378957 S    
C40   H5    1.076422 S    
C6    C15   1.404182 A    
C41   H7    1.082552 S    
C44   C45   1.429775 A    
C12   C34   1.414571 A    
C33   C34   1.411561 A    
C18   C33   1.412796 A    
C1    C47   1.438559 S    
C43   C44   1.404873 A    
C12   C13   1.413480 A    
O3    C2    1.312344 A    
N2    C27   1.365647 A    
C59   H9    1.112201 S    
C49   C50   1.410035 A    
C63   H36   1.115487 S    
C8    C16   1.400091 A    
O3    Zn1   1.998205 S    
C13   C14   1.409470 A    
O13   C59   1.410078 S    
O6    C3    1.311208 A    
C52   O25   1.381163 S    
Zn2   N3    2.039659 S    
O1    C1    1.297681 A    
C23   C24   1.406105 A    
C7    C11   1.404503 A    
C30   C31   1.395431 A    
C37   O15   1.383260 S    
C25   C26   1.410939 A    
C30   O17   1.382530 S    
C58   N4    1.377215 A    
C21   O32   1.383407 S    
Zn2   O8    1.998202 S    
O17   H15   0.991832 S    
C21   C22   1.398074 A    
O16   H14   0.992021 S    
C52   C53   1.392444 A    
C29   O30   1.381020 S    
C14   O29   1.383357 S    
C34   C35   1.418179 A    
C9    C16   1.397713 A    
O8    C4    1.300504 A    
O18   H16   0.991466 S    
C60   H19   1.109406 S    
O31   C63   1.414706 S    
C19   C38   1.427546 A    
C27   O10   1.349673 S    
C4    C17   1.461321 S    
O30   H34   0.990222 S    
O26   H28   0.989870 S    
O29   H33   0.991701 S    
C5    N1    1.367489 A    
C18   C21   1.422457 A    
O1    Zn1   1.976602 S    
C19   C20   1.420134 A    
O2    Zn2   1.995256 S    
C31   C32   1.396532 A    
C42   O19   1.381238 S    
C3    C50   1.451535 S    
C56   N3    1.375700 A    
C59   H11   1.108177 S    
O4    Zn2   2.008719 S    
C63   H35   1.109866 S    
C10   O20   1.382646 S    
O20   H20   0.990327 S    
C35   C40   1.412019 A    
C61   H23   1.107540 S    
C23   C27   1.394599 A    
C45   C50   1.421197 A    
C48   C49   1.372932 A    
C7    O14   1.381312 S    
C18   C20   1.418990 A    
C54   C55   1.421337 A    
O14   H12   0.991793 S    
C26   N2    1.369840 A    
C31   H4    1.083317 S    
C39   O18   1.374820 S    
O19   C60   1.407736 S    
C61   H22   1.114181 S    
O24   H26   0.991013 S    
O2    C1    1.302021 A    
C42   C43   1.410863 A    
C46   C47   1.411529 A    
C54   O27   1.371066 S    
O32   H38   0.991701 S    
C55   C56   1.435852 A    
Zn1   O5    1.995258 S    
C44   O22   1.381965 S    
Zn2   O6    1.976601 S    
C57   C58   1.427160 A    
C62   H31   1.113028 S    
C28   C32   1.407853 A    
C10   C11   1.410558 A    
C51   O24   1.370544 S    
O27   H29   0.991174 S    
C25   C39   1.412639 A    
O28   C62   1.415990 S    
