data_mof_unit_4873.cif
_audit_creation_date              2012-10-26T20:35:03-0400
_audit_creation_method            fapswitch 2.2
_symmetry_space_group_name_H-M    P1
_symmetry_Int_Tables_number       1
_space_group_crystal_system       triclinic
_cell_length_a                    8.737618
_cell_length_b                    17.736153
_cell_length_c                    16.470288
_cell_angle_alpha                 89.229599
_cell_angle_beta                  97.781362
_cell_angle_gamma                 90.610308
_cell_volume                      2528.59701405

loop_
_atom_site_label
_atom_site_type_symbol
_atom_type_description
_atom_site_fract_x
_atom_site_fract_y
_atom_site_fract_z
_atom_type_partial_charge
C1    C     C_R   0.502932 0.355253 0.500866 0.549515
C2    C     C_R   0.593785 0.548508 0.262160 0.245189
C3    C     C_R   0.406709 0.451367 0.823733 -0.169072
C4    C     C_R   0.593540 0.548516 0.176286 -0.167205
C5    C     C_R   0.502823 0.500925 0.873336 0.032540
C6    C     C_R   0.497595 0.498880 0.126696 0.032776
C7    C     C_1   0.501024 0.500367 0.962841 0.010920
C8    C     C_1   0.499082 0.499586 0.037166 0.011356
C9    C     C_R   0.203403 0.499919 0.479199 0.547550
C10   C     C_R   0.796597 0.500079 0.520801 0.547286
C11   C     C_2   0.037960 0.499775 0.467534 -0.154101
C12   C     C_R   0.497077 0.644748 0.499134 0.549824
C13   C     C_2   0.962040 0.500220 0.532467 -0.154269
C14   C     C_R   0.547404 0.845189 0.570570 -0.126128
C15   C     C_R   0.452444 0.154811 0.429468 -0.127440
C16   C     C_R   0.544902 0.766789 0.569920 -0.159485
C17   C     C_R   0.454954 0.233211 0.430109 -0.161117
C18   C     C_R   0.493428 0.727866 0.497393 0.021407
C19   C     C_R   0.506600 0.272137 0.502610 0.021776
C20   C     C_R   0.441908 0.768932 0.424328 0.137519
C21   C     C_R   0.558308 0.231080 0.575655 0.137692
C22   C     C_R   0.445529 0.848236 0.426306 -0.085738
C23   C     C_1   0.499548 0.966211 0.499765 -0.031202
C24   C     C_R   0.554660 0.151774 0.573687 -0.085699
C25   C     C_R   0.498121 0.885696 0.498878 0.007669
C26   C     C_R   0.501890 0.114309 0.501142 0.007968
C27   C     C_3   0.377018 0.766649 0.272377 -0.316771
C28   C     C_3   0.623981 0.233332 0.727575 -0.319111
C29   C     C_1   0.500456 0.033794 0.500261 -0.031275
C30   C     C_R   0.599118 0.550403 0.834862 0.076854
C31   C     C_R   0.401612 0.449258 0.165195 0.076511
C32   C     C_R   0.595008 0.548728 0.748356 0.035658
C33   C     C_R   0.405010 0.451264 0.251646 0.034951
C34   C     C_R   0.406341 0.451433 0.737849 0.245618
Cu1   Cu    Cu3+1 0.499990 0.499980 0.580420 0.972479
Cu2   Cu    Cu3+1 0.500010 0.500020 0.419580 0.972037
H1    H     H_    0.978381 0.499218 0.405154 0.128540
H2    H     H_    0.331306 0.413465 0.281337 0.116557
H3    H     H_    0.331569 0.412582 0.851389 0.099459
H4    H     H_    0.668587 0.587344 0.148623 0.102707
H5    H     H_    0.286699 0.695395 0.357527 0.258172
H6    H     H_    0.354121 0.723895 0.223493 0.149171
H7    H     H_    0.490297 0.793952 0.266968 0.148206
H8    H     H_    0.283257 0.808950 0.263296 0.130672
H9    H     H_    0.713491 0.304738 0.642296 0.257438
H10   H     H_    0.647087 0.276070 0.776465 0.144845
H11   H     H_    0.717854 0.191082 0.736463 0.130505
H12   H     H_    0.021620 0.500776 0.594847 0.128343
H13   H     H_    0.510851 0.205959 0.733180 0.147676
H14   H     H_    0.783692 0.570566 0.919330 0.231503
H15   H     H_    0.757590 0.636919 0.845454 0.215008
H16   H     H_    0.370017 0.358349 0.092617 0.225255
H17   H     H_    0.233046 0.367408 0.153819 0.213362
H18   H     H_    0.193330 0.410464 0.698948 0.194452
H19   H     H_    0.334793 0.345475 0.709340 0.219110
H20   H     H_    0.665315 0.654484 0.290600 0.220326
H21   H     H_    0.806760 0.589487 0.301124 0.194933
H22   H     H_    0.587947 0.874235 0.626996 0.117456
H23   H     H_    0.411766 0.125761 0.373062 0.115140
H24   H     H_    0.585129 0.736497 0.626197 0.126375
H25   H     H_    0.414593 0.263500 0.373850 0.122347
H26   H     H_    0.405059 0.881390 0.372141 0.109118
H27   H     H_    0.595248 0.118620 0.627833 0.109360
H28   H     H_    0.668633 0.586563 0.718660 0.117008
N1    N     N_R   0.499960 0.499970 0.701210 -0.203264
N2    N     N_R   0.500040 0.500030 0.298790 -0.203332
N3    N     N_2   0.380500 0.729822 0.351533 -0.495907
N4    N     N_2   0.619904 0.270203 0.648412 -0.495786
N5    N     N_3   0.699368 0.602275 0.883278 -0.634212
N6    N     N_3   0.300697 0.397692 0.116728 -0.636566
N7    N     N_3   0.306842 0.400306 0.688856 -0.542577
N8    N     N_3   0.693218 0.599666 0.311148 -0.542338
O1    O     O_R   0.499990 0.391240 0.567930 -0.445209
O2    O     O_R   0.500010 0.608760 0.432070 -0.444759
O3    O     O_R   0.500000 0.391270 0.432120 -0.523502
O4    O     O_R   0.500000 0.608730 0.567880 -0.521708
O5    O     O_R   0.274830 0.499990 0.552240 -0.468903
O6    O     O_R   0.725170 0.500010 0.447760 -0.469464
O7    O     O_R   0.274840 0.500020 0.416420 -0.515159
O8    O     O_R   0.725160 0.499980 0.583580 -0.516841

loop_
_geom_bond_atom_site_label_1
_geom_bond_atom_site_label_2
_ccdc_geom_bond_type
C28   H11   S    
C12   O2    A    
C20   N3    S    
Cu1   Cu2   S    
C10   O6    A    
C7    C8    T    
H5    N3    S    
C28   H10   S    
C23   C29   T    
C19   C21   A    
H14   N5    S    
C24   C26   A    
C9    O7    A    
Cu2   N2    S    
Cu1   N1    S    
Cu1   O8    S    
C16   H24   S    
C11   H1    S    
C17   H25   S    
C27   H8    S    
C31   N6    S    
H18   N7    S    
C4    H4    S    
H20   N8    S    
C22   C25   A    
C31   C33   A    
C6    C31   A    
C3    H3    S    
H21   N8    S    
C2    N8    S    
H17   N6    S    
C34   N1    A    
C33   N2    A    
C14   H22   S    
Cu1   O4    S    
C1    C19   S    
C1    O3    A    
H16   N6    S    
C32   H28   S    
C4    C6    A    
C5    C7    S    
C10   O8    A    
C15   C26   A    
C6    C8    S    
C3    C34   A    
C3    C5    A    
Cu2   O7    S    
C2    C4    A    
Cu2   O3    S    
C22   H26   S    
C28   H13   S    
H9    N4    S    
C9    O5    A    
C9    C11   S    
Cu2   O2    S    
C20   C22   A    
C24   H27   S    
C12   O4    A    
C21   N4    S    
C14   C16   A    
C30   N5    S    
C5    C30   A    
C15   C17   A    
Cu1   O1    S    
C28   N4    S    
C15   H23   S    
C2    N2    A    
C10   C13   S    
C13   H12   S    
C33   H2    S    
C1    O1    A    
Cu2   O6    S    
C30   C32   A    
C11   C13   D    
C27   H6    S    
C17   C19   A    
Cu1   O5    S    
C18   C20   A    
C23   C25   S    
C14   C25   A    
C27   N3    S    
C27   H7    S    
C26   C29   S    
C16   C18   A    
C21   C24   A    
C12   C18   S    
H15   N5    S    
C34   N7    S    
H19   N7    S    
C32   N1    A    
