data_mof_unit_1146.cif
_audit_creation_date              2013-03-05T15:56:36-0500
_audit_creation_method            fapswitch 2.2
_symmetry_space_group_name_H-M    P1
_symmetry_Int_Tables_number       1
_space_group_crystal_system       triclinic
_cell_length_a                    6.924839
_cell_length_b                    14.603233
_cell_length_c                    15.950795
_cell_angle_alpha                 90.411021
_cell_angle_beta                  89.468428
_cell_angle_gamma                 90.238642
_cell_volume                      1612.90026955

loop_
_atom_site_label
_atom_site_type_symbol
_atom_site_description
_atom_site_fract_x
_atom_site_fract_y
_atom_site_fract_z
_atom_type_partial_charge
O1    O     O_R   0.361600 0.167310 0.164620 -0.604038
O2    O     O_R   0.638400 0.832690 0.835380 -0.604013
O3    O     O_R   0.691080 0.157570 0.338750 -0.565671
O4    O     O_R   0.308920 0.842430 0.661250 -0.565681
O5    O     O_R   0.861410 0.336420 0.339360 -0.580446
O6    O     O_R   0.138590 0.663580 0.660640 -0.580438
C1    C     C_R   0.520677 0.136156 0.368145 1.025172
C2    C     C_R   0.479323 0.863844 0.631854 1.025146
O7    O     O_R   0.691320 0.156280 0.165240 -0.571764
O8    O     O_R   0.308680 0.843720 0.834760 -0.571765
O9    O     O_R   0.861640 0.335130 0.164600 -0.581886
O10   O     O_R   0.138360 0.664870 0.835400 -0.581811
C3    C     C_R   0.522985 0.132667 0.137025 1.011995
C4    C     C_R   0.477015 0.867333 0.862975 1.012036
O11   O     O_R   0.361370 0.168600 0.339370 -0.577249
O12   O     O_R   0.638630 0.831400 0.660630 -0.577254
O13   O     O_3   0.527990 0.310540 0.251980 -0.250702
O14   O     O_3   0.472010 0.689460 0.748020 -0.250574
V1    V     V_3+5 0.802830 0.240980 0.251990 1.322426
V2    V     V_3+5 0.197170 0.759020 0.748010 1.322462
O15   O     O_R   0.191360 0.346160 0.165220 -0.580360
O16   O     O_R   0.808640 0.653840 0.834780 -0.580141
C5    C     C_R   0.023517 0.368813 0.136525 1.011926
C6    C     C_R   0.976474 0.631174 0.863470 1.011829
O17   O     O_R   0.191130 0.347440 0.338740 -0.597179
O18   O     O_R   0.808870 0.652560 0.661260 -0.597236
C7    C     C_R   0.022084 0.369185 0.367637 1.158062
C8    C     C_R   0.977916 0.630816 0.632363 1.157934
V3    V     V_3+5 0.302840 0.262750 0.251990 1.309772
V4    V     V_3+5 0.697160 0.737250 0.748010 1.309814
O19   O     O_3   0.027820 0.193180 0.251990 -0.246030
O20   O     O_3   0.972180 0.806820 0.748010 -0.246036
C9    C     C_3   0.912006 0.422359 0.523054 0.474295
C10   C     C_3   0.087995 0.577642 0.476944 0.474382
C11   C     C_3   0.085541 0.467183 0.566741 0.281758
C12   C     C_3   0.914460 0.532818 0.433257 0.281827
C13   C     C_3   0.988492 0.561434 0.562696 -0.458210
C14   C     C_3   0.011508 0.438568 0.437302 -0.458191
C15   C     C_3   0.811560 0.517229 0.518373 -0.341185
C16   C     C_3   0.188441 0.482773 0.481625 -0.341084
H1    H     H_    0.657123 0.531302 0.532354 0.207987
H2    H     H_    0.342878 0.468700 0.467644 0.207983
C17   C     C_R   0.846906 0.492499 0.942844 0.392828
C18   C     C_R   0.152997 0.507477 0.057164 0.392813
C19   C     C_R   0.864133 0.429939 0.008816 -0.150539
C20   C     C_R   0.135836 0.570023 0.991180 -0.150809
H3    H     H_    0.758158 0.375438 0.014379 0.175160
H4    H     H_    0.241806 0.624529 0.985637 0.175029
C21   C     C_R   0.015358 0.436270 0.066802 -0.328657
C22   C     C_R   0.984591 0.563705 0.933193 -0.328582
C23   C     C_R   0.653021 0.001380 0.442585 -0.138536
C24   C     C_R   0.346979 0.998620 0.557415 -0.138530
H5    H     H_    0.771890 0.000858 0.397928 0.203176
H6    H     H_    0.228110 0.999142 0.602072 0.203177
C25   C     C_R   0.649197 0.935392 0.505902 0.390904
C26   C     C_R   0.350802 0.064608 0.494098 0.390903
C27   C     C_R   0.493590 0.933212 0.564272 -0.337894
C28   C     C_R   0.506410 0.066788 0.435728 -0.337904
C29   C     C_R   0.663375 0.999712 0.051649 0.525304
C30   C     C_R   0.336625 0.000288 0.948351 0.525310
C31   C     C_R   0.648329 0.937747 0.984564 -0.179391
C32   C     C_R   0.351672 0.062253 0.015435 -0.179341
H7    H     H_    0.763836 0.888977 0.974319 0.193541
H8    H     H_    0.236164 0.111023 0.025681 0.193539
C33   C     C_R   0.486108 0.936439 0.932191 -0.340905
C34   C     C_R   0.513892 0.063561 0.067809 -0.340868
N1    N     N_R   0.180716 0.428869 0.639634 0.274517
O21   O     O_R   0.277845 0.353233 0.632174 -0.244724
O22   O     O_R   0.170280 0.469816 0.712178 -0.360364
N2    N     N_R   0.819287 0.571132 0.360364 0.274568
O23   O     O_R   0.722151 0.646766 0.367823 -0.244710
O24   O     O_R   0.829736 0.530188 0.287818 -0.360129
Cl1   Cl    Cl    0.793399 0.319773 0.555104 -0.468362
Cl2   Cl    Cl    0.206601 0.680228 0.444893 -0.468234
N3    N     N_R   0.692262 0.480356 0.884864 0.239783
O25   O     O_R   0.682327 0.405255 0.840707 -0.306066
O26   O     O_R   0.540730 0.532393 0.890902 -0.364320
N4    N     N_R   0.307426 0.519662 0.115230 0.239733
O27   O     O_R   0.315919 0.594276 0.160112 -0.305676
O28   O     O_R   0.459659 0.468124 0.108940 -0.364398
N5    N     N_R   0.802057 0.869810 0.507748 0.231975
O29   O     O_R   0.937001 0.878561 0.563401 -0.377503
O30   O     O_R   0.835092 0.819331 0.441746 -0.290428
N6    N     N_R   0.197942 0.130190 0.492252 0.231977
O31   O     O_R   0.062999 0.121438 0.436598 -0.377501
O32   O     O_R   0.164904 0.180667 0.558254 -0.290425
Cl3   Cl    Cl    0.869420 0.990539 0.115176 -0.588670
Cl4   Cl    Cl    0.130580 0.009461 0.884824 -0.588638

loop_
_geom_bond_atom_site_label_1
_geom_bond_atom_site_label_2
_geom_bond_distance
_ccdc_geom_bond_type
C18   C21   1.415869 A    
C14   C16   1.555851 S    
C10   C13   1.545160 S    
O13   V3    1.705537 S    
O4    C2    1.303394 A    
V1    O19   1.709894 S    
N5    O29   1.300135 A    
C30   Cl4   1.763787 S    
C15   H1    1.110153 S    
O9    V1    2.002885 S    
C9    C15   1.555379 S    
C10   C16   1.555379 S    
C11   C13   1.536221 S    
N6    O32   1.299948 A    
O3    C1    1.303393 A    
C29   C34   1.416683 A    
C26   N6    1.431075 S    
N4    O28   1.300533 A    
C5    C21   1.492588 S    
C7    C14   1.499914 S    
O12   V4    2.009938 S    
C30   C32   1.400742 A    
C31   H7    1.083683 S    
O7    C3    1.297861 A    
C32   H8    1.083682 S    
C9    C11   1.536418 S    
O5    C7    1.293102 A    
O7    V1    2.007040 S    
O6    C8    1.293103 A    
O8    V2    2.007040 S    
O3    V1    1.998531 S    
N2    O23   1.299757 A    
O14   V4    1.705539 S    
C11   N1    1.458052 S    
C25   N5    1.431074 S    
C1    C28   1.486886 S    
C23   C25   1.400917 A    
C1    O11   1.291905 A    
C2    O12   1.291904 A    
O17   V3    2.001557 S    
N5    O30   1.299949 A    
C24   H6    1.083570 S    
O11   V3    2.009939 S    
C3    C34   1.492009 S    
C19   H3    1.083887 S    
C6    C22   1.492687 S    
C20   H4    1.083883 S    
C29   C31   1.400742 A    
C32   C34   1.406124 A    
N1    O21   1.299757 A    
C18   N4    1.430928 S    
N6    O31   1.300135 A    
O8    C4    1.297861 A    
N4    O27   1.300879 A    
C18   C20   1.404684 A    
O15   V3    2.011728 S    
C23   H5    1.083569 S    
N3    O25   1.301073 A    
C2    C27   1.486885 S    
N3    O26   1.300603 A    
C19   C21   1.405926 A    
O10   V2    2.002888 S    
O1    V3    2.004138 S    
C23   C28   1.402392 A    
C17   C19   1.404712 A    
C10   Cl2   1.781331 S    
C9    Cl1   1.781331 S    
C12   N2    1.458052 S    
C30   C33   1.416683 A    
O18   V4    2.001556 S    
C25   C27   1.417930 A    
O16   C6    1.298067 A    
O1    C3    1.300394 A    
C12   C14   1.536219 S    
C17   N3    1.431076 S    
V2    O20   1.709894 S    
O10   C6    1.299450 A    
O16   V4    2.011730 S    
C12   C15   1.545304 S    
C16   H2    1.110153 S    
C17   C22   1.416096 A    
O5    V1    2.006774 S    
O17   C7    1.294069 A    
O6    V2    2.006774 S    
C20   C22   1.406032 A    
O18   C8    1.294071 A    
C9    C14   1.545158 S    
O2    V4    2.004141 S    
O15   C5    1.298106 A    
C11   C16   1.545304 S    
V3    O19   2.154771 S    
V4    O20   2.154769 S    
C8    C13   1.499916 S    
O9    C5    1.299352 A    
O13   V1    2.161069 S    
C4    C33   1.492009 S    
C26   C28   1.417930 A    
O14   V2    2.161070 S    
O2    C4    1.300392 A    
C29   Cl3   1.763786 S    
C24   C27   1.402393 A    
O4    V2    1.998528 S    
C31   C33   1.406124 A    
C10   C12   1.536417 S    
C13   C15   1.555854 S    
N2    O24   1.300241 A    
N1    O22   1.300241 A    
C24   C26   1.400916 A    
