data_mof_unit_1045.cif
_audit_creation_date              2012-12-11T15:37:11-0500
_audit_creation_method            fapswitch 2.2
_symmetry_space_group_name_H-M    P1
_symmetry_Int_Tables_number       1
_space_group_crystal_system       triclinic
_cell_length_a                    16.850725
_cell_length_b                    7.207107
_cell_length_c                    15.120344
_cell_angle_alpha                 89.999311
_cell_angle_beta                  93.951132
_cell_angle_gamma                 90.000515
_cell_volume                      1831.92532129

loop_
_atom_site_label
_atom_site_type_symbol
_atom_type_description
_atom_site_fract_x
_atom_site_fract_y
_atom_site_fract_z
_atom_type_partial_charge
O1    O     O_R   0.578230 0.505720 0.424270 -0.547596
O2    O     O_R   0.421770 0.005720 0.575730 -0.547609
O3    O     O_R   0.412470 0.173950 0.404530 -0.526889
O4    O     O_R   0.587530 0.673950 0.595470 -0.526895
C1    C     C_R   0.386800 0.346189 0.379449 0.694546
C2    C     C_R   0.613202 0.846187 0.620550 0.694554
O5    O     O_R   0.577030 0.175880 0.413670 -0.524257
O6    O     O_R   0.422970 0.675880 0.586330 -0.524248
O7    O     O_R   0.587510 0.007580 0.584940 -0.528831
O8    O     O_R   0.412490 0.507580 0.415060 -0.528833
C3    C     C_R   0.603934 0.344340 0.394444 0.677785
C4    C     C_R   0.396065 0.844338 0.605556 0.677803
O9    O     O_3   0.503240 0.339850 0.556180 -0.353711
O10   O     O_3   0.496760 0.839850 0.443820 -0.353696
V1    V     V_3+5 0.499400 0.064230 0.489580 1.441596
V2    V     V_3+5 0.500600 0.564230 0.510420 1.441607
C5    C     C_1   0.333278 0.854449 0.667682 -0.191311
C6    C     C_1   0.666721 0.354455 0.332317 -0.191282
C7    C     C_1   0.280524 0.865714 0.719070 0.003145
C8    C     C_1   0.719475 0.365717 0.280929 0.003141
C9    C     C_1   0.218278 0.879942 0.779380 0.004794
C10   C     C_1   0.781721 0.379940 0.220619 0.004780
C11   C     C_1   0.165599 0.890902 0.830877 -0.135745
C12   C     C_1   0.834399 0.390898 0.169122 -0.135757
C13   C     C_3   0.763184 0.686231 0.829856 0.207248
C14   C     C_3   0.236813 0.186230 0.170151 0.207235
C15   C     C_3   0.685475 0.690827 0.761206 -0.227035
C16   C     C_3   0.314525 0.190835 0.238797 -0.227057
H1    H     H_    0.692126 0.570420 0.719944 0.183956
H2    H     H_    0.307879 0.070428 0.280062 0.183953
C17   C     C_3   0.834972 0.907941 0.718500 -0.182805
C18   C     C_3   0.165026 0.407929 0.281506 -0.182772
C19   C     C_3   0.748547 0.044760 0.831919 0.001005
C20   C     C_3   0.251451 0.544759 0.168084 0.000951
C21   C     C_3   0.809975 0.880283 0.818133 -0.167420
C22   C     C_3   0.190022 0.380279 0.181873 -0.167406
H3    H     H_    0.783071 0.173590 0.828411 0.165913
H4    H     H_    0.216926 0.673583 0.171590 0.165899
C23   C     C_3   0.681728 0.863993 0.695754 -0.207397
C24   C     C_3   0.318272 0.363999 0.304249 -0.207381
C25   C     C_3   0.762750 0.871657 0.648049 0.068844
C26   C     C_3   0.237252 0.371657 0.351955 0.068898
C27   C     C_3   0.678053 0.052630 0.754344 0.206479
C28   C     C_3   0.321944 0.552640 0.245660 0.206490
H5    H     H_    0.846303 0.057355 0.715531 0.117820
H6    H     H_    0.153679 0.557337 0.284466 0.117716
H7    H     H_    0.760066 0.994565 0.603885 0.149737
H8    H     H_    0.239929 0.494564 0.396118 0.149793
O11   O     O_R   0.087480 0.241090 0.084980 -0.527667
O12   O     O_R   0.912520 0.741090 0.915020 -0.527744
O13   O     O_R   0.922960 0.569060 0.086330 -0.508044
O14   O     O_R   0.077040 0.069060 0.913670 -0.507971
C29   C     C_R   0.896869 0.400546 0.106549 0.773973
C30   C     C_R   0.103130 0.900547 0.893449 0.773945
O15   O     O_R   0.087520 0.570920 0.095480 -0.555073
O16   O     O_R   0.912480 0.070920 0.904520 -0.555017
O17   O     O_R   0.078240 0.739160 0.924260 -0.553200
O18   O     O_R   0.921760 0.239160 0.075740 -0.553155
C31   C     C_R   0.116709 0.400672 0.115394 0.815228
C32   C     C_R   0.883290 0.900673 0.884608 0.815059
O19   O     O_3   0.996740 0.404980 0.943840 -0.388592
O20   O     O_3   0.003260 0.904980 0.056160 -0.388602
V3    V     V_3+5 0.000600 0.680640 0.010420 1.448208
V4    V     V_3+5 0.999400 0.180640 0.989580 1.448395
N1    N     N_2   0.812616 0.518636 0.815708 -0.524006
H9    H     H_    0.829848 0.447132 0.872821 0.247046
C33   C     C_3   0.876844 0.495464 0.757857 -0.378081
H10   H     H_    0.894920 0.347488 0.757894 0.180696
H11   H     H_    0.931083 0.569140 0.783189 0.193131
H12   H     H_    0.858529 0.527950 0.689027 0.253618
N2    N     N_2   0.187387 0.018628 0.184308 -0.523944
H13   H     H_    0.170174 0.947092 0.127200 0.247026
C34   C     C_3   0.123141 0.995454 0.242139 -0.378177
H14   H     H_    0.105081 0.847468 0.242120 0.180637
H15   H     H_    0.068900 0.069068 0.216773 0.193305
H16   H     H_    0.141421 0.028000 0.310972 0.253341
C35   C     C_2   0.690894 0.221472 0.694901 0.667298
O21   O     O_2   0.757007 0.275210 0.680140 -0.626137
O22   O     O_R   0.627527 0.309473 0.650631 -0.602508
H17   H     H_    0.645156 0.376597 0.596514 0.304377
C36   C     C_2   0.309097 0.721476 0.305103 0.667301
O23   O     O_2   0.242981 0.775207 0.319856 -0.626124
O24   O     O_R   0.372459 0.809474 0.349385 -0.602510
H18   H     H_    0.354824 0.876609 0.403495 0.304376
C37   C     C_2   0.738187 0.653709 0.925886 0.721737
O25   O     O_2   0.773494 0.727724 0.989584 -0.576171
O26   O     O_R   0.684722 0.511153 0.942272 -0.659825
H19   H     H_    0.673795 0.500987 0.007212 0.300948
C38   C     C_2   0.261801 0.153734 0.074113 0.721610
O27   O     O_2   0.226453 0.227697 0.010422 -0.576153
O28   O     O_R   0.315311 0.011258 0.057714 -0.659797
H20   H     H_    0.326228 0.001129 0.992769 0.300959
C39   C     C_2   0.604394 0.655860 0.798693 0.817898
O29   O     O_2   0.582900 0.744255 0.861653 -0.549900
O30   O     O_R   0.553173 0.522007 0.759997 -0.641926
H21   H     H_    0.501223 0.512427 0.789772 0.286971
C40   C     C_2   0.395604 0.155873 0.201310 0.817937
O31   O     O_2   0.417106 0.244305 0.138363 -0.549888
O32   O     O_R   0.446815 0.021977 0.239989 -0.641942
H22   H     H_    0.498766 0.012409 0.210218 0.286971
C41   C     C_2   0.918003 0.857552 0.691381 0.732069
O33   O     O_2   0.976524 0.901553 0.739056 -0.592475
O34   O     O_R   0.929052 0.776346 0.609126 -0.637285
H23   H     H_    0.987195 0.754569 0.599089 0.302409
C42   C     C_2   0.082008 0.357506 0.308652 0.732177
O35   O     O_2   0.023483 0.400982 0.260885 -0.592573
O36   O     O_R   0.070974 0.276877 0.391026 -0.637220
H24   H     H_    0.012842 0.254979 0.401069 0.302420
N3    N     N_2   0.774069 0.713738 0.589103 -0.483470
H25   H     H_    0.748618 0.589625 0.603523 0.278236
C43   C     C_3   0.769167 0.749716 0.494489 -0.468175
H26   H     H_    0.785662 0.622483 0.458592 0.199653
H27   H     H_    0.811047 0.861976 0.478561 0.218096
H28   H     H_    0.707594 0.789993 0.471340 0.171478
N4    N     N_2   0.225933 0.213736 0.410904 -0.483524
H29   H     H_    0.251302 0.089562 0.396428 0.278286
C44   C     C_3   0.230949 0.249649 0.505525 -0.468185
H30   H     H_    0.214418 0.122452 0.541427 0.199643
H31   H     H_    0.189152 0.362020 0.521524 0.218078
H32   H     H_    0.292560 0.289726 0.528609 0.171545
N5    N     N_2   0.717184 0.046887 0.920124 -0.503470
H33   H     H_    0.670257 0.964288 0.934725 0.328511
C45   C     C_3   0.758751 0.137671 0.994836 -0.404613
H34   H     H_    0.715405 0.178475 0.043339 0.179548
H35   H     H_    0.789499 0.263203 0.974047 0.172800
H36   H     H_    0.802535 0.042924 0.028663 0.223962
N6    N     N_2   0.282816 0.546888 0.079879 -0.503504
H37   H     H_    0.329742 0.464288 0.065285 0.328505
C46   C     C_3   0.241249 0.637674 0.005168 -0.404674
H38   H     H_    0.284585 0.678450 0.956654 0.179566
H39   H     H_    0.210517 0.763221 0.025955 0.172800
H40   H     H_    0.197454 0.542940 0.971353 0.223966
N7    N     N_2   0.602943 0.085116 0.797200 -0.487007
H41   H     H_    0.605351 0.202585 0.836451 0.304878
C47   C     C_3   0.523304 0.062933 0.755919 -0.355358
H42   H     H_    0.479715 0.084202 0.806837 0.169761
H43   H     H_    0.512892 0.921434 0.730524 0.157098
H44   H     H_    0.510074 0.167934 0.703994 0.243512
N8    N     N_2   0.397052 0.585144 0.202804 -0.486996
H45   H     H_    0.394641 0.702613 0.163551 0.304887
C48   C     C_3   0.476692 0.562972 0.244085 -0.355313
H46   H     H_    0.520281 0.584261 0.193169 0.169762
H47   H     H_    0.487108 0.421471 0.269476 0.157089
H48   H     H_    0.489917 0.667965 0.296013 0.243516

loop_
_geom_bond_atom_site_label_1
_geom_bond_atom_site_label_2
_ccdc_geom_bond_type
C16   C40   S    
C47   H44   S    
O26   H19   S    
C3    C6    S    
C41   O33   D    
C14   N2    S    
C29   O18   A    
O15   C31   A    
C15   H1    S    
C34   H14   S    
O30   H21   S    
O1    C3    A    
C22   C31   S    
O2    C4    A    
C2    O7    A    
C36   O23   D    
C47   H42   S    
C23   C25   S    
C35   O21   D    
C14   C38   S    
O5    C3    A    
C42   O36   S    
C39   O29   D    
O24   H18   S    
C18   C22   S    
C7    C9    S    
C44   H31   S    
C45   H35   S    
C16   C24   S    
N4    H29   S    
C40   O31   D    
O19   V3    S    
O6    V2    S    
C27   N7    S    
O20   V4    S    
N3    C43   S    
C36   O24   S    
C48   H46   S    
C43   H26   S    
C15   C23   S    
C20   N6    S    
N1    C33   S    
O15   V3    S    
C4    C5    S    
O36   H24   S    
O16   V4    S    
C38   O28   S    
C20   C22   S    
C46   H40   S    
C24   C26   S    
C39   O30   S    
O11   V4    S    
C25   N3    S    
C19   N5    S    
O12   V3    S    
C34   H15   S    
C1    O8    A    
C40   O32   S    
O14   C30   A    
O17   V3    S    
C35   O22   S    
O18   V4    S    
C37   O26   S    
C33   H10   S    
C19   C27   S    
C45   H34   S    
C20   C28   S    
O4    C2    A    
C28   C36   S    
O14   V4    S    
C48   H48   S    
O28   H20   S    
N2    C34   S    
C5    C7    T    
C45   H36   S    
C23   C27   S    
N4    C44   S    
C12   C29   S    
C37   O25   D    
C19   H3    S    
O16   C32   A    
C21   C32   S    
O13   C29   A    
C48   H47   S    
O4    V2    S    
O19   V4    S    
N6    C46   S    
O20   V3    S    
O32   H22   S    
O10   V1    S    
O6    C4    A    
C13   C37   S    
C25   H7    S    
O13   V3    S    
C43   H27   S    
O1    V2    S    
C26   H8    S    
O2    V1    S    
N5    H33   S    
C13   C21   S    
C14   C22   S    
C8    C10   S    
C28   N8    S    
C18   C42   S    
C9    C11   T    
N7    H41   S    
C34   H16   S    
C10   C12   T    
C44   H32   S    
C27   C35   S    
N6    H37   S    
C17   C41   S    
O3    V1    S    
C11   C30   S    
C46   H38   S    
C33   H11   S    
C47   H43   S    
C17   C25   S    
C20   H4    S    
C18   H6    S    
O3    C1    A    
N8    H45   S    
C13   C15   S    
C42   O35   D    
C14   C16   S    
O11   C31   A    
C33   H12   S    
O12   C32   A    
C16   H2    S    
O7    V1    S    
N2    H13   S    
O8    V2    S    
C44   H30   S    
N8    C48   S    
C17   C21   S    
O5    V1    S    
C19   C21   S    
C43   H28   S    
C6    C8    T    
N5    C45   S    
C15   C39   S    
O22   H17   S    
C26   N4    S    
C24   C28   S    
C41   O34   S    
N1    H9    S    
C17   H5    S    
O9    V2    S    
O34   H23   S    
N7    C47   S    
C13   N1    S    
C18   C26   S    
C2    C23   S    
C1    C24   S    
C38   O27   D    
N3    H25   S    
C46   H39   S    
C30   O17   A    
