data_mof_unit_1418.cif
_audit_creation_date              2013-03-05T15:49:18-0500
_audit_creation_method            fapswitch 2.2
_symmetry_space_group_name_H-M    P1
_symmetry_Int_Tables_number       1
_space_group_crystal_system       triclinic
_cell_length_a                    10.854928
_cell_length_b                    12.067701
_cell_length_c                    12.979919
_cell_angle_alpha                 92.533267
_cell_angle_beta                  91.234629
_cell_angle_gamma                 85.974278
_cell_volume                      1694.14883057

loop_
_atom_site_label
_atom_site_type_symbol
_atom_site_description
_atom_site_fract_x
_atom_site_fract_y
_atom_site_fract_z
_atom_type_partial_charge
O1    O     O_R   0.506170 0.421690 0.658830 -0.597518
O2    O     O_R   0.491330 0.609320 0.646410 -0.588839
C1    C     C_R   0.488563 0.521257 0.699427 1.003837
O3    O     O_R   0.690660 0.406170 0.506210 -0.647835
O4    O     O_R   0.675810 0.593790 0.493790 -0.573116
C2    C     C_R   0.739436 0.501276 0.502766 0.913150
Zn1   Zn    Zn3+2 0.509910 0.374720 0.508290 1.001293
Zn2   Zn    Zn3+2 0.490090 0.625280 0.491710 1.030792
O5    O     O_R   0.508670 0.390680 0.353590 -0.631139
O6    O     O_R   0.493830 0.578310 0.341170 -0.643599
O7    O     O_R   0.324190 0.406210 0.506210 -0.639423
O8    O     O_R   0.309340 0.593830 0.493790 -0.641588
C3    C     C_R   0.508213 0.478800 0.299441 0.863374
C4    C     C_R   0.259575 0.500091 0.502572 0.890052
C5    C     C_R   0.898247 0.409039 0.676474 0.252362
C6    C     C_R   0.961256 0.316957 0.721621 -0.256643
H1    H     H_    0.929676 0.287134 0.793161 0.232913
C7    C     C_R   0.067303 0.264932 0.676166 0.325371
C8    C     C_R   0.122624 0.318906 0.597283 -0.159412
H2    H     H_    0.208553 0.281492 0.568973 0.213132
C9    C     C_R   0.065587 0.417989 0.558267 -0.003926
C10   C     C_R   0.941406 0.442672 0.581265 -0.029715
C11   C     C_R   0.870931 0.508518 0.512158 -0.086284
C12   C     C_R   0.928811 0.585813 0.455314 -0.055298
C13   C     C_R   0.053689 0.594594 0.471123 -0.086314
C14   C     C_R   0.125833 0.501136 0.507282 -0.118506
C15   C     C_R   0.512418 0.467239 0.186654 -0.154972
C16   C     C_R   0.469484 0.534599 0.809382 -0.209330
C17   C     C_R   0.467137 0.653682 0.963065 0.281927
C18   C     C_R   0.468774 0.640296 0.856864 -0.181548
C19   C     C_R   0.450617 0.442305 0.867350 0.270858
C20   C     C_R   0.468742 0.451303 0.973966 0.009496
C21   C     C_R   0.482142 0.557584 0.022847 -0.019527
C22   C     C_R   0.513057 0.563729 0.128268 -0.054138
C23   C     C_R   0.506480 0.362068 0.135481 -0.057869
C24   C     C_R   0.480865 0.355516 0.030982 -0.111943
H3    H     H_    0.476140 0.273735 0.994631 0.217067
H4    H     H_    0.464231 0.713304 0.811370 0.247333
N1    N     N_R   0.523130 0.207800 0.519340 -0.149421
N2    N     N_R   0.476870 0.792180 0.480660 -0.200631
C25   C     C_R   0.389907 0.953772 0.393369 0.202867
C26   C     C_R   0.401099 0.837844 0.406000 -0.068028
C27   C     C_R   0.549068 0.857799 0.541130 0.382327
C28   C     C_R   0.540588 0.974890 0.532045 -0.045445
C29   C     C_R   0.459074 0.025234 0.458684 -0.085670
C30   C     C_R   0.451041 0.144573 0.455042 0.071499
C31   C     C_R   0.598892 0.157559 0.591128 0.105331
C32   C     C_R   0.610332 0.042417 0.597167 -0.177092
H5    H     H_    0.670888 0.006552 0.656232 0.207588
C33   C     C_1   0.862510 0.662541 0.387347 0.271881
N3    N     N_1   0.811464 0.725046 0.333529 -0.140484
N4    N     N_R   0.394312 0.348194 0.819757 0.220277
O9    O     O_R   0.287817 0.363950 0.773306 -0.391294
O10   O     O_R   0.450195 0.249245 0.816848 -0.357841
C34   C     C_1   0.362117 0.202414 0.388928 0.322883
N5    N     N_1   0.290287 0.248465 0.335843 -0.139491
C35   C     C_1   0.655133 0.220223 0.672435 0.319281
N6    N     N_1   0.697995 0.267132 0.742048 -0.134274
N7    N     N_R   0.311474 0.995827 0.311764 0.194362
O11   O     O_R   0.192121 0.998248 0.320327 -0.344699
O12   O     O_R   0.358367 0.011074 0.222537 -0.305566
C36   C     C_1   0.334168 0.766782 0.335992 0.408315
N8    N     N_1   0.279466 0.710849 0.279435 -0.142854
N9    N     N_R   0.636894 0.807144 0.611299 0.232142
O13   O     O_R   0.751952 0.793325 0.584742 -0.355849
O14   O     O_R   0.611043 0.808472 0.708624 -0.341074
N10   N     N_R   0.810514 0.479558 0.736529 0.205367
O15   O     O_R   0.785294 0.454252 0.829880 -0.375595
O16   O     O_R   0.780803 0.580856 0.710217 -0.320414
N11   N     N_R   0.125008 0.164222 0.716384 0.256108
O17   O     O_R   0.074847 0.115910 0.791108 -0.313807
O18   O     O_R   0.226131 0.117980 0.676646 -0.333335
C37   C     C_1   0.096172 0.705978 0.471079 0.297896
N12   N     N_1   0.125854 0.796298 0.473797 -0.129784
C38   C     C_1   0.561287 0.664951 0.172478 0.298823
N13   N     N_1   0.598445 0.746587 0.206560 -0.116032
C39   C     C_1   0.538367 0.258332 0.184485 0.289826
N14   N     N_1   0.565619 0.174944 0.222483 -0.126096
N15   N     N_R   0.443119 0.764012 0.007536 0.213759
O19   O     O_R   0.494173 0.847385 0.969723 -0.287227
O20   O     O_R   0.353327 0.783937 0.072001 -0.323008

loop_
_geom_bond_atom_site_label_1
_geom_bond_atom_site_label_2
_geom_bond_distance
_ccdc_geom_bond_type
C7    N11   1.441187 S    
C34   N5    1.158192 T    
C25   C26   1.412212 A    
C8    H2    1.072322 S    
C19   N4    1.436721 S    
C9    C14   1.428961 A    
C39   N14   1.157241 T    
C28   C29   1.413547 A    
Zn1   O7    2.024919 S    
C36   N8    1.157924 T    
C20   C24   1.396866 A    
C24   H3    1.078949 S    
C8    C9    1.416182 A    
O4    C2    1.279362 A    
O7    C4    1.292066 A    
C5    C6    1.406980 A    
C17   C21   1.421649 A    
C18   H4    1.079805 S    
C7    C8    1.404845 A    
C37   N12   1.156920 T    
O5    C3    1.300020 A    
C5    C10   1.416836 A    
C19   C20   1.394120 A    
C6    H1    1.081609 S    
C30   C34   1.441540 S    
C11   C12   1.404389 A    
N11   O17   1.301706 A    
C26   C36   1.441924 S    
C22   C38   1.452706 S    
N2    C26   1.366926 A    
N7    O11   1.300884 A    
C9    C10   1.395700 A    
O3    Zn1   2.025358 S    
N4    O10   1.300201 A    
C27   N9    1.429009 S    
C21   C22   1.401864 A    
N2    C27   1.364916 A    
C15   C22   1.417612 A    
C12   C33   1.450818 S    
N7    O12   1.300659 A    
N10   O15   1.301985 A    
C12   C13   1.377351 A    
C25   N7    1.432601 S    
O3    C2    1.300166 A    
N15   O20   1.300935 A    
C15   C23   1.411120 A    
C13   C14   1.418622 A    
C29   C30   1.439467 A    
C23   C39   1.446234 S    
O1    C1    1.293847 A    
C23   C24   1.378659 A    
N9    O14   1.299110 A    
C38   N13   1.156942 T    
C17   C18   1.381146 A    
C31   C35   1.422975 S    
C31   C32   1.391847 A    
C17   N15   1.436551 S    
Zn2   O8    2.025355 S    
C5    N10   1.448556 S    
C33   N3    1.155496 T    
C4    C14   1.453508 S    
N1    C30   1.374924 A    
Zn2   O6    2.010801 S    
C32   H5    1.083907 S    
O8    C4    1.297804 A    
C27   C28   1.419505 A    
N4    O9    1.298171 A    
N1    C31   1.363482 A    
Zn1   O5    2.025331 S    
C1    C16   1.446885 S    
Zn1   N1    2.020592 S    
O1    Zn1   2.010800 S    
C16   C19   1.400481 A    
O2    Zn2   2.025333 S    
O6    C3    1.296001 A    
O4    Zn2   2.024919 S    
C20   C21   1.420915 A    
C16   C18   1.391471 A    
O2    C1    1.293769 A    
N9    O13   1.300285 A    
C35   N6    1.151955 T    
C2    C11   1.438393 S    
C13   C37   1.451383 S    
N15   O19   1.301525 A    
C6    C7    1.400857 A    
C25   C29   1.423028 A    
C10   C11   1.403323 A    
C3    C15   1.465836 S    
N11   O18   1.302042 A    
Zn2   N2    2.020354 S    
N10   O16   1.300698 A    
C28   C32   1.396367 A    
