data_mof_unit_4344.cif
_audit_creation_date              2012-12-11T17:05:24-0500
_audit_creation_method            fapswitch 2.2
_symmetry_space_group_name_H-M    P1
_symmetry_Int_Tables_number       1
_space_group_crystal_system       triclinic
_cell_length_a                    7.144859
_cell_length_b                    14.513052
_cell_length_c                    16.056422
_cell_angle_alpha                 89.864809
_cell_angle_beta                  89.370713
_cell_angle_gamma                 89.56896
_cell_volume                      1664.79812166

loop_
_atom_site_label
_atom_site_type_symbol
_atom_type_description
_atom_site_fract_x
_atom_site_fract_y
_atom_site_fract_z
_atom_type_partial_charge
O1    O     O_R   0.494380 0.415640 0.412830 -0.545177
O2    O     O_R   0.823960 0.405540 0.586560 -0.549204
O3    O     O_R   0.994270 0.584360 0.587170 -0.547619
C1    C     C_R   0.655104 0.383150 0.614116 0.727843
O4    O     O_R   0.824090 0.404620 0.413450 -0.546036
O5    O     O_R   0.994400 0.583430 0.412820 -0.540505
C2    C     C_R   0.656219 0.382060 0.385434 0.666743
O6    O     O_R   0.494250 0.416570 0.587180 -0.525277
O7    O     O_3   0.660800 0.558670 0.500000 -0.347887
V1    V     V_3+5 0.935650 0.489120 0.500000 1.410233
O8    O     O_R   0.324110 0.594460 0.413440 -0.536240
C3    C     C_R   0.155424 0.615719 0.384862 0.692501
O9    O     O_R   0.323980 0.595380 0.586550 -0.485235
C4    C     C_R   0.154899 0.610067 0.619977 0.806125
V2    V     V_3+5 0.435660 0.510880 0.500000 1.492419
O10   O     O_3   0.160640 0.441330 0.500000 -0.391360
C5    C     C_3   0.016065 0.638679 0.774166 0.229074
C6    C     C_3   0.978115 0.724155 0.835349 0.449993
H1    H     H_    0.926823 0.762122 0.643034 0.201316
C7    C     C_3   0.073530 0.770904 0.662775 -0.395320
C8    C     C_3   0.339860 0.689897 0.733862 0.508618
C9    C     C_3   0.144601 0.674543 0.696656 -0.150157
C10   C     C_3   0.121387 0.804057 0.817151 -0.126970
C11   C     C_3   0.089683 0.852185 0.726817 0.297178
C12   C     C_3   0.316320 0.752640 0.814993 -0.149161
H2    H     H_    0.410288 0.809844 0.809537 0.230606
H3    H     H_    0.146708 0.789559 0.603737 0.182266
C13   C     C_R   0.266624 0.816611 0.240272 0.094768
C14   C     C_R   0.117855 0.816456 0.183824 -0.132145
C15   C     C_R   0.970071 0.755039 0.200734 -0.140181
H4    H     H_    0.849286 0.753597 0.160754 0.164541
C16   C     C_R   0.981168 0.690982 0.266776 -0.167537
H5    H     H_    0.867817 0.642767 0.275532 0.133028
C17   C     C_R   0.141485 0.685502 0.317412 -0.104684
C18   C     C_R   0.278843 0.752283 0.304418 0.075147
C19   C     C_3   0.486271 0.743765 0.296016 -0.397057
C20   C     C_3   0.473961 0.815600 0.226538 -0.036263
H6    H     H_    0.530161 0.674579 0.273181 0.150420
H7    H     H_    0.559188 0.767211 0.352934 0.191363
H8    H     H_    0.515471 0.788929 0.164079 0.161227
C21   C     C_R   0.494576 0.313614 0.739098 0.171539
C22   C     C_R   0.646837 0.315880 0.683541 -0.114113
C23   C     C_R   0.796957 0.254885 0.699314 -0.181094
H9    H     H_    0.919917 0.254998 0.659433 0.134824
C24   C     C_R   0.785140 0.189033 0.763815 -0.185742
H10   H     H_    0.899685 0.140683 0.771485 0.132338
C25   C     C_R   0.624188 0.183239 0.815326 -0.137537
C26   C     C_R   0.484454 0.249970 0.803782 0.117522
C27   C     C_3   0.277401 0.240724 0.795859 -0.099855
C28   C     C_3   0.289313 0.309089 0.723565 -0.377106
H11   H     H_    0.234151 0.170501 0.776760 0.137576
H12   H     H_    0.217600 0.376033 0.734825 0.242140
H13   H     H_    0.258632 0.277385 0.662290 0.129257
C29   C     C_R   0.497778 0.249861 0.310913 0.111098
C30   C     C_R   0.649236 0.310366 0.318728 -0.131426
C31   C     C_R   0.798183 0.298276 0.261102 -0.173670
H14   H     H_    0.920989 0.341071 0.264988 0.135280
C32   C     C_R   0.785469 0.234827 0.194449 -0.158770
H15   H     H_    0.900374 0.230265 0.150159 0.133560
C33   C     C_R   0.622276 0.182019 0.182260 -0.096439
C34   C     C_R   0.484213 0.188540 0.244574 0.060842
C35   C     C_3   0.276875 0.199220 0.240287 -0.410719
C36   C     C_3   0.290925 0.265226 0.314185 -0.026934
H16   H     H_    0.203268 0.133597 0.254144 0.176601
H17   H     H_    0.232944 0.234128 0.181929 0.156060
H18   H     H_    0.250249 0.337475 0.299331 0.143459
O11   O     O_R   0.771490 0.080820 0.910070 -0.542281
O12   O     O_R   0.441590 0.092730 0.083780 -0.543921
O13   O     O_R   0.271350 0.913900 0.084390 -0.543016
C37   C     C_R   0.609803 0.115403 0.111672 0.670300
O14   O     O_R   0.441780 0.091820 0.910670 -0.544065
O15   O     O_R   0.271540 0.912980 0.910040 -0.545903
C38   C     C_R   0.610786 0.113056 0.882180 0.704951
O16   O     O_R   0.771300 0.081740 0.084420 -0.542486
O17   O     O_3   0.604960 0.938700 0.997240 -0.347053
V3    V     V_3+5 0.330090 0.008230 0.997220 1.403205
O18   O     O_R   0.941820 0.901930 0.910640 -0.494901
C39   C     C_R   0.111753 0.878078 0.884594 0.780254
O19   O     O_R   0.941630 0.902840 0.083750 -0.528964
C40   C     C_R   0.110062 0.881609 0.112402 0.723036
V4    V     V_3+5 0.830090 0.986410 0.997190 1.477837
O20   O     O_3   0.105080 0.055990 0.997200 -0.391499
C41   C     C_3   0.841475 0.597270 0.742897 -0.530698
H19   H     H_    0.774336 0.641956 0.697390 0.262104
H20   H     H_    0.861520 0.528550 0.713481 0.221360
H21   H     H_    0.758557 0.586856 0.800444 0.289814
C42   C     C_3   0.250235 0.921978 0.704037 -0.717274
H22   H     H_    0.233263 0.986232 0.741164 0.173867
H23   H     H_    0.395671 0.902111 0.714721 0.234909
H24   H     H_    0.243814 0.941653 0.637146 0.212780
C43   C     C_3   0.563076 0.907767 0.248726 -0.727360
H25   H     H_    0.514819 0.932390 0.310924 0.206095
H26   H     H_    0.717693 0.900471 0.249056 0.209127
H27   H     H_    0.524348 0.960061 0.201619 0.210704
Br1   Br    Br    0.084726 0.526475 0.841874 -0.551636
C44   C     C_3   0.172807 0.277941 0.872628 -0.637072
H28   H     H_    0.025246 0.293708 0.857024 0.235217
H29   H     H_    0.174538 0.225575 0.923022 0.205847
H30   H     H_    0.238702 0.341770 0.896153 0.255506
C45   C     C_3   0.202864 0.227951 0.394728 -0.730760
H31   H     H_    0.048079 0.230348 0.390288 0.214603
H32   H     H_    0.247546 0.155617 0.406667 0.200741
H33   H     H_    0.245799 0.270829 0.448212 0.217318
Br2   Br    Br    0.943122 0.693221 0.955070 -0.523465
Br3   Br    Br    0.741536 0.774834 0.823415 -0.618927
C46   C     C_3   0.913708 0.917404 0.715780 -0.660369
H34   H     H_    0.783303 0.882530 0.698546 0.259175
H35   H     H_    0.887983 0.961713 0.770769 0.206592
H36   H     H_    0.931321 0.965204 0.661988 0.178490
Br4   Br    Br    0.506781 0.748700 0.649469 -0.636047
Br5   Br    Br    0.441670 0.565454 0.751075 -0.564551
C47   C     C_3   0.372147 0.704585 0.898745 -0.533829
H37   H     H_    0.281436 0.648852 0.918317 0.270289
H38   H     H_    0.507610 0.668078 0.895374 0.278908
H39   H     H_    0.379368 0.754905 0.950443 0.212959

loop_
_geom_bond_atom_site_label_1
_geom_bond_atom_site_label_2
_ccdc_geom_bond_type
C30   C31   A    
C21   C22   A    
H1    C7    S    
C2    C30   S    
C1    O6    A    
C47   H38   S    
C8    Br4   S    
O18   C39   A    
C35   C36   S    
C46   H35   S    
C41   H19   S    
C19   C20   S    
C20   H8    S    
O5    C3    A    
C15   H4    S    
C29   C36   S    
C32   C33   A    
V2    O10   S    
C44   H30   S    
O14   C38   A    
C31   H14   S    
O13   V3    S    
C17   C18   A    
C35   H16   S    
C12   C47   S    
O8    V2    S    
C7    C11   S    
C13   C18   A    
C27   H11   S    
C44   H29   S    
C37   O16   A    
C28   H12   S    
C10   C11   S    
O1    V2    S    
C33   C37   S    
O7    V1    S    
O15   V3    S    
C36   H18   S    
C10   C39   S    
C8    C9    S    
C47   H37   S    
C8    Br5   S    
V4    O20   S    
C24   C25   A    
C28   H13   S    
C20   C43   S    
C6    C10   S    
C25   C38   S    
V3    O20   S    
C43   H25   S    
O19   V4    S    
O17   V4    S    
C36   C45   S    
C32   H15   S    
C24   H10   S    
C45   H33   S    
C33   C34   A    
C5    C41   S    
C18   C19   S    
C16   C17   A    
O2    C1    A    
O17   V3    S    
C14   C15   A    
C43   H26   S    
C25   C26   A    
O18   V4    S    
C44   H28   S    
C45   H32   S    
C5    C6    S    
C6    Br2   S    
C23   C24   A    
O3    C4    A    
O11   C38   A    
C26   C27   S    
C41   H20   S    
C7    C9    S    
O11   V4    S    
O6    V2    S    
C42   H23   S    
C23   H9    S    
C11   C46   S    
C22   C23   A    
O16   V4    S    
C3    C17   S    
O2    V1    S    
C21   C28   S    
O4    C2    A    
C8    C12   S    
C29   C30   A    
C13   C14   A    
C35   H17   S    
O1    C2    A    
C19   H7    S    
C5    Br1   S    
C29   C34   A    
O5    V1    S    
O8    C3    A    
C7    H3    S    
O12   V3    S    
C5    C9    S    
C16   H5    S    
C4    C9    S    
O9    V2    S    
C12   H2    S    
C6    Br3   S    
O4    V1    S    
O3    V1    S    
V1    O10   S    
C43   H27   S    
C15   C16   A    
O14   V3    S    
C14   C40   S    
C1    C22   S    
C13   C20   S    
C19   H6    S    
C45   H31   S    
C21   C26   A    
C31   C32   A    
C10   C12   S    
C27   C44   S    
O7    V2    S    
C34   C35   S    
C11   C42   S    
O19   C40   A    
C41   H21   S    
C42   H22   S    
O12   C37   A    
C27   C28   S    
C46   H34   S    
C42   H24   S    
O15   C39   A    
O13   C40   A    
O9    C4    A    
C47   H39   S    
C46   H36   S    
