data_mof_unit_4317.cif
_audit_creation_date              2012-12-10T16:37:48-0500
_audit_creation_method            fapswitch 2.2
_symmetry_space_group_name_H-M    P1
_symmetry_Int_Tables_number       1
_space_group_crystal_system       triclinic
_cell_length_a                    28.18894
_cell_length_b                    18.457048
_cell_length_c                    16.884783
_cell_angle_alpha                 90.066762
_cell_angle_beta                  61.191962
_cell_angle_gamma                 89.738629
_cell_volume                      7697.52971213

loop_
_atom_site_label
_atom_site_type_symbol
_atom_type_description
_atom_site_fract_x
_atom_site_fract_y
_atom_site_fract_z
_atom_type_partial_charge
C1    C     C_R   0.700697 0.265622 0.677251 0.879873
C2    C     C_R   0.299458 0.734868 0.322757 0.874668
C3    C     C_R   0.299117 0.265825 0.322626 0.890582
C4    C     C_R   0.701114 0.733792 0.677141 0.891592
C5    C     C_R   0.200726 0.765412 0.677404 0.913969
C6    C     C_R   0.793150 0.221272 0.327762 0.920255
C7    C     C_R   0.799170 0.765702 0.322645 0.886517
C8    C     C_R   0.200967 0.234077 0.677161 0.886708
C9    C     C_R   0.905517 0.500794 0.483125 0.073939
C10   C     C_R   0.093317 0.498182 0.521051 0.072088
C11   C     C_R   0.416594 0.999705 0.451901 0.068060
C12   C     C_R   0.584030 0.000484 0.545426 0.066522
C13   C     C_R   0.072457 0.376265 0.581955 -0.230411
C14   C     C_R   0.926880 0.622468 0.421287 -0.230035
C15   C     C_R   0.882987 0.381521 0.551478 -0.218046
C16   C     C_R   0.116201 0.616659 0.451197 -0.226148
C17   C     C_R   0.577519 0.869899 0.559203 -0.234164
C18   C     C_R   0.423005 0.130315 0.438126 -0.225113
C19   C     C_R   0.422267 0.868809 0.442458 -0.237992
C20   C     C_R   0.578305 0.131383 0.554815 -0.238343
C21   C     C_R   0.707723 0.243415 0.967337 0.020197
C22   C     C_R   0.267074 0.713298 0.060764 0.006843
C23   C     C_R   0.294638 0.241569 0.028803 0.010249
C24   C     C_R   0.735857 0.707724 0.937203 0.014598
C25   C     C_R   0.207389 0.745167 0.969794 0.010467
C26   C     C_R   0.769129 0.211589 0.055595 0.014543
C27   C     C_R   0.795480 0.739504 0.028437 0.013960
C28   C     C_R   0.235046 0.209750 0.937614 0.012246
C29   C     C_R   0.758434 0.207787 0.920771 0.082545
C30   C     C_R   0.229101 0.770973 0.091106 0.086016
C31   C     C_R   0.252878 0.189527 0.064235 0.092536
C32   C     C_R   0.776611 0.761173 0.903385 0.088896
C33   C     C_R   0.248492 0.691566 0.935285 0.090902
C34   C     C_R   0.714062 0.233191 0.106640 0.064276
C35   C     C_R   0.753350 0.687874 0.064338 0.084862
C36   C     C_R   0.275395 0.263722 0.904195 0.093343
C37   C     C_R   0.792675 0.202366 0.961016 -0.035682
C38   C     C_R   0.192974 0.778803 0.054419 -0.033518
C39   C     C_R   0.228481 0.166186 0.011232 -0.023681
C40   C     C_R   0.811962 0.768409 0.941422 -0.026461
C41   C     C_R   0.272564 0.668106 0.988655 -0.024000
C42   C     C_R   0.685521 0.259046 0.060987 -0.038043
C43   C     C_R   0.728729 0.664537 0.011563 -0.019818
C44   C     C_R   0.310810 0.271035 0.942109 -0.027274
C45   C     C_R   0.632156 0.305649 0.960944 0.041952
C46   C     C_R   0.336806 0.643001 0.074469 0.033171
C47   C     C_R   0.365789 0.310196 0.039997 0.038742
C48   C     C_R   0.663641 0.641702 0.926322 0.039741
C49   C     C_R   0.135131 0.811443 0.958918 0.040544
C50   C     C_R   0.854738 0.174776 0.050812 0.047498
C51   C     C_R   0.866387 0.808926 0.039760 0.044998
C52   C     C_R   0.163372 0.142611 0.926446 0.034972
C53   C     C_R   0.610413 0.336202 0.906769 -0.118983
C54   C     C_R   0.372881 0.636664 0.111179 -0.124081
C55   C     C_R   0.387623 0.339308 0.094519 -0.116593
C56   C     C_R   0.627417 0.636414 0.889477 -0.123365
C57   C     C_R   0.112156 0.838791 0.905405 -0.117203
C58   C     C_R   0.883139 0.154708 0.098710 -0.130576
C59   C     C_R   0.887891 0.838786 0.094419 -0.123775
C60   C     C_R   0.127177 0.136916 0.889600 -0.115421
C61   C     C_R   0.631211 0.316254 0.817433 -0.301575
C62   C     C_R   0.364080 0.675342 0.186675 -0.298124
C63   C     C_R   0.367026 0.318682 0.183409 -0.297445
C64   C     C_R   0.636816 0.674854 0.813628 -0.298850
C65   C     C_R   0.132074 0.817008 0.817075 -0.297651
C66   C     C_R   0.862804 0.173711 0.187584 -0.292762
C67   C     C_R   0.867158 0.818423 0.183425 -0.300508
C68   C     C_R   0.136449 0.175338 0.813754 -0.299444
C69   C     C_R   0.675745 0.271256 0.776240 -0.118673
C70   C     C_R   0.321225 0.722534 0.225690 -0.124062
C71   C     C_R   0.323612 0.272249 0.223414 -0.123569
C72   C     C_R   0.680462 0.720309 0.773787 -0.126545
C73   C     C_R   0.176328 0.771536 0.776543 -0.126889
C74   C     C_R   0.810635 0.199116 0.235640 -0.120859
C75   C     C_R   0.823842 0.771800 0.223415 -0.120833
C76   C     C_R   0.179931 0.221116 0.773994 -0.126573
C77   C     C_R   0.699587 0.241570 0.827897 0.078089
C78   C     C_R   0.293319 0.743407 0.177064 0.081240
C79   C     C_R   0.301173 0.240991 0.170130 0.077274
C80   C     C_R   0.709775 0.739028 0.820923 0.082295
C81   C     C_R   0.199688 0.741412 0.829287 0.078180
C82   C     C_R   0.776637 0.203642 0.194546 0.063097
C83   C     C_R   0.801622 0.740040 0.170092 0.073796
C84   C     C_R   0.208891 0.240489 0.821432 0.087399
C85   C     C_R   0.691423 0.129251 0.534225 0.875529
C86   C     C_R   0.308617 0.870742 0.465534 0.898007
C87   C     C_R   0.308733 0.129288 0.465057 0.900951
C88   C     C_R   0.691312 0.870781 0.534636 0.894828
C89   C     C_R   0.196316 0.627695 0.518649 0.910904
C90   C     C_R   0.803269 0.372154 0.482616 0.927268
C91   C     C_R   0.808724 0.629439 0.464556 0.896766
C92   C     C_R   0.191078 0.370295 0.536445 0.890953
C93   C     C_R   0.679708 0.263531 0.918889 0.077171
C94   C     C_R   0.299305 0.700312 0.103517 0.076627
C95   C     C_R   0.320461 0.264313 0.079813 0.076162
C96   C     C_R   0.702807 0.696615 0.895404 0.076681
C97   C     C_R   0.180859 0.766073 0.919133 0.077748
C98   C     C_R   0.800294 0.197360 0.100029 0.077978
C99   C     C_R   0.821135 0.762806 0.079556 0.078081
C100  C     C_R   0.202104 0.198133 0.895813 0.076459
C101  C     C_R   0.608615 0.316403 0.055115 -0.225638
C102  C     C_R   0.334820 0.591717 0.014331 -0.231444
C103  C     C_R   0.389158 0.322123 0.945900 -0.214772
C104  C     C_R   0.664483 0.591186 0.988139 -0.231631
C105  C     C_R   0.113029 0.826252 0.051871 -0.221886
C106  C     C_R   0.879174 0.174293 0.956096 -0.220642
C107  C     C_R   0.890006 0.820381 0.945598 -0.227538
C108  C     C_R   0.164870 0.091805 0.987541 -0.227635
C109  C     C_R   0.635585 0.298386 0.103906 -0.034676
C110  C     C_R   0.302016 0.602004 0.973747 -0.041015
C111  C     C_R   0.362252 0.304514 0.896991 -0.013479
C112  C     C_R   0.697259 0.600573 0.028956 -0.059394
C113  C     C_R   0.142375 0.816227 0.098233 -0.016046
C114  C     C_R   0.849552 0.189191 0.910966 -0.022343
C115  C     C_R   0.863448 0.801856 0.896376 -0.048043
C116  C     C_R   0.198196 0.101372 0.027358 -0.039028
C117  C     C_R   0.741549 0.189236 0.793840 -0.185949
C118  C     C_R   0.260674 0.805795 0.197992 -0.184679
C119  C     C_R   0.260505 0.187357 0.202537 -0.190589
C120  C     C_R   0.745625 0.798002 0.796614 -0.173646
C121  C     C_R   0.240775 0.687818 0.796895 -0.188828
C122  C     C_R   0.719883 0.210552 0.244240 -0.170393
C123  C     C_R   0.760839 0.686570 0.202791 -0.186780
C124  C     C_R   0.244343 0.299917 0.797319 -0.179874
C125  C     C_R   0.771246 0.174343 0.838102 -0.167746
C126  C     C_R   0.230675 0.820388 0.153669 -0.146521
C127  C     C_R   0.235855 0.164427 0.152428 -0.158141
C128  C     C_R   0.778279 0.808732 0.836860 -0.157915
C129  C     C_R   0.265369 0.665216 0.847367 -0.157171
C130  C     C_R   0.689260 0.223752 0.200998 -0.153476
C131  C     C_R   0.736081 0.663551 0.152909 -0.158946
C132  C     C_R   0.276802 0.311252 0.837834 -0.159827
C133  C     C_R   0.079598 0.091293 0.928729 0.909209
C134  C     C_R   0.927558 0.897559 0.063923 0.898644
C135  C     C_R   0.927845 0.102950 0.063565 0.913577
C136  C     C_R   0.072343 0.897474 0.936091 0.879002
C137  C     C_R   0.579622 0.591204 0.928721 0.931653
C138  C     C_R   0.427478 0.397699 0.063983 0.876837
C139  C     C_R   0.420188 0.590682 0.071654 0.931380
C140  C     C_R   0.571260 0.396173 0.937181 0.881844
C141  C     C_R   0.539303 0.131877 0.526405 0.106086
C142  C     C_R   0.461606 0.868348 0.470125 0.104642
C143  C     C_R   0.462591 0.131312 0.465243 0.112215
C144  C     C_R   0.538286 0.868929 0.531331 0.105135
C145  C     C_R   0.068890 0.618384 0.444571 0.090515
C146  C     C_R   0.930286 0.379518 0.558381 0.093577
C147  C     C_R   0.974143 0.621497 0.428948 0.100785
C148  C     C_R   0.025120 0.376940 0.574273 0.101942
C149  C     C_R   0.519771 0.197444 0.510839 -0.200996
C150  C     C_R   0.481252 0.802793 0.485425 -0.196727
C151  C     C_R   0.482825 0.197121 0.477922 -0.186587
C152  C     C_R   0.518192 0.803120 0.518342 -0.195752
C153  C     C_R   0.055973 0.679180 0.409410 -0.159085
C154  C     C_R   0.943629 0.318220 0.592750 -0.132201
C155  C     C_R   0.009140 0.680926 0.400996 -0.187496
C156  C     C_R   0.990548 0.317057 0.601198 -0.182763
C157  C     C_R   0.480910 0.065694 0.482955 0.032276
C158  C     C_R   0.520067 0.934544 0.513451 0.031966
C159  C     C_R   0.520607 0.065947 0.510920 0.035052
C160  C     C_R   0.480381 0.934287 0.485470 0.033021
C161  C     C_R   0.986539 0.560451 0.465949 0.035592
C162  C     C_R   0.012373 0.438065 0.537993 0.030978
C163  C     C_R   0.033760 0.559230 0.474507 0.035635
C164  C     C_R   0.965136 0.439141 0.529353 0.029699
C165  C     C_R   0.952288 0.500256 0.493121 -0.040962
C166  C     C_R   0.046504 0.498400 0.511104 -0.042314
C167  C     C_R   0.460087 0.999866 0.471497 -0.049993
C168  C     C_R   0.540813 0.000359 0.525111 -0.048793
C169  C     C_R   0.872418 0.439231 0.506739 0.043529
C170  C     C_R   0.126528 0.559727 0.496831 0.047170
C171  C     C_R   0.108000 0.435868 0.552686 0.062287
C172  C     C_R   0.891065 0.563258 0.451120 0.066126
C173  C     C_R   0.394045 0.933446 0.445024 0.059265
C174  C     C_R   0.606393 0.066711 0.552835 0.052873
C175  C     C_R   0.606025 0.934294 0.554709 0.057532
C176  C     C_R   0.394404 0.065879 0.443134 0.054780
C177  C     C_R   0.830358 0.437751 0.483197 -0.112889
C178  C     C_R   0.168739 0.561799 0.519889 -0.105623
C179  C     C_R   0.158643 0.435534 0.552015 -0.120004
C180  C     C_R   0.840630 0.563929 0.451105 -0.119688
C181  C     C_R   0.343330 0.934652 0.444596 -0.114081
C182  C     C_R   0.656780 0.065410 0.554460 -0.104399
C183  C     C_R   0.656593 0.935113 0.555404 -0.116230
C184  C     C_R   0.343524 0.065001 0.443588 -0.113361
C185  C     C_R   0.814616 0.499913 0.457091 -0.288044
C186  C     C_R   0.184457 0.499801 0.546416 -0.294354
C187  C     C_R   0.320579 0.999895 0.439871 -0.301556
C188  C     C_R   0.679364 0.000179 0.559655 -0.305734
H1    H     H_    0.000146 0.269205 0.627862 0.147471
H2    H     H_    0.000077 0.728859 0.373616 0.157344
H3    H     H_    0.918292 0.270632 0.611101 0.172840
H4    H     H_    0.081613 0.725850 0.391418 0.181451
H5    H     H_    0.532206 0.751940 0.531127 0.142731
H6    H     H_    0.468813 0.248308 0.465143 0.149165
H7    H     H_    0.466841 0.751379 0.474548 0.142093
H8    H     H_    0.534154 0.248864 0.521762 0.150423
H9    H     H_    0.779496 0.499455 0.446773 0.198154
H10   H     H_    0.219707 0.500427 0.556366 0.194445
H11   H     H_    0.281728 0.000052 0.441232 0.194519
H12   H     H_    0.717968 0.000000 0.559174 0.194355
H13   H     H_    0.080372 0.329970 0.613241 0.164520
H14   H     H_    0.919371 0.668576 0.389244 0.163612
H15   H     H_    0.854431 0.338283 0.583710 0.185873
H16   H     H_    0.145014 0.659411 0.417840 0.184908
H17   H     H_    0.584826 0.819618 0.584102 0.176860
H18   H     H_    0.415354 0.180611 0.413687 0.180823
H19   H     H_    0.414803 0.817915 0.419185 0.177964
H20   H     H_    0.585434 0.182276 0.578528 0.185303
H21   H     H_    0.614427 0.340062 0.777541 0.196183
H22   H     H_    0.388715 0.665040 0.218908 0.190994
H23   H     H_    0.383408 0.342601 0.223752 0.196797
H24   H     H_    0.611808 0.665760 0.781872 0.189734
H25   H     H_    0.114772 0.839748 0.777389 0.197251
H26   H     H_    0.886929 0.164606 0.220998 0.193147
H27   H     H_    0.883305 0.842760 0.223883 0.194032
H28   H     H_    0.111584 0.165857 0.781822 0.191286
H29   H     H_    0.568730 0.339799 0.093054 0.203064
H30   H     H_    0.355367 0.540151 0.004143 0.200985
H31   H     H_    0.430306 0.340647 0.907267 0.193364
H32   H     H_    0.643064 0.540555 0.999722 0.200406
H33   H     H_    0.071417 0.843284 0.091658 0.190888
H34   H     H_    0.922608 0.167741 0.916051 0.188909
H35   H     H_    0.931048 0.839406 0.907327 0.196852
H36   H     H_    0.143844 0.040866 0.998756 0.204546
H37   H     H_    0.751834 0.157577 0.734006 0.174634
H38   H     H_    0.259583 0.845225 0.246318 0.161937
H39   H     H_    0.247512 0.159658 0.265607 0.179532
H40   H     H_    0.747660 0.838077 0.748468 0.163067
H41   H     H_    0.253926 0.659768 0.733766 0.179766
H42   H     H_    0.698101 0.203251 0.316668 0.173305
H43   H     H_    0.747668 0.659202 0.266109 0.182251
H44   H     H_    0.246257 0.339720 0.748966 0.163822
H45   H     H_    0.803579 0.134737 0.807985 0.146458
H46   H     H_    0.208821 0.871165 0.168899 0.170602
H47   H     H_    0.202029 0.128021 0.185470 0.149107
H48   H     H_    0.803830 0.856103 0.817035 0.144122
H49   H     H_    0.299208 0.628256 0.814659 0.147505
H50   H     H_    0.645800 0.224376 0.242609 0.146606
H51   H     H_    0.701861 0.627930 0.186702 0.149871
H52   H     H_    0.302101 0.358861 0.818147 0.167071
O1    O     O_R   0.746490 0.236330 0.638080 -0.649653
O2    O     O_R   0.253510 0.763670 0.361920 -0.639237
O3    O     O_R   0.253510 0.236330 0.361920 -0.638790
O4    O     O_R   0.746490 0.763670 0.638080 -0.627081
O5    O     O_R   0.246490 0.736330 0.638080 -0.639043
O6    O     O_R   0.753510 0.263670 0.361920 -0.623734
O7    O     O_R   0.753510 0.736330 0.361920 -0.639819
O8    O     O_R   0.246490 0.263670 0.638080 -0.627398
O9    O     O_R   0.674170 0.186160 0.516270 -0.657705
O10   O     O_R   0.325830 0.813840 0.483730 -0.638912
O11   O     O_R   0.325830 0.186160 0.483730 -0.632860
O12   O     O_R   0.674170 0.813840 0.516270 -0.637636
O13   O     O_R   0.174170 0.686160 0.516270 -0.636204
O14   O     O_R   0.825830 0.313840 0.483730 -0.636340
O15   O     O_R   0.825830 0.686160 0.483730 -0.623984
O16   O     O_R   0.174170 0.313840 0.516270 -0.627843
O17   O     O_R   0.739960 0.127620 0.525000 -0.634220
O18   O     O_R   0.260040 0.872380 0.475000 -0.626364
O19   O     O_R   0.260040 0.127620 0.475000 -0.626817
O20   O     O_R   0.739960 0.872380 0.525000 -0.627077
O21   O     O_R   0.239960 0.627620 0.525000 -0.634657
O22   O     O_R   0.760040 0.372380 0.475000 -0.619346
O23   O     O_R   0.760040 0.627620 0.475000 -0.625609
O24   O     O_R   0.239960 0.372380 0.525000 -0.627151
O25   O     O_R   0.680700 0.294870 0.629350 -0.627788
O26   O     O_R   0.319300 0.705130 0.370650 -0.628211
O27   O     O_R   0.319300 0.294870 0.370650 -0.621779
O28   O     O_R   0.680700 0.705130 0.629350 -0.622346
O29   O     O_R   0.180700 0.794870 0.629350 -0.609945
O30   O     O_R   0.819300 0.205130 0.370650 -0.618949
O31   O     O_R   0.819300 0.794870 0.370650 -0.623724
O32   O     O_R   0.180700 0.205130 0.629350 -0.621631
O33   O     O_R   0.062020 0.072840 0.007170 -0.620963
O34   O     O_R   0.937980 0.927160 0.992830 -0.616676
O35   O     O_R   0.937980 0.072840 0.992830 -0.609725
O36   O     O_R   0.062020 0.927160 0.007170 -0.627678
O37   O     O_R   0.562020 0.572840 0.007170 -0.619578
O38   O     O_R   0.437980 0.427160 0.992830 -0.630091
O39   O     O_R   0.437980 0.572840 0.992830 -0.615750
O40   O     O_R   0.562020 0.427160 0.007170 -0.633958
O41   O     O_R   0.947860 0.073950 0.109290 -0.607694
O42   O     O_R   0.052140 0.926050 0.890710 -0.621994
O43   O     O_R   0.052140 0.073950 0.890710 -0.621602
O44   O     O_R   0.947860 0.926050 0.109290 -0.618112
O45   O     O_R   0.447860 0.573950 0.109290 -0.616781
O46   O     O_R   0.552140 0.426050 0.890710 -0.621367
O47   O     O_R   0.552140 0.573950 0.890710 -0.612653
O48   O     O_R   0.447860 0.426050 0.109290 -0.623954
Zn1   Zn    Zn3+2 0.792340 0.208750 0.507670 0.947719
Zn2   Zn    Zn3+2 0.207660 0.791250 0.492330 0.965401
Zn3   Zn    Zn3+2 0.207660 0.208750 0.492330 0.956802
Zn4   Zn    Zn3+2 0.792340 0.791250 0.507670 0.966156
Zn5   Zn    Zn3+2 0.292340 0.708750 0.507670 0.941590
Zn6   Zn    Zn3+2 0.707660 0.291250 0.492330 0.965288
Zn7   Zn    Zn3+2 0.707660 0.708750 0.492330 0.948418
Zn8   Zn    Zn3+2 0.292340 0.291250 0.507670 0.960721
Zn9   Zn    Zn3+2 0.505960 0.500000 0.080520 0.980847
Zn10  Zn    Zn3+2 0.494040 0.500000 0.919480 0.996640
Zn11  Zn    Zn3+2 0.005960 0.000000 0.080520 1.004197
Zn12  Zn    Zn3+2 0.994040 1.000000 0.919480 1.008842
C189  C     C_2   0.612720 0.331293 0.195341 0.924898
O49   O     O_2   0.642212 0.363042 0.218174 -0.582462
O50   O     O_R   0.556967 0.328337 0.254158 -0.834130
H53   H     H_    0.546161 0.352961 0.314227 0.338356
C190  C     C_2   0.293028 0.537912 0.929240 0.876319
O51   O     O_2   0.329956 0.494935 0.886998 -0.632360
O52   O     O_R   0.241743 0.525283 0.938361 -0.793643
H54   H     H_    0.240615 0.479697 0.905758 0.336573
C191  C     C_2   0.393151 0.311191 0.796923 0.893854
O53   O     O_2   0.424258 0.361775 0.762386 -0.619756
O54   O     O_R   0.388057 0.258310 0.742100 -0.792132
H55   H     H_    0.411387 0.268604 0.675287 0.343015
C192  C     C_2   0.703992 0.536999 0.076475 0.899491
O55   O     O_2   0.665376 0.497923 0.121607 -0.604621
O56   O     O_R   0.754870 0.520424 0.067304 -0.781913
H56   H     H_    0.754306 0.475499 0.102243 0.360591
C193  C     C_2   0.114971 0.840498 0.194290 0.912987
O57   O     O_2   0.085377 0.893925 0.216943 -0.599107
O58   O     O_R   0.121575 0.802404 0.259433 -0.835401
H57   H     H_    0.105363 0.829781 0.318965 0.326828
C194  C     C_2   0.881368 0.200843 0.812445 0.873313
O59   O     O_2   0.871047 0.252604 0.778213 -0.635127
O60   O     O_R   0.923983 0.153718 0.759285 -0.816299
H58   H     H_    0.941677 0.165908 0.692648 0.326775
C195  C     C_2   0.894617 0.807837 0.796256 0.889170
O61   O     O_2   0.926099 0.857992 0.761336 -0.634872
O62   O     O_R   0.889295 0.754796 0.741836 -0.781899
H59   H     H_    0.912830 0.764584 0.674939 0.346443
C196  C     C_2   0.207872 0.037341 0.070873 0.875226
O63   O     O_2   0.171133 0.995132 0.114166 -0.626674
O64   O     O_R   0.259621 0.024134 0.059858 -0.793537
H60   H     H_    0.261320 0.978959 0.092442 0.332182

loop_
_geom_bond_atom_site_label_1
_geom_bond_atom_site_label_2
_ccdc_geom_bond_type
C128  H48   S    
C154  H3    S    
C85   C182  S    
C6    O30   A    
C196  O64   S    
C9    C169  A    
C34   C42   A    
C181  C187  A    
C189  O49   D    
O9    Zn6   S    
C27   C99   A    
O39   Zn10  S    
C170  C178  A    
C139  O39   A    
C42   C109  A    
C24   C96   A    
C149  H8    S    
C108  H36   S    
O1    Zn1   S    
C137  O47   A    
C62   C70   A    
C147  C155  A    
C88   O12   A    
O45   Zn9   S    
C143  C151  A    
C90   C177  S    
C26   C34   A    
C11   C167  A    
C82   C98   A    
C149  C151  A    
C76   C84   A    
C73   C81   A    
C161  C163  A    
C162  C164  A    
O3    Zn3   S    
O60   H58   S    
C84   C100  A    
C133  O33   A    
C87   O19   A    
C37   C114  A    
C27   C35   A    
C10   C171  A    
C133  O43   A    
C21   C29   A    
O6    Zn6   S    
C81   C121  A    
C23   C31   A    
C24   C32   A    
C65   H25   S    
O50   H53   S    
C146  C154  A    
C92   O24   A    
C63   C71   A    
C36   C44   A    
C89   O21   A    
O36   Zn11  S    
C91   O23   A    
C12   C174  A    
C112  C192  S    
C176  C184  A    
C48   C96   A    
C110  C190  S    
C129  H49   S    
C6    O6    A    
C15   H15   S    
O44   Zn11  S    
C127  H47   S    
C148  C162  A    
C183  C188  A    
C108  C116  A    
O38   Zn10  S    
C91   O15   A    
C78   C94   A    
C9    C165  A    
C23   C95   A    
C135  O35   A    
C49   C97   A    
C21   C42   A    
C22   C41   A    
C51   C107  A    
C194  O59   D    
C24   C43   A    
C64   H24   S    
C185  H9    S    
C16   H16   S    
C82   C122  A    
C161  C165  A    
C17   C175  A    
C18   C176  A    
O20   Zn4   S    
C85   O9    A    
O47   Zn10  S    
C29   C125  A    
C140  O40   A    
C69   C77   A    
C31   C127  A    
C45   C93   A    
C174  C182  A    
O30   Zn1   S    
C71   C79   A    
O17   Zn1   S    
C179  C186  A    
C118  H38   S    
C87   O11   A    
C137  O37   A    
C11   C176  A    
C21   C93   A    
C17   C144  A    
O11   Zn8   S    
C151  H6    S    
C105  C113  A    
C18   C143  A    
C78   C118  A    
C36   C132  A    
C192  O56   S    
C188  H12   S    
C66   C74   A    
C7    O7    A    
C8    C76   S    
C49   C57   A    
C124  C132  A    
C195  O62   S    
C52   C60   A    
C59   C67   A    
C53   C61   A    
C141  C159  A    
C20   C174  A    
C190  O52   S    
C55   C63   A    
C86   C181  S    
C56   C64   A    
C35   C43   A    
C156  H1    S    
C90   O14   A    
C45   C53   A    
O10   Zn5   S    
C138  O38   A    
C22   C94   A    
C171  C179  A    
C169  C177  A    
C191  O54   S    
C50   C98   A    
C121  H41   S    
C104  C112  A    
C3    O3    A    
C145  C163  A    
C146  C164  A    
C14   C147  A    
C52   C100  A    
C134  O44   A    
C16   C145  A    
C178  C186  A    
C25   C38   A    
C54   C139  S    
C46   C94   A    
C27   C40   A    
C10   C166  A    
C57   C65   A    
C91   C180  S    
C62   H22   S    
C182  C188  A    
C89   C178  S    
C2    O2    A    
C60   C68   A    
C25   C97   A    
C39   C116  A    
C67   C75   A    
C136  O42   A    
C121  C129  A    
C22   C30   A    
C20   C141  A    
C63   H23   S    
C15   C146  A    
C58   C135  S    
C68   C76   A    
O24   Zn8   S    
C141  C149  A    
C59   C134  S    
C184  C187  A    
C85   O17   A    
C32   C128  A    
C17   H17   S    
C132  H52   S    
C72   C80   A    
C56   C137  S    
O18   Zn2   S    
C105  H33   S    
C14   H14   S    
C5    C73   S    
C90   O22   A    
C150  H7    S    
C102  H30   S    
C13   C171  A    
C31   C39   A    
O23   Zn7   S    
C140  O46   A    
C117  C125  A    
C4    O4    A    
O16   Zn3   S    
C25   C33   A    
C119  C127  A    
O12   Zn7   S    
C113  C193  S    
O13   Zn2   S    
C157  C167  A    
C30   C126  A    
C158  C168  A    
C164  C165  A    
O21   Zn5   S    
O32   Zn3   S    
O2    Zn2   S    
C40   C115  A    
C101  C109  A    
C177  C185  A    
C103  C111  A    
C193  O58   S    
C86   O18   A    
C162  C166  A    
C79   C119  A    
O48   Zn9   S    
O22   Zn6   S    
C114  C194  S    
C153  C155  A    
C120  H40   S    
C154  C156  A    
C172  C180  A    
C173  C181  A    
O56   H56   S    
C157  C159  A    
C83   C99   A    
C158  C160  A    
O40   Zn9   S    
C74   C82   A    
C6    C74   S    
C189  O50   S    
C109  C189  S    
C47   C103  A    
O42   Zn12  S    
O52   H54   S    
C50   C58   A    
C163  C166  A    
C3    O27   A    
C147  C161  A    
C38   C113  A    
C49   C105  A    
C54   C62   A    
C28   C39   A    
C1    C69   S    
C23   C44   A    
C187  H11   S    
C66   H26   S    
C3    C71   S    
O64   H60   S    
O33   Zn11  S    
C79   C95   A    
C92   C179  S    
O34   Zn12  S    
C46   C54   A    
O8    Zn8   S    
C61   H21   S    
C45   C101  A    
C92   O16   A    
C19   C142  A    
O26   Zn5   S    
C102  C110  A    
C35   C131  A    
O31   Zn4   S    
C4    C72   S    
O35   Zn12  S    
C33   C129  A    
C123  C131  A    
C5    O5    A    
C120  C128  A    
C26   C37   A    
C10   C170  A    
C5    O29   A    
C33   C41   A    
C142  C150  A    
C7    O31   A    
O62   H59   S    
C193  O57   D    
C75   C83   A    
C192  O55   D    
C77   C93   A    
C195  O61   D    
C68   H28   S    
C88   O20   A    
O58   H57   S    
C44   C111  A    
C16   C170  A    
C111  C191  S    
C123  H43   S    
C28   C36   A    
C8    O32   A    
C190  O51   D    
C29   C37   A    
C50   C106  A    
C186  H10   S    
C9    C172  A    
C148  C156  A    
C83   C123  A    
C2    C70   S    
C60   C133  S    
C144  C152  A    
C103  H31   S    
C2    O26   A    
C86   O10   A    
O54   H55   S    
C80   C120  A    
O7    Zn7   S    
C70   C78   A    
C53   C140  S    
C196  O63   D    
C67   H27   S    
C135  O41   A    
O41   Zn11  S    
C139  O45   A    
C19   C173  A    
C119  H39   S    
C191  O53   D    
C46   C102  A    
C117  H37   S    
C55   C138  S    
C152  H5    S    
C106  C114  A    
C155  H2    S    
C77   C117  A    
C48   C104  A    
C138  O48   A    
C65   C73   A    
C159  C168  A    
C15   C169  A    
C160  C167  A    
C104  H32   S    
O43   Zn12  S    
C58   C66   A    
C131  H51   S    
C194  O60   S    
C57   C136  S    
C80   C96   A    
O14   Zn1   S    
C145  C153  A    
C28   C100  A    
C32   C40   A    
C52   C108  A    
C89   O13   A    
C8    O8    A    
C19   H19   S    
C136  O36   A    
C126  H46   S    
O4    Zn4   S    
C143  C157  A    
C107  H35   S    
C51   C99   A    
C122  H42   S    
C11   C173  A    
C14   C172  A    
O5    Zn5   S    
C87   C184  S    
C88   C183  S    
C7    C75   S    
O15   Zn4   S    
O19   Zn3   S    
C124  H44   S    
C107  C115  A    
C1    O1    A    
C26   C98   A    
C12   C175  A    
O37   Zn9   S    
C41   C110  A    
C134  O34   A    
C150  C152  A    
C51   C59   A    
C43   C112  A    
C20   H20   S    
C144  C158  A    
C47   C55   A    
C61   C69   A    
C48   C56   A    
C130  H50   S    
C175  C183  A    
C4    O28   A    
C142  C160  A    
C12   C168  A    
C84   C124  A    
C13   C148  A    
C18   H18   S    
O28   Zn7   S    
C116  C196  S    
O29   Zn2   S    
C115  C195  S    
C106  H34   S    
C81   C97   A    
O25   Zn6   S    
C13   H13   S    
C64   C72   A    
O27   Zn8   S    
C125  H45   S    
C180  C185  A    
C101  H29   S    
C1    O25   A    
C34   C130  A    
C47   C95   A    
O46   Zn10  S    
C118  C126  A    
C30   C38   A    
C122  C130  A    
C153  H4    S    
