data_mof_unit_3855.cif
_audit_creation_date              2013-03-05T16:06:55-0500
_audit_creation_method            fapswitch 2.2
_symmetry_space_group_name_H-M    P1
_symmetry_Int_Tables_number       1
_space_group_crystal_system       triclinic
_cell_length_a                    10.83344
_cell_length_b                    9.672526
_cell_length_c                    10.791078
_cell_angle_alpha                 89.677962
_cell_angle_beta                  94.351063
_cell_angle_gamma                 89.498254
_cell_volume                      1127.43719534

loop_
_atom_site_label
_atom_site_type_symbol
_atom_site_description
_atom_site_fract_x
_atom_site_fract_y
_atom_site_fract_z
_atom_type_partial_charge
O1    O     O_R   0.319640 0.618740 0.499990 -0.555336
O2    O     O_R   0.680360 0.618740 0.500010 -0.548582
O3    O     O_R   0.319620 0.381170 0.499990 -0.572040
O4    O     O_R   0.680380 0.381170 0.500010 -0.572856
C1    C     C_R   0.262972 0.500800 0.508091 0.791963
C2    C     C_R   0.736599 0.499607 0.490430 0.803886
O5    O     O_R   0.499990 0.618810 0.319660 -0.536763
O6    O     O_R   0.500010 0.618810 0.680340 -0.540548
O7    O     O_R   0.499960 0.381240 0.319650 -0.576426
O8    O     O_R   0.500040 0.381240 0.680350 -0.571264
C3    C     C_R   0.504761 0.500465 0.262504 0.861192
C4    C     C_R   0.487706 0.499740 0.735974 0.844539
Cu1   Cu    Cu3+1 0.500000 0.640660 0.500000 1.077299
Cu2   Cu    Cu3+1 0.500000 0.359340 0.500000 1.019176
C5    C     C_R   0.453274 0.618055 0.061695 -0.020702
C6    C     C_R   0.440712 0.617819 0.933496 -0.040604
C7    C     C_R   0.500365 0.501139 0.127110 -0.177563
C8    C     C_R   0.461565 0.497515 0.867058 -0.214463
C9    C     C_R   0.516193 0.377207 0.059741 0.212771
C10   C     C_R   0.465913 0.372463 0.935318 0.219440
C11   C     C_3   0.475983 0.765526 0.921306 0.112732
C12   C     C_3   0.493288 0.766965 0.063090 0.158794
H1    H     H_    0.561645 0.782103 0.874132 0.191185
H2    H     H_    0.429211 0.837849 0.107785 0.182306
C13   C     C_R   0.065305 0.376604 0.512682 -0.183913
C14   C     C_R   0.937318 0.375335 0.500677 -0.178713
H3    H     H_    0.114362 0.279147 0.525122 0.194217
H4    H     H_    0.891153 0.277211 0.503487 0.185388
C15   C     C_R   0.870608 0.498903 0.480415 -0.076850
C16   C     C_R   0.128367 0.502491 0.514507 -0.086084
C17   C     C_R   0.935431 0.622422 0.462921 0.122021
C18   C     C_R   0.059838 0.627724 0.508674 0.137099
C19   C     C_R   0.423558 0.072650 0.415896 0.133618
C20   C     C_R   0.577026 0.070103 0.583530 0.141566
C21   C     C_R   0.410388 0.927309 0.432284 0.368395
C22   C     C_R   0.590425 0.924848 0.566677 0.370300
N1    N     N_R   0.500000 0.852070 0.500000 -0.278638
N2    N     N_R   0.500000 0.147940 0.500000 -0.195216
N3    N     N_R   0.602816 0.270717 0.105659 0.129151
O9    O     O_R   0.617298 0.159175 0.041252 -0.306961
O10   O     O_R   0.687489 0.298540 0.193873 -0.341473
N4    N     N_R   0.393307 0.255090 0.892409 0.136289
O11   O     O_R   0.379099 0.151127 0.966875 -0.300600
O12   O     O_R   0.317624 0.265833 0.793120 -0.333323
N5    N     N_R   0.371348 0.850458 0.870947 0.152978
O13   O     O_R   0.267439 0.852720 0.924148 -0.337186
O14   O     O_R   0.380344 0.920993 0.769173 -0.351311
N6    N     N_R   0.622564 0.784728 0.109336 0.121538
O15   O     O_R   0.709909 0.708079 0.068371 -0.375138
O16   O     O_R   0.651284 0.882337 0.188470 -0.338810
C23   C     C_3   0.885719 0.733271 0.371354 -0.349560
C24   C     C_3   0.953252 0.726863 0.252094 -0.638935
H5    H     H_    0.054510 0.738096 0.272165 0.285380
H6    H     H_    0.935220 0.626379 0.204931 0.258222
H7    H     H_    0.919924 0.812005 0.188343 0.295243
H8    H     H_    0.786350 0.719768 0.343085 0.259337
H9    H     H_    0.896623 0.837968 0.411138 0.253456
C25   C     C_3   0.097025 0.748505 0.592730 -0.336709
C26   C     C_3   0.056690 0.722706 0.723414 -0.657478
H10   H     H_    0.957174 0.695166 0.720182 0.278712
H11   H     H_    0.112745 0.637448 0.769296 0.243868
H12   H     H_    0.069819 0.817987 0.779393 0.297456
H13   H     H_    0.197355 0.768674 0.600771 0.262637
H14   H     H_    0.052302 0.845712 0.557055 0.253876
C27   C     C_3   0.373419 0.126988 0.288447 -0.259833
C28   C     C_3   0.253994 0.212367 0.284545 -0.640945
H15   H     H_    0.198228 0.183758 0.362162 0.260154
H16   H     H_    0.273317 0.324416 0.284768 0.228967
H17   H     H_    0.197331 0.192052 0.196440 0.249302
H18   H     H_    0.446162 0.176272 0.239777 0.242258
H19   H     H_    0.353241 0.038768 0.224850 0.215841
C29   C     C_3   0.624219 0.120304 0.712341 -0.243841
C30   C     C_3   0.744292 0.201936 0.720704 -0.675868
H20   H     H_    0.806699 0.164936 0.651581 0.260824
H21   H     H_    0.726470 0.314163 0.710808 0.242097
H22   H     H_    0.792835 0.186725 0.814302 0.254620
H23   H     H_    0.550747 0.171889 0.758409 0.253549
H24   H     H_    0.641511 0.030009 0.775746 0.218881
N7    N     N_R   0.301338 0.862352 0.376576 0.116409
O17   O     O_R   0.194225 0.919844 0.389579 -0.431115
O18   O     O_R   0.309272 0.772566 0.288625 -0.381716
N8    N     N_R   0.700574 0.857502 0.620707 0.125620
O19   O     O_R   0.807534 0.911236 0.603752 -0.431250
O20   O     O_R   0.694981 0.765760 0.708147 -0.365936

loop_
_geom_bond_atom_site_label_1
_geom_bond_atom_site_label_2
_geom_bond_distance
_ccdc_geom_bond_type
C28   H16   1.105604 S    
C6    C11   1.489825 S    
C30   H20   1.103099 S    
C12   N6    1.462569 S    
C9    C10   1.411273 A    
C18   C25   1.521370 S    
C19   C27   1.528494 S    
N3    O10   1.301819 A    
N5    O13   1.301931 A    
O5    C3    1.305810 A    
O6    Cu1   1.956316 S    
O1    C1    1.305825 A    
C22   N1    1.372484 A    
C21   N1    1.371154 A    
C28   H17   1.111313 S    
C27   H18   1.091183 S    
C13   C16   1.400931 A    
C23   H8    1.105474 S    
O2    Cu1   1.963533 S    
C29   H24   1.112202 S    
C7    C9    1.421265 A    
C5    C12   1.507610 S    
C22   N8    1.436925 S    
C23   H9    1.105918 S    
C8    C10   1.411239 A    
C24   H7    1.110210 S    
N6    O16   1.300497 A    
C28   H15   1.104615 S    
C26   H10   1.110809 S    
Cu1   Cu2   2.721075 S    
C30   H21   1.104046 S    
O2    C2    1.307025 A    
N4    O12   1.301910 A    
O8    C4    1.307333 A    
C24   H6    1.111586 S    
C11   N5    1.462990 S    
N5    O14   1.300038 A    
C25   H14   1.107540 S    
C26   H11   1.111299 S    
C23   C24   1.529151 S    
O4    C2    1.309368 A    
O8    Cu2   1.958815 S    
N3    O9    1.301422 A    
N7    O18   1.297187 A    
C25   C26   1.527551 S    
C27   H19   1.110851 S    
O7    Cu2   1.956449 S    
C29   H23   1.088802 S    
Cu2   N2    2.044772 S    
C17   C18   1.401206 A    
O6    C4    1.308311 A    
O7    C3    1.307977 A    
O3    Cu2   1.963663 S    
C9    N3    1.447033 S    
N6    O15   1.302039 A    
N8    O19   1.299212 A    
N8    O20   1.296773 A    
C11   H1    1.104279 S    
C30   H22   1.111182 S    
C12   H2    1.109398 S    
O1    Cu1   1.967226 S    
N4    O11   1.301163 A    
C20   C29   1.527548 S    
C24   H5    1.108320 S    
C1    C16   1.465062 S    
C25   H13   1.102975 S    
C5    C7    1.401329 A    
C3    C7    1.458178 S    
C26   H12   1.109062 S    
C20   N2    1.393869 A    
Cu1   N1    2.044869 S    
C17   C23   1.520924 S    
C29   C30   1.524682 S    
O3    C1    1.311508 A    
C10   N4    1.445084 S    
C13   H3    1.080755 S    
C14   H4    1.078032 S    
C19   N2    1.394188 A    
C13   C14   1.382923 A    
C15   C17   1.410137 A    
C16   C18   1.413765 A    
C21   N7    1.435719 S    
C19   C21   1.425660 A    
C20   C22   1.425286 A    
O4    Cu2   1.967339 S    
N7    O17   1.299904 A    
O5    Cu1   1.958678 S    
C2    C15   1.463902 S    
C14   C15   1.398784 A    
C6    C8    1.395868 A    
C27   C28   1.526520 S    
C4    C8    1.463601 S    
C11   C12   1.527426 S    
C5    C6    1.379777 A    
