data_mof_unit_4484.cif
_audit_creation_date              2012-10-26T19:53:28-0400
_audit_creation_method            fapswitch 2.2
_symmetry_space_group_name_H-M    P1
_symmetry_Int_Tables_number       1
_space_group_crystal_system       triclinic
_cell_length_a                    9.062339
_cell_length_b                    7.89268
_cell_length_c                    10.679237
_cell_angle_alpha                 88.94999
_cell_angle_beta                  90.103471
_cell_angle_gamma                 90.054666
_cell_volume                      763.714786457

loop_
_atom_site_label
_atom_site_type_symbol
_atom_type_description
_atom_site_fract_x
_atom_site_fract_y
_atom_site_fract_z
_atom_type_partial_charge
C1    C     C_R   0.220496 0.499951 0.499869 0.560811
C2    C     C_3   0.627145 0.554210 0.047511 -0.179777
C3    C     C_3   0.510737 0.498697 0.877232 -0.072321
C4    C     C_3   0.489596 0.500878 0.122708 -0.062198
C5    C     C_1   0.065535 0.499923 0.499888 0.036229
C6    C     C_1   0.934470 0.500058 0.499971 0.039187
C7    C     C_R   0.779506 0.500045 0.500049 0.564127
C8    C     C_R   0.493545 0.500948 0.259342 0.584626
C9    C     C_R   0.506501 0.498990 0.740633 0.585297
C10   C     C_3   0.390134 0.603468 0.033954 0.229869
C11   C     C_3   0.610485 0.396052 0.965771 0.231467
C12   C     C_3   0.527450 0.656752 0.956585 0.186569
C13   C     C_3   0.473201 0.342648 0.043409 0.218588
C14   C     C_3   0.373289 0.445064 0.952481 -0.154364
Cu1   Cu    Cu3+1 0.500000 0.669080 0.500000 1.192667
Cu2   Cu    Cu3+1 0.500000 0.330920 0.500000 1.169545
H1    H     H_    0.268983 0.399253 0.909820 0.197569
H2    H     H_    0.731676 0.597988 0.090819 0.171690
H3    H     H_    0.046346 0.841705 0.991968 0.372608
H4    H     H_    0.966628 0.182341 0.005202 0.389405
H5    H     H_    0.764576 0.895848 0.043201 0.344945
H6    H     H_    0.250452 0.142709 0.270579 0.376757
N1    N     N_1   0.500000 0.076820 0.500000 -0.039099
N2    N     N_1   0.500000 0.923180 0.500000 -0.029889
O1    O     O_R   0.288390 0.642760 0.500000 -0.491255
O2    O     O_2   0.247052 0.815944 0.187962 -0.226183
O3    O     O_3   0.141974 0.800384 0.959793 -0.440834
O4    O     O_2   0.754676 0.179676 0.814847 -0.179589
O5    O     O_2   0.875980 0.446768 0.862722 -0.264915
O6    O     O_3   0.869145 0.216312 0.038202 -0.462940
O7    O     O_2   0.736817 0.799127 0.812468 -0.241137
O8    O     O_2   0.500760 0.947292 0.819100 -0.169066
O9    O     O_3   0.674769 0.956804 0.014802 -0.402255
O10   O     O_2   0.337566 0.050637 0.999606 -0.155517
O11   O     O_2   0.497402 0.056545 0.186502 -0.216883
O12   O     O_R   0.711610 0.357240 0.500000 -0.487304
O13   O     O_3   0.243473 0.210600 0.191894 -0.485417
O14   O     O_R   0.711610 0.642760 0.500000 -0.494171
O15   O     O_R   0.288390 0.357240 0.500000 -0.518007
O16   O     O_R   0.499960 0.642760 0.316850 -0.477128
O17   O     O_R   0.500040 0.357240 0.683150 -0.471721
O18   O     O_R   0.500040 0.642760 0.683150 -0.454291
O19   O     O_R   0.499960 0.357240 0.316850 -0.474671
O20   O     O_2   0.118086 0.559144 0.126172 -0.256136
S1    S     S_3+6 0.220573 0.697528 0.081942 0.093826
S2    S     S_3+6 0.781041 0.306482 0.915403 0.098639
S3    S     S_3+6 0.609442 0.845200 0.895206 0.133846
S4    S     S_3+6 0.390683 0.155208 0.105806 0.128801

loop_
_geom_bond_atom_site_label_1
_geom_bond_atom_site_label_2
_ccdc_geom_bond_type
C13   S4    S    
C2    C4    S    
N1    N2    T    
Cu1   O14   S    
C6    C7    S    
C3    C9    S    
C2    H2    S    
H3    O3    S    
C7    O12   A    
O10   S4    D    
C9    O17   A    
Cu2   O19   S    
C8    O19   A    
O5    S2    D    
C4    C8    S    
C2    C12   S    
O3    S1    S    
C10   S1    S    
H4    O6    S    
C13   C14   S    
Cu2   O12   S    
O13   S4    S    
C1    O1    A    
C11   C13   S    
C14   H1    S    
O4    S2    D    
C9    O18   A    
C3    C14   S    
C10   C12   S    
C12   S3    S    
C1    C5    S    
O11   S4    D    
Cu1   N2    S    
C7    O14   A    
Cu2   N1    S    
C5    C6    T    
O9    S3    S    
O8    S3    D    
Cu1   O16   S    
Cu1   O1    S    
H5    O9    S    
C2    C11   S    
Cu2   O15   S    
C4    C10   S    
Cu1   Cu2   S    
C3    C11   S    
O20   S1    D    
C10   C14   S    
C4    C13   S    
C1    O15   A    
C11   S2    S    
O7    S3    D    
C3    C12   S    
C8    O16   A    
O2    S1    D    
H6    O13   S    
Cu2   O17   S    
O6    S2    S    
Cu1   O18   S    
