data_mof_unit_1006.cif
_audit_creation_date              2012-12-10T18:32:50-0500
_audit_creation_method            fapswitch 2.2
_symmetry_space_group_name_H-M    P1
_symmetry_Int_Tables_number       1
_space_group_crystal_system       triclinic
_cell_length_a                    15.037412
_cell_length_b                    15.543236
_cell_length_c                    15.735738
_cell_angle_alpha                 90.064485
_cell_angle_beta                  105.081078
_cell_angle_gamma                 81.776378
_cell_volume                      3512.21860776

loop_
_atom_site_label
_atom_site_type_symbol
_atom_type_description
_atom_site_fract_x
_atom_site_fract_y
_atom_site_fract_z
_atom_type_partial_charge
C1    C     C_R   0.441439 0.661742 0.487986 0.927812
C2    C     C_R   0.594828 0.245245 0.520915 -0.192227
C3    C     C_R   0.306884 0.864055 0.547353 0.234724
C4    C     C_R   0.501318 0.500545 0.661612 0.872142
C5    C     C_R   0.330089 0.777554 0.527315 -0.371424
C6    C     C_R   0.457266 0.814813 0.475104 0.538228
C7    C     C_R   0.447618 0.897718 0.509941 -0.122550
C8    C     C_R   0.367114 0.925348 0.541051 -0.002655
C9    C     C_R   0.516602 0.952783 0.515766 0.099435
C10   C     C_R   0.497073 0.040341 0.537307 0.058069
C11   C     C_R   0.416261 0.067403 0.565592 -0.311377
C12   C     C_3   0.394508 0.513477 0.020855 -0.433296
C13   C     C_R   0.351729 0.011969 0.567296 0.228651
C14   C     C_R   0.606978 0.922000 0.506417 -0.135967
C15   C     C_R   0.672428 0.977414 0.510326 -0.231844
C16   C     C_R   0.558603 0.338043 0.512394 0.910153
C17   C     C_R   0.648857 0.065944 0.519622 0.082892
C18   C     C_R   0.560096 0.098246 0.531256 0.116641
C19   C     C_R   0.711936 0.123006 0.515052 -0.289008
C20   C     C_R   0.685271 0.212591 0.515880 0.643234
C21   C     C_R   0.534333 0.188131 0.530336 -0.358455
C22   C     C_R   0.848790 0.622806 0.643557 -0.377212
C23   C     C_3   0.494882 0.505747 0.081393 0.144868
C24   C     C_R   0.758083 0.604027 0.618734 0.276736
C25   C     C_R   0.792551 0.514826 0.505044 0.670096
C26   C     C_R   0.887885 0.525306 0.532979 -0.136988
C27   C     C_R   0.913302 0.585045 0.599921 0.078661
C28   C     C_R   0.498459 0.499899 0.338259 0.915490
C29   C     C_R   0.958421 0.479645 0.497618 0.098623
C30   C     C_R   0.049054 0.505162 0.519147 0.088417
C31   C     C_R   0.069340 0.568672 0.582732 -0.235007
C32   C     C_R   0.003254 0.605854 0.624014 -0.151937
C33   C     C_R   0.943332 0.406055 0.446133 -0.140549
C34   C     C_3   0.554697 0.422270 0.061978 0.436300
C35   C     C_R   0.010762 0.364789 0.408606 -0.234020
C36   C     C_R   0.096281 0.394138 0.422390 0.144278
C37   C     C_R   0.117220 0.464095 0.478366 -0.005111
C38   C     C_R   0.161841 0.352714 0.381676 -0.369400
C39   C     C_R   0.247871 0.381216 0.395636 0.362766
C40   C     C_3   0.396937 0.511615 0.922841 0.044713
C41   C     C_R   0.206245 0.489249 0.491141 -0.112811
C42   C     C_3   0.540864 0.591882 0.964805 0.065475
C43   C     C_3   0.538801 0.585746 0.063161 -0.591759
C44   C     C_1   0.494545 0.501109 0.248311 -0.139755
C45   C     C_3   0.557765 0.425166 0.964268 -0.138916
C46   C     C_3   0.499291 0.511767 0.916850 0.139606
C47   C     C_3   0.201092 0.100935 0.531106 -0.744370
C48   C     C_3   0.139521 0.884912 0.519495 -0.740489
C49   C     C_3   0.239111 0.564750 0.830367 -0.827917
C50   C     C_3   0.294321 0.360849 0.260904 -0.732222
C51   C     C_3   0.663439 0.725819 0.662860 -0.777158
C52   C     C_3   0.505012 0.702157 0.840593 -0.792624
C53   C     C_3   0.699876 0.325850 0.960789 -0.740988
C54   C     C_1   0.493258 0.503038 0.172609 0.011239
C55   C     C_1   0.502017 0.508964 0.825819 0.010913
C56   C     C_1   0.502897 0.504759 0.750780 -0.177656
C57   C     C_R   0.405744 0.753135 0.492493 -0.178227
F1    F     F_    0.745935 0.266674 0.507117 -0.649411
F2    F     F_    0.514102 0.793077 0.421509 -0.684278
F3    F     F_    0.757792 0.470819 0.432648 -0.648659
F4    F     F_    0.517949 0.349146 0.079016 -0.670797
H1    H     H_    0.352615 0.574483 0.034341 0.178066
H2    H     H_    0.780621 0.098408 0.507747 0.165717
H3    H     H_    0.022546 0.652119 0.674731 0.135841
H4    H     H_    0.228640 0.541613 0.532178 0.139510
H5    H     H_    0.995970 0.308934 0.368852 0.158073
H6    H     H_    0.869198 0.664844 0.698063 0.165211
H7    H     H_    0.614975 0.587752 0.963710 0.134269
H8    H     H_    0.136978 0.588691 0.605034 0.134866
H9    H     H_    0.881853 0.375573 0.437294 0.245692
H10   H     H_    0.146456 0.298855 0.339125 0.152932
H11   H     H_    0.498786 0.645293 0.082016 0.209538
H12   H     H_    0.375648 0.448754 0.896671 0.148603
H13   H     H_    0.611182 0.580997 0.106056 0.174801
H14   H     H_    0.523985 0.370229 0.930901 0.196378
H15   H     H_    0.287635 0.073176 0.656351 0.221127
H16   H     H_    0.137470 0.116337 0.554847 0.244254
H17   H     H_    0.182567 0.068048 0.467551 0.245227
H18   H     H_    0.226421 0.162766 0.520327 0.223263
H19   H     H_    0.234516 0.850822 0.639614 0.218109
H20   H     H_    0.082979 0.912047 0.549631 0.235715
H21   H     H_    0.130151 0.817255 0.500457 0.225086
H22   H     H_    0.133956 0.925315 0.459648 0.247818
H23   H     H_    0.359952 0.458759 0.035832 0.203667
H24   H     H_    0.332526 0.642806 0.898748 0.266793
H25   H     H_    0.197404 0.622360 0.789919 0.236367
H26   H     H_    0.204773 0.549866 0.882042 0.244079
H27   H     H_    0.241461 0.508999 0.786354 0.253931
H28   H     H_    0.329917 0.273739 0.367521 0.210738
H29   H     H_    0.232456 0.332064 0.224482 0.213143
H30   H     H_    0.354799 0.333918 0.235952 0.256548
H31   H     H_    0.280754 0.432470 0.248222 0.250350
H32   H     H_    0.719726 0.610989 0.734581 0.213092
H33   H     H_    0.721756 0.762318 0.692093 0.219051
H34   H     H_    0.626232 0.417252 0.106691 0.107270
H35   H     H_    0.608495 0.741125 0.698221 0.228940
H36   H     H_    0.633106 0.746717 0.593068 0.268024
H37   H     H_    0.501636 0.726907 0.967996 0.236022
H38   H     H_    0.492400 0.774225 0.831893 0.227189
H39   H     H_    0.453051 0.677229 0.786363 0.259953
H40   H     H_    0.576825 0.678689 0.835777 0.235839
H41   H     H_    0.695306 0.455085 0.995179 0.215543
H42   H     H_    0.770353 0.325575 0.950824 0.234466
H43   H     H_    0.660023 0.288388 0.907708 0.246902
H44   H     H_    0.706990 0.294101 0.025918 0.254718
H45   H     H_    0.464621 0.215331 0.531291 0.184966
H46   H     H_    0.740710 0.951158 0.503011 0.153409
H47   H     H_    0.290041 0.729056 0.541024 0.182305
H48   H     H_    0.402916 0.131096 0.590958 0.150723
H49   H     H_    0.631191 0.854619 0.499522 0.206962
N1    N     N_R   0.731690 0.552720 0.548990 -0.152448
N2    N     N_R   0.268300 0.447240 0.450950 -0.112566
N3    N     N_2   0.271565 0.044991 0.595921 -0.276363
N4    N     N_2   0.228721 0.885950 0.582354 -0.272504
N5    N     N_2   0.332260 0.582997 0.870465 -0.272815
N6    N     N_2   0.315050 0.339994 0.354255 -0.258117
N7    N     N_2   0.695334 0.633297 0.669785 -0.245400
N8    N     N_2   0.492683 0.676743 0.925005 -0.290887
N9    N     N_2   0.653655 0.414581 0.957218 -0.317901
O1    O     O_R   0.383120 0.605620 0.475300 -0.635084
O2    O     O_R   0.531890 0.639510 0.506740 -0.565397
O3    O     O_R   0.425580 0.483050 0.607130 -0.622133
O4    O     O_R   0.574360 0.516930 0.638570 -0.606939
O5    O     O_R   0.468110 0.360490 0.493260 -0.621047
O6    O     O_R   0.616880 0.394380 0.524700 -0.536562
O7    O     O_R   0.425640 0.483070 0.361430 -0.608767
O8    O     O_R   0.574420 0.516950 0.392870 -0.531589
Zn1   Zn    Zn3+2 0.400660 0.477370 0.479010 0.951710
Zn2   Zn    Zn3+2 0.599340 0.522630 0.520990 1.060628

loop_
_geom_bond_atom_site_label_1
_geom_bond_atom_site_label_2
_ccdc_geom_bond_type
C51   H36   S    
C55   C56   T    
C43   H11   S    
C11   H48   S    
C18   C21   A    
C49   H26   S    
C19   C20   A    
C6    C57   A    
C47   H18   S    
C7    C8    A    
C45   C46   S    
C48   H20   S    
C40   C46   S    
C12   C23   S    
C24   N7    S    
C8    C13   A    
C36   C37   A    
C10   C18   A    
C30   C31   A    
C40   N5    S    
C53   H43   S    
C29   C33   A    
C4    C56   S    
C23   C43   S    
C40   H12   S    
C12   H23   S    
C47   N3    S    
C42   C46   S    
C15   H46   S    
C51   N7    S    
N1    Zn2   S    
C35   C36   A    
C19   H2    S    
C41   N2    A    
C46   C55   S    
C25   F3    S    
C2    C16   S    
C9    C10   A    
C21   H45   S    
C28   O8    A    
C51   H35   S    
O5    Zn1   S    
C45   N9    S    
C43   H13   S    
H28   N6    S    
O4    Zn2   S    
C42   H7    S    
C49   H27   S    
C24   N1    A    
H32   N7    S    
C6    F2    S    
C50   H29   S    
H37   N8    S    
C52   H40   S    
C2    C20   A    
H24   N5    S    
C34   H34   S    
C32   H3    S    
C3    C8    A    
C42   N8    S    
C41   H4    S    
C35   H5    S    
C25   C26   A    
C28   C44   S    
C34   F4    S    
C30   C37   A    
C1    O1    A    
C12   C40   S    
C9    C14   A    
O8    Zn2   S    
C29   C30   A    
C1    C57   S    
C12   H1    S    
C31   C32   A    
C48   H21   S    
C23   C34   S    
C2    C21   A    
O1    Zn1   S    
C17   C18   A    
C26   C27   A    
C4    O3    A    
C34   C45   S    
C33   H9    S    
C44   C54   T    
C50   H31   S    
C39   N2    A    
C49   N5    S    
H19   N4    S    
C22   C27   A    
O6    Zn2   S    
C22   C24   A    
C42   C43   S    
C47   H16   S    
C20   F1    S    
C23   C54   S    
C48   N4    S    
C16   O6    A    
C7    C9    A    
C38   H10   S    
O7    Zn1   S    
C27   C32   A    
C49   H25   S    
O2    Zn2   S    
C3    C5    A    
C3    N4    S    
C53   N9    S    
O3    Zn1   S    
C15   C17   A    
C6    C7    A    
C28   O7    A    
C52   H38   S    
C48   H22   S    
C5    C57   A    
C45   H14   S    
H15   N3    S    
C16   O5    A    
C11   C13   A    
C38   C39   A    
C53   H42   S    
C14   H49   S    
C36   C38   A    
C33   C35   A    
C52   H39   S    
C50   N6    S    
C37   C41   A    
C1    O2    A    
C22   H6    S    
N2    Zn1   S    
C10   C11   A    
C25   N1    A    
C51   H33   S    
C17   C19   A    
C53   H44   S    
C50   H30   S    
C31   H8    S    
C4    O4    A    
C26   C29   A    
C39   N6    S    
C14   C15   A    
C47   H17   S    
C13   N3    S    
H41   N9    S    
C5    H47   S    
C52   N8    S    
