data_mof_unit_4147.cif
_audit_creation_date              2012-12-10T18:23:53-0500
_audit_creation_method            fapswitch 2.2
_symmetry_space_group_name_H-M    P1
_symmetry_Int_Tables_number       1
_space_group_crystal_system       triclinic
_cell_length_a                    15.738998
_cell_length_b                    14.757457
_cell_length_c                    14.1172
_cell_angle_alpha                 90.968961
_cell_angle_beta                  89.745692
_cell_angle_gamma                 88.392041
_cell_volume                      3277.16850524

loop_
_atom_site_label
_atom_site_type_symbol
_atom_type_description
_atom_site_fract_x
_atom_site_fract_y
_atom_site_fract_z
_atom_type_partial_charge
C1    C     C_R   0.503514 0.326293 0.499784 0.872555
C2    C     C_R   0.496391 0.673497 0.501358 0.869308
C3    C     C_R   0.487984 0.770339 0.509189 -0.098019
C4    C     C_R   0.504117 0.229044 0.502642 -0.071915
C5    C     C_R   0.555384 0.811598 0.554270 -0.187361
C6    C     C_R   0.427473 0.188544 0.483162 -0.214518
C7    C     C_R   0.551563 0.903258 0.575848 0.031786
C8    C     C_R   0.416703 0.097899 0.503103 0.026257
C9    C     C_R   0.479681 0.954103 0.548126 -0.041358
C10   C     C_R   0.484853 0.048191 0.543772 -0.041649
C11   C     C_R   0.404062 0.910819 0.520915 0.036215
C12   C     C_R   0.560129 0.090901 0.573976 0.019345
C13   C     C_R   0.616624 0.944973 0.626804 0.352584
C14   C     C_R   0.337773 0.056762 0.489503 0.337072
C15   C     C_R   0.618211 0.040445 0.632108 -0.005917
C16   C     C_R   0.329033 0.965993 0.515546 -0.003508
C17   C     C_R   0.447309 0.559368 0.799483 0.479697
C18   C     C_R   0.552219 0.440664 0.199455 0.484224
C19   C     C_R   0.553513 0.442120 0.796334 -0.139057
C20   C     C_R   0.450516 0.562295 0.203470 -0.136871
C21   C     C_R   0.556504 0.441334 0.896847 -0.000519
C22   C     C_R   0.448965 0.565085 0.102534 0.005347
C23   C     C_R   0.337981 0.500396 0.500135 0.892503
C24   C     C_R   0.662015 0.500105 0.499973 0.881713
C25   C     C_R   0.501186 0.501080 0.949045 0.020136
C26   C     C_R   0.500831 0.501775 0.050196 0.021245
C27   C     C_R   0.447397 0.561572 0.899952 -0.074290
C28   C     C_R   0.554213 0.440607 0.098914 -0.077609
C29   C     C_R   0.613778 0.383961 0.946660 0.160928
C30   C     C_R   0.398815 0.629381 0.051629 0.103722
C31   C     C_R   0.610122 0.382578 0.046240 -0.184667
C32   C     C_R   0.397201 0.624865 0.952068 -0.170531
C33   C     C_3   0.974769 0.453514 0.577870 0.023556
C34   C     C_3   0.025332 0.543013 0.425603 0.032150
C35   C     C_3   0.032219 0.412163 0.497950 -0.284988
C36   C     C_3   0.968013 0.584385 0.505375 -0.286830
C37   C     C_1   0.249157 0.500852 0.500304 -0.133323
C38   C     C_1   0.750866 0.498525 0.500411 -0.141335
C39   C     C_3   0.026838 0.540274 0.579969 0.431037
C40   C     C_3   0.973423 0.456357 0.423218 0.434118
C41   C     C_3   0.083160 0.499841 0.500388 -0.007502
C42   C     C_3   0.916882 0.496736 0.502969 -0.004628
C43   C     C_1   0.173955 0.500770 0.500196 0.032577
C44   C     C_1   0.826087 0.497200 0.501875 0.013235
C45   C     C_R   0.409082 0.816816 0.495508 0.077071
C46   C     C_R   0.572861 0.181035 0.544649 0.079965
H1    H     H_    0.059875 0.342148 0.494174 0.195528
H2    H     H_    0.940482 0.654458 0.508998 0.182510
H3    H     H_    0.653969 0.337339 0.082221 0.203664
H4    H     H_    0.358476 0.674750 0.915500 0.202054
H5    H     H_    0.611737 0.771012 0.570731 0.194926
H6    H     H_    0.375606 0.229839 0.455431 0.199487
H7    H     H_    0.593459 0.396832 0.753610 0.149470
H8    H     H_    0.412546 0.609225 0.246322 0.153898
N1    N     N_R   0.500040 0.500070 0.750030 -0.129345
N2    N     N_R   0.499960 0.499930 0.249970 -0.125591
O1    O     O_R   0.500020 0.367860 0.580280 -0.629705
O2    O     O_R   0.499980 0.632140 0.419720 -0.637094
O3    O     O_R   0.500020 0.367840 0.419730 -0.566937
O4    O     O_R   0.499980 0.632160 0.580270 -0.552286
O5    O     O_R   0.376770 0.500000 0.580260 -0.551888
O6    O     O_R   0.623230 0.500000 0.419740 -0.561503
O7    O     O_R   0.376780 0.499980 0.419710 -0.633052
O8    O     O_R   0.623220 0.500020 0.580290 -0.632249
Zn1   Zn    Zn3+2 0.499990 0.500020 0.607200 1.007323
Zn2   Zn    Zn3+2 0.500010 0.499980 0.392800 0.996924
C47   C     C_3   0.683015 0.327236 0.896792 -0.433235
C48   C     C_3   0.754194 0.386260 0.858549 -0.383582
C49   C     C_3   0.803848 0.432033 0.937944 -0.749219
H9    H     H_    0.761549 0.478507 0.980573 0.271873
H10   H     H_    0.833152 0.380298 0.984828 0.264317
H11   H     H_    0.854961 0.472630 0.906817 0.241664
H12   H     H_    0.799013 0.342790 0.815944 0.216314
H13   H     H_    0.728150 0.439104 0.810874 0.230786
H14   H     H_    0.711780 0.276570 0.945452 0.206613
H15   H     H_    0.655271 0.286777 0.838266 0.163852
C50   C     C_3   0.353624 0.710829 0.097351 -0.444775
C51   C     C_3   0.414156 0.790853 0.103160 -0.336088
C52   C     C_3   0.366157 0.882172 0.109373 -0.840634
H16   H     H_    0.329418 0.893710 0.043456 0.266525
H17   H     H_    0.321860 0.885171 0.170501 0.267620
H18   H     H_    0.412197 0.937345 0.117818 0.258575
H19   H     H_    0.456237 0.782964 0.165639 0.217178
H20   H     H_    0.455489 0.791593 0.039041 0.243827
H21   H     H_    0.297010 0.730024 0.054373 0.219070
H22   H     H_    0.327700 0.695180 0.167678 0.196875
C53   C     C_3   0.945840 0.403562 0.665909 -0.391500
C54   C     C_3   0.021659 0.356125 0.714302 -0.307756
C55   C     C_3   0.997646 0.321088 0.811501 -0.851006
H23   H     H_    0.979809 0.378589 0.859898 0.275936
H24   H     H_    0.943841 0.274529 0.805744 0.259968
H25   H     H_    0.052859 0.283622 0.842167 0.259335
H26   H     H_    0.044994 0.298113 0.669167 0.220440
H27   H     H_    0.074516 0.403803 0.723396 0.268473
H28   H     H_    0.914370 0.453502 0.715375 0.230117
H29   H     H_    0.898761 0.352353 0.644860 0.186138
C56   C     C_3   0.057663 0.594456 0.340400 -0.387422
C57   C     C_3   0.984483 0.636691 0.283378 -0.311404
C58   C     C_3   0.017940 0.688900 0.199324 -0.844799
H30   H     H_    0.057089 0.745853 0.224428 0.262345
H31   H     H_    0.056970 0.643285 0.152031 0.271800
H32   H     H_    0.963668 0.717113 0.158188 0.260876
H33   H     H_    0.942534 0.582875 0.256481 0.272447
H34   H     H_    0.945979 0.684003 0.329457 0.221367
H35   H     H_    0.098750 0.648811 0.367297 0.203660
H36   H     H_    0.096451 0.547166 0.294614 0.226183
Cl1   Cl    Cl    0.937689 0.399443 0.319149 -0.632507
Cl2   Cl    Cl    0.064349 0.598158 0.682751 -0.603624
C59   C     C_3   0.335962 0.767265 0.447571 -0.412337
C60   C     C_3   0.311874 0.808116 0.352084 -0.349740
C61   C     C_3   0.229363 0.769175 0.315199 -0.916142
H37   H     H_    0.235619 0.694189 0.308351 0.258964
H38   H     H_    0.176213 0.787838 0.364399 0.269301
H39   H     H_    0.214151 0.797306 0.244702 0.261026
H40   H     H_    0.303456 0.882793 0.356690 0.250910
H41   H     H_    0.364176 0.792172 0.301233 0.230284
H42   H     H_    0.352304 0.695008 0.432925 0.199602
H43   H     H_    0.280116 0.762663 0.494217 0.210392
C62   C     C_3   0.660522 0.222764 0.546637 -0.530154
C63   C     C_3   0.691050 0.250752 0.448479 -0.317734
C64   C     C_3   0.787811 0.254274 0.442664 -0.772309
H44   H     H_    0.812257 0.301023 0.497924 0.250256
H45   H     H_    0.816983 0.185650 0.452275 0.252690
H46   H     H_    0.806358 0.278644 0.371855 0.316045
H47   H     H_    0.668814 0.202584 0.393075 0.262949
H48   H     H_    0.664893 0.319237 0.434387 0.268929
H49   H     H_    0.660621 0.281803 0.596610 0.196539
H50   H     H_    0.708275 0.173046 0.570006 0.256919
Cl3   Cl    Cl    0.689718 0.876739 0.691407 -0.663152
Cl4   Cl    Cl    0.249842 0.116710 0.440274 -0.663575
C65   C     C_3   0.667138 0.085403 0.712772 -0.388008
C66   C     C_3   0.764837 0.072052 0.704727 -0.258515
C67   C     C_3   0.811690 0.154154 0.742291 -0.967715
H51   H     H_    0.795253 0.215209 0.700597 0.256025
H52   H     H_    0.795229 0.167197 0.817959 0.275028
H53   H     H_    0.881245 0.140488 0.736307 0.268358
H54   H     H_    0.786147 0.013280 0.747417 0.275836
H55   H     H_    0.784981 0.057710 0.630281 0.229495
H56   H     H_    0.648621 0.158363 0.719370 0.194501
H57   H     H_    0.645998 0.056349 0.780807 0.218712
C68   C     C_3   0.244064 0.934984 0.553158 -0.359469
C69   C     C_3   0.209341 0.996262 0.634721 -0.341333
C70   C     C_3   0.127148 0.959900 0.675287 -0.818411
H58   H     H_    0.077823 0.956642 0.619381 0.270272
H59   H     H_    0.138553 0.891151 0.704329 0.280951
H60   H     H_    0.103317 0.005672 0.733354 0.249424
H61   H     H_    0.257374 0.999501 0.692144 0.225266
H62   H     H_    0.195838 0.066248 0.610759 0.270389
H63   H     H_    0.197242 0.931242 0.494640 0.237248
H64   H     H_    0.252180 0.868013 0.585952 0.215257
Cl5   Cl    Cl    0.378871 0.633107 0.736428 -0.590267
Cl6   Cl    Cl    0.619103 0.365117 0.260548 -0.647418

loop_
_geom_bond_atom_site_label_1
_geom_bond_atom_site_label_2
_ccdc_geom_bond_type
C70   H60   S    
C53   C54   S    
C36   C42   S    
C61   H37   S    
C20   N2    A    
C35   H1    S    
C56   C57   S    
C68   H63   S    
C39   C41   S    
C4    C46   A    
C50   C51   S    
C33   C39   S    
C34   C40   S    
C33   C42   S    
C19   C21   A    
C2    C3    S    
C1    O3    A    
O3    Zn2   S    
C2    O4    A    
C66   H55   S    
C57   H33   S    
C34   C56   S    
C70   H59   S    
C49   H10   S    
C60   C61   S    
C64   H46   S    
C65   H57   S    
C29   C47   S    
C30   C50   S    
C51   H19   S    
O2    Zn2   S    
C66   C67   S    
C53   H28   S    
C59   H43   S    
C67   H53   S    
C24   C38   S    
C55   H24   S    
C9    C10   A    
C17   N1    A    
C34   C36   S    
C18   N2    A    
C56   H35   S    
C62   H50   S    
C19   H7    S    
C40   C42   S    
O7    Zn2   S    
C50   H21   S    
C24   O8    A    
C24   O6    A    
C41   C43   S    
C17   Cl5   S    
C34   C41   S    
C42   C44   S    
C31   H3    S    
C18   Cl6   S    
N1    Zn1   S    
C68   H64   S    
C28   C31   A    
C39   Cl2   S    
C54   H27   S    
O6    Zn2   S    
C59   H42   S    
C47   C48   S    
C17   C27   A    
C69   H62   S    
C18   C28   A    
C20   H8    S    
C5    C7    A    
C63   H47   S    
C48   C49   S    
C6    C8    A    
C66   H54   S    
C23   C37   S    
C21   C29   A    
C3    C45   A    
C51   H20   S    
C12   C46   A    
C37   C43   T    
C49   H11   S    
C38   C44   T    
C1    O1    A    
C11   C16   A    
C58   H30   S    
C12   C15   A    
C7    C13   A    
C53   H29   S    
C61   H38   S    
C25   C26   A    
C55   H25   S    
C9    C11   A    
C32   H4    S    
C64   H44   S    
C63   H48   S    
C10   C12   A    
C40   Cl1   S    
C56   H36   S    
C4    C6    A    
C58   H31   S    
C20   C22   A    
C50   H22   S    
C13   C15   A    
C67   H51   S    
C14   C16   A    
C11   C45   A    
C47   H14   S    
C65   C66   S    
C60   H41   S    
C63   C64   S    
C52   H17   S    
C14   Cl4   S    
C19   N1    A    
C35   C40   S    
C7    C9    A    
C21   C25   A    
C54   H26   S    
C8    C14   A    
C22   C30   A    
C27   C32   A    
C51   C52   S    
C69   H61   S    
C36   C39   S    
O1    Zn1   S    
C3    C5    A    
O4    Zn1   S    
C52   H18   S    
C62   C63   S    
C2    O2    A    
C25   C27   A    
C26   C28   A    
C1    C4    S    
O8    Zn1   S    
C16   C68   S    
C48   H12   S    
C29   C31   A    
C59   C60   S    
C30   C32   A    
N2    Zn2   S    
C23   O7    A    
C33   C35   S    
C46   C62   S    
C36   H2    S    
C61   H39   S    
C45   C59   S    
C33   C53   S    
C49   H9    S    
C35   C41   S    
C64   H45   S    
C65   H56   S    
C52   H16   S    
O5    Zn1   S    
C23   O5    A    
C58   H32   S    
C15   C65   S    
C54   C55   S    
C8    C10   A    
C57   C58   S    
C22   C26   A    
C67   H52   S    
C13   Cl3   S    
C69   C70   S    
C5    H5    S    
C47   H15   S    
C6    H6    S    
C55   H23   S    
C68   C69   S    
C48   H13   S    
C60   H40   S    
C57   H34   S    
C70   H58   S    
C62   H49   S    
