data_mof_unit_1301.cif
_audit_creation_date              2013-03-05T15:56:49-0500
_audit_creation_method            fapswitch 2.2
_symmetry_space_group_name_H-M    P1
_symmetry_Int_Tables_number       1
_space_group_crystal_system       triclinic
_cell_length_a                    21.475304
_cell_length_b                    21.308304
_cell_length_c                    13.708669
_cell_angle_alpha                 89.996267
_cell_angle_beta                  90.0111
_cell_angle_gamma                 89.49367
_cell_volume                      6272.87346922

loop_
_atom_site_label
_atom_site_type_symbol
_atom_site_description
_atom_site_fract_x
_atom_site_fract_y
_atom_site_fract_z
_atom_type_partial_charge
O1    O     O_R   0.064880 0.435140 0.582280 -0.591758
O2    O     O_R   0.935120 0.564860 0.417720 -0.594466
O3    O     O_R   0.935120 0.564860 0.582280 -0.592030
O4    O     O_R   0.064880 0.435140 0.417720 -0.594246
O5    O     O_R   0.935120 0.435140 0.417720 -0.584828
O6    O     O_R   0.064880 0.564860 0.582280 -0.561221
O7    O     O_R   0.064880 0.564860 0.417720 -0.585003
O8    O     O_R   0.935120 0.435140 0.582280 -0.561171
O9    O     O_R   0.564880 0.935140 0.582280 -0.592905
O10   O     O_R   0.435120 0.064860 0.417720 -0.586706
O11   O     O_R   0.435120 0.064860 0.582280 -0.591851
O12   O     O_R   0.564880 0.935140 0.417720 -0.585451
O13   O     O_R   0.435120 0.935140 0.417720 -0.556711
O14   O     O_R   0.564880 0.064860 0.582280 -0.595089
O15   O     O_R   0.564880 0.064860 0.417720 -0.557087
O16   O     O_R   0.435120 0.935140 0.582280 -0.595396
C1    C     C_R   0.085065 0.413964 0.500086 0.841678
C2    C     C_R   0.914922 0.586038 0.500083 0.841447
C3    C     C_R   0.914310 0.414173 0.500905 0.846458
C4    C     C_R   0.085765 0.585769 0.500895 0.846432
C5    C     C_R   0.584485 0.913441 0.500056 0.843580
C6    C     C_R   0.415470 0.086517 0.500028 0.847132
C7    C     C_R   0.414035 0.914419 0.499165 0.854844
C8    C     C_R   0.585975 0.085571 0.499181 0.854127
Cu1   Cu    Cu3+1 1.000000 0.500000 0.597420 1.017298
Cu2   Cu    Cu3+1 0.000000 0.500000 0.402580 0.961763
Cu3   Cu    Cu3+1 0.500000 0.000000 0.597420 0.957702
Cu4   Cu    Cu3+1 0.500000 0.000000 0.402580 1.009981
C9    C     C_R   0.158008 0.658298 0.593857 -0.043918
C10   C     C_R   0.843300 0.340513 0.593955 -0.044487
C11   C     C_R   0.877031 0.691800 0.551267 -0.049826
C12   C     C_R   0.122464 0.307716 0.549650 -0.050351
C13   C     C_R   0.658097 0.158448 0.406867 0.003187
C14   C     C_R   0.342450 0.841051 0.406666 0.005982
C15   C     C_R   0.378623 0.193142 0.449381 -0.056300
C16   C     C_R   0.621577 0.807080 0.448477 -0.054999
C17   C     C_R   0.134822 0.633716 0.504399 -0.166435
C18   C     C_R   0.865646 0.365850 0.504499 -0.163773
C19   C     C_R   0.867489 0.635139 0.500856 -0.142830
C20   C     C_R   0.132439 0.364832 0.500764 -0.142847
C21   C     C_R   0.634434 0.134173 0.496057 -0.134120
C22   C     C_R   0.366086 0.865317 0.495957 -0.146326
C23   C     C_R   0.369185 0.136628 0.500533 -0.148446
C24   C     C_R   0.630668 0.863234 0.500725 -0.148652
C25   C     C_R   0.159459 0.654342 0.415967 -0.223402
C26   C     C_R   0.840734 0.345428 0.416195 -0.222790
C27   C     C_R   0.811130 0.623075 0.454562 -0.250513
C28   C     C_R   0.189059 0.377182 0.455515 -0.250615
C29   C     C_R   0.657499 0.156269 0.584722 -0.245782
C30   C     C_R   0.343863 0.842316 0.584580 -0.238920
C31   C     C_R   0.314470 0.126381 0.552336 -0.257558
C32   C     C_R   0.684810 0.872905 0.554296 -0.254211
C33   C     C_R   0.206881 0.698557 0.413154 0.089600
C34   C     C_R   0.793761 0.300751 0.413520 0.090421
C35   C     C_R   0.762864 0.667411 0.455937 0.099113
C36   C     C_R   0.237213 0.332718 0.456540 0.098812
C37   C     C_R   0.703863 0.201729 0.588059 0.055628
C38   C     C_R   0.299129 0.795323 0.587629 0.090297
C39   C     C_R   0.266250 0.170638 0.551138 0.101665
C40   C     C_R   0.732928 0.828543 0.553636 0.101798
C41   C     C_R   0.229682 0.723838 0.501494 0.011154
C42   C     C_R   0.771894 0.274570 0.501850 0.011760
C43   C     C_R   0.772023 0.725289 0.504348 0.004680
C44   C     C_R   0.227673 0.274429 0.503556 0.004146
C45   C     C_R   0.726045 0.227671 0.499727 0.019456
C46   C     C_R   0.275920 0.770408 0.499298 0.008189
C47   C     C_R   0.275324 0.228435 0.502586 0.004454
C48   C     C_R   0.724349 0.771257 0.503423 0.002830
C49   C     C_R   0.205757 0.703273 0.591995 0.008817
C50   C     C_R   0.796253 0.294734 0.592200 -0.008035
C51   C     C_R   0.828829 0.737286 0.553501 0.010374
C52   C     C_R   0.170491 0.262042 0.551337 0.011223
C53   C     C_R   0.702860 0.206388 0.409096 0.005415
C54   C     C_R   0.298142 0.792654 0.408711 0.002479
C55   C     C_R   0.332114 0.240367 0.453382 0.016818
C56   C     C_R   0.667986 0.759767 0.452724 0.016438
C57   C     C_R   0.231310 0.718606 0.323200 0.248053
C58   C     C_R   0.768870 0.281157 0.323659 0.247119
C59   C     C_R   0.705231 0.654602 0.411341 0.238974
C60   C     C_R   0.295077 0.345779 0.412912 0.239137
C61   C     C_R   0.727754 0.222000 0.678471 0.250308
C62   C     C_R   0.276548 0.773406 0.677695 0.242061
C63   C     C_R   0.209279 0.158262 0.597978 0.234708
C64   C     C_R   0.789263 0.840278 0.602760 0.244788
C65   C     C_R   0.773842 0.267957 0.679240 -0.208072
C66   C     C_R   0.229778 0.728580 0.679034 -0.242830
C67   C     C_R   0.162224 0.203792 0.597659 -0.247541
C68   C     C_R   0.836482 0.794910 0.601972 -0.249317
C69   C     C_R   0.275706 0.765834 0.321736 -0.242688
C70   C     C_R   0.724594 0.233872 0.322194 -0.244125
C71   C     C_R   0.658650 0.700583 0.410112 -0.240111
C72   C     C_R   0.341704 0.299839 0.411869 -0.239969
H1    H     H_    0.141077 0.635799 0.348410 0.203684
H2    H     H_    0.858463 0.364591 0.348634 0.203257
H3    H     H_    0.805097 0.578218 0.418614 0.174874
H4    H     H_    0.195375 0.422365 0.420699 0.174770
H5    H     H_    0.638983 0.137427 0.651946 0.182860
H6    H     H_    0.361284 0.861918 0.652038 0.202470
H7    H     H_    0.309245 0.082473 0.591351 0.180815
H8    H     H_    0.689691 0.916485 0.594298 0.176007
H9    H     H_    0.793111 0.281819 0.748578 0.170915
H10   H     H_    0.212959 0.713586 0.749626 0.164007
H11   H     H_    0.118789 0.192339 0.633084 0.174871
H12   H     H_    0.879482 0.805940 0.639015 0.175878
H13   H     H_    0.293003 0.780520 0.251254 0.159483
H14   H     H_    0.706698 0.219816 0.251764 0.159923
H15   H     H_    0.614902 0.688937 0.375765 0.175554
H16   H     H_    0.385678 0.311739 0.378497 0.175927
C73   C     C_R   0.048534 0.473342 0.793171 0.080058
C74   C     C_R   0.951321 0.526330 0.206606 0.031781
C75   C     C_R   0.951449 0.526598 0.793138 0.080206
C76   C     C_R   0.048709 0.473711 0.206652 0.031834
C77   C     C_R   0.554034 0.988562 0.792936 0.029560
C78   C     C_R   0.446258 0.012565 0.206958 0.060047
C79   C     C_R   0.446092 0.011669 0.793102 0.048236
C80   C     C_R   0.553928 0.988117 0.207086 0.058862
N1    N     N_R   0.000000 0.500000 0.743810 -0.182203
N2    N     N_R   0.000000 0.500000 0.256190 -0.186765
N3    N     N_R   0.500000 0.000000 0.743810 -0.197315
N4    N     N_R   0.500000 0.000000 0.256190 -0.192105
C81   C     C_R   0.950751 0.529034 0.896111 -0.104755
C82   C     C_R   0.049887 0.472089 0.103451 -0.093034
C83   C     C_R   0.049236 0.470885 0.896153 -0.105162
C84   C     C_R   0.950155 0.527943 0.103404 -0.092832
C85   C     C_R   0.444981 0.014717 0.896265 -0.056617
C86   C     C_R   0.555829 0.988124 0.103825 -0.104693
C87   C     C_R   0.555685 0.987459 0.896224 -0.095042
C88   C     C_R   0.444844 0.014765 0.103693 -0.077763
C89   C     C_R   0.000004 0.499977 0.948043 0.004849
C90   C     C_R   0.000011 0.499993 0.051555 0.010779
C91   C     C_R   0.500402 0.001475 0.948241 -0.008362
C92   C     C_R   0.500386 0.001599 0.051827 -0.010337
C93   C     C_R   0.901897 0.559009 0.948149 0.222401
C94   C     C_R   0.098810 0.442252 0.051103 0.218808
C95   C     C_R   0.098085 0.440889 0.948242 0.222277
C96   C     C_R   0.901258 0.557802 0.050999 0.218359
C97   C     C_R   0.389788 0.030020 0.947892 0.224280
C98   C     C_R   0.611189 0.973972 0.051492 0.224948
C99   C     C_R   0.611048 0.973405 0.948482 0.221447
C100  C     C_R   0.389707 0.030173 0.051363 0.184484
H17   H     H_    0.087014 0.454515 0.751833 0.146298
H18   H     H_    0.913556 0.546433 0.248042 0.139323
H19   H     H_    0.912971 0.545419 0.751767 0.146048
H20   H     H_    0.086486 0.453631 0.248116 0.139524
H21   H     H_    0.595679 0.980452 0.750557 0.136669
H22   H     H_    0.404633 0.020712 0.249278 0.156609
H23   H     H_    0.404006 0.018907 0.751205 0.164865
H24   H     H_    0.595197 0.978318 0.249488 0.153403
C101  C     C_2   0.132823 0.638269 0.689657 0.862349
O17   O     O_2   0.084414 0.661488 0.720405 -0.568263
O18   O     O_R   0.165377 0.593834 0.745061 -0.783361
H25   H     H_    0.144018 0.584661 0.809394 0.321836
C102  C     C_2   0.868519 0.360780 0.689654 0.858016
O19   O     O_2   0.917566 0.338540 0.719677 -0.566863
O20   O     O_R   0.835223 0.404228 0.745844 -0.782861
H26   H     H_    0.856685 0.413698 0.809998 0.321748
C103  C     C_2   0.938679 0.704270 0.595605 0.846368
O21   O     O_2   0.943568 0.710422 0.683949 -0.575256
O22   O     O_R   0.990973 0.708718 0.535478 -0.766858
H27   H     H_    0.029936 0.720074 0.572913 0.350073
C104  C     C_2   0.060634 0.295051 0.593143 0.845863
O23   O     O_2   0.055461 0.288054 0.681291 -0.573807
O24   O     O_R   0.008541 0.291185 0.532466 -0.767235
H28   H     H_    0.969484 0.279402 0.569310 0.348601
C105  C     C_2   0.637960 0.133524 0.310988 0.853207
O25   O     O_2   0.670748 0.095224 0.268341 -0.646356
O26   O     O_R   0.582271 0.154736 0.269299 -0.736062
H29   H     H_    0.573562 0.134271 0.203995 0.323155
C106  C     C_2   0.361757 0.866844 0.310959 0.856980
O27   O     O_2   0.329424 0.906715 0.270967 -0.644385
O28   O     O_R   0.416263 0.844826 0.266565 -0.738186
H30   H     H_    0.424592 0.866090 0.201757 0.321866
C107  C     C_2   0.436908 0.202611 0.392993 0.846263
O29   O     O_2   0.487506 0.196327 0.432874 -0.578660
O30   O     O_R   0.433553 0.218432 0.294134 -0.778473
H31   H     H_    0.476087 0.224385 0.263712 0.358695
C108  C     C_2   0.563714 0.798051 0.390808 0.846758
O31   O     O_2   0.512826 0.804012 0.429853 -0.582065
O32   O     O_R   0.567789 0.783088 0.291704 -0.778563
H32   H     H_    0.525462 0.777625 0.260308 0.357654
N5    N     N_2   0.210916 0.692077 0.233392 -0.435176
H33   H     H_    0.209895 0.723539 0.176174 0.260689
C109  C     C_3   0.242488 0.634180 0.207355 -0.703831
H34   H     H_    0.292654 0.643031 0.193548 0.232842
H35   H     H_    0.221322 0.614688 0.140070 0.230910
H36   H     H_    0.237927 0.598809 0.266418 0.234714
N6    N     N_2   0.788529 0.308348 0.233928 -0.435653
H37   H     H_    0.789536 0.277173 0.176337 0.259539
C110  C     C_3   0.756240 0.366044 0.208949 -0.704473
H38   H     H_    0.706101 0.356743 0.195635 0.233067
H39   H     H_    0.776853 0.386084 0.141641 0.230353
H40   H     H_    0.760756 0.401167 0.268373 0.235424
N7    N     N_2   0.693107 0.594918 0.369123 -0.439819
H41   H     H_    0.648781 0.578862 0.382896 0.258646
C111  C     C_3   0.708627 0.590949 0.266802 -0.702024
H42   H     H_    0.703589 0.541768 0.241432 0.228432
H43   H     H_    0.757439 0.605443 0.255249 0.235606
H44   H     H_    0.677152 0.621792 0.223340 0.241486
N8    N     N_2   0.307361 0.405640 0.371395 -0.439177
H45   H     H_    0.351783 0.421457 0.385119 0.258682
C112  C     C_3   0.291554 0.410271 0.269219 -0.702714
H46   H     H_    0.296970 0.459525 0.244401 0.228385
H47   H     H_    0.242560 0.396308 0.257761 0.235042
H48   H     H_    0.322623 0.379369 0.225178 0.241304
N9    N     N_2   0.706971 0.193522 0.767181 -0.437782
H49   H     H_    0.716926 0.146218 0.772554 0.241476
C113  C     C_3   0.711241 0.227648 0.858273 -0.667743
H50   H     H_    0.760075 0.227441 0.885069 0.220752
H51   H     H_    0.681808 0.204380 0.913916 0.231350
H52   H     H_    0.694013 0.276624 0.848918 0.244159
N10   N     N_2   0.299788 0.797065 0.767708 -0.442775
H53   H     H_    0.266398 0.800923 0.821547 0.258163
C114  C     C_3   0.355320 0.765192 0.802229 -0.678172
H54   H     H_    0.344803 0.715489 0.819940 0.231456
H55   H     H_    0.372507 0.788798 0.869109 0.230982
H56   H     H_    0.392704 0.766703 0.746287 0.242511
N11   N     N_2   0.198612 0.099805 0.645278 -0.450904
H57   H     H_    0.171424 0.103549 0.707096 0.258594
C115  C     C_3   0.177090 0.050800 0.580826 -0.675273
H58   H     H_    0.173631 0.006087 0.621990 0.234063
H59   H     H_    0.210190 0.043566 0.519494 0.237408
H60   H     H_    0.130396 0.063190 0.551171 0.232039
N12   N     N_2   0.798931 0.897747 0.653447 -0.445977
H61   H     H_    0.824911 0.892733 0.716338 0.261039
C116  C     C_3   0.821612 0.948097 0.592613 -0.694703
H62   H     H_    0.824011 0.991961 0.636133 0.229181
H63   H     H_    0.789806 0.956476 0.529938 0.238543
H64   H     H_    0.868954 0.936447 0.564865 0.235707
N13   N     N_2   0.853902 0.593155 0.898933 -0.409328
H65   H     H_    0.868411 0.620224 0.841050 0.264104
C117  C     C_3   0.798149 0.557826 0.879162 -0.644026
H66   H     H_    0.807955 0.520557 0.824645 0.232341
H67   H     H_    0.761699 0.589753 0.849395 0.232274
H68   H     H_    0.780092 0.536279 0.947209 0.243267
N14   N     N_2   0.149298 0.412274 0.100232 -0.419751
H69   H     H_    0.168852 0.438491 0.155151 0.225567
C118  C     C_3   0.138417 0.347453 0.125991 -0.631903
H70   H     H_    0.101262 0.344301 0.182114 0.216800
H71   H     H_    0.181824 0.326258 0.155714 0.222218
H72   H     H_    0.124599 0.320179 0.060498 0.252900
N15   N     N_2   0.145898 0.406459 0.899092 -0.410195
H73   H     H_    0.131249 0.379456 0.841218 0.263197
C119  C     C_3   0.201904 0.441389 0.879385 -0.644634
H74   H     H_    0.238238 0.409141 0.850134 0.231870
H75   H     H_    0.219936 0.463085 0.947339 0.243546
H76   H     H_    0.192445 0.478491 0.824457 0.233007
N16   N     N_2   0.850946 0.588092 0.100048 -0.419755
H77   H     H_    0.831340 0.562065 0.155126 0.225507
C120  C     C_3   0.862193 0.652907 0.125459 -0.629395
H78   H     H_    0.818877 0.674475 0.154820 0.222520
H79   H     H_    0.876294 0.679932 0.059868 0.253282
H80   H     H_    0.899276 0.655956 0.181736 0.216382
N17   N     N_2   0.333509 0.042533 0.895571 -0.437413
H81   H     H_    0.293396 0.028034 0.929859 0.285386
C121  C     C_3   0.327735 0.105159 0.855293 -0.674043
H82   H     H_    0.287978 0.106716 0.803542 0.242240
H83   H     H_    0.370480 0.118662 0.815084 0.231113
H84   H     H_    0.318805 0.139785 0.914123 0.231724
N18   N     N_2   0.667923 0.959364 0.100749 -0.413626
H85   H     H_    0.679057 0.989111 0.157213 0.276279
C122  C     C_3   0.676192 0.893657 0.124305 -0.621675
H86   H     H_    0.640374 0.878477 0.177609 0.235106
H87   H     H_    0.722984 0.886081 0.156914 0.228685
H88   H     H_    0.672826 0.864555 0.057284 0.245274
N19   N     N_2   0.667277 0.956993 0.899107 -0.407256
H89   H     H_    0.662218 0.925616 0.842485 0.243013
C123  C     C_3   0.706556 0.009610 0.875490 -0.649381
H90   H     H_    0.750690 0.992196 0.842614 0.231793
H91   H     H_    0.717981 0.036539 0.942460 0.251136
H92   H     H_    0.682811 0.041031 0.822326 0.196368
N20   N     N_2   0.333463 0.045936 0.101194 -0.448199
H93   H     H_    0.319651 0.013152 0.151854 0.280839
C124  C     C_3   0.329781 0.109799 0.137017 -0.635637
H94   H     H_    0.281807 0.119735 0.163282 0.230550
H95   H     H_    0.340927 0.143668 0.078281 0.237874
H96   H     H_    0.362633 0.116905 0.198457 0.240647

loop_
_geom_bond_atom_site_label_1
_geom_bond_atom_site_label_2
_geom_bond_distance
_ccdc_geom_bond_type
C63   C67   1.394658 A    
O28   H30   1.013926 S    
C121  H83   1.110916 S    
C103  O21   1.222752 D    
C8    C21   1.475265 S    
O5    Cu2   1.982071 S    
O2    C2    1.289741 A    
C112  H47   1.107118 S    
C112  H46   1.110362 S    
C117  H66   1.109384 S    
N12   H61   1.031877 S    
C14   C22   1.423990 A    
C2    C19   1.453811 S    
C44   C52   1.418685 A    
C25   H1    1.082729 S    
C116  H64   1.111601 S    
C104  O23   1.222741 D    
O15   Cu4   1.982030 S    
C45   C53   1.414575 A    
C12   C52   1.412010 A    
N5    H33   1.031907 S    
O10   C6    1.288793 A    
C57   C69   1.392516 A    
C120  H78   1.109554 S    
C105  O25   1.222165 D    
C7    C22   1.475140 S    
O12   Cu4   1.964767 S    
C54   C69   1.408930 A    
C27   C35   1.396417 A    
C39   C63   1.408808 A    
C53   C70   1.408897 A    
C62   N10   1.424849 S    
C35   C59   1.409176 A    
C109  H35   1.110469 S    
O22   H27   1.012676 S    
N17   H81   1.031163 S    
C63   N11   1.424596 S    
C123  H92   1.110487 S    
C111  H43   1.106844 S    
O6    Cu1   1.982068 S    
C75   C81   1.412655 A    
O14   C8    1.304375 A    
C119  H74   1.110175 S    
C46   C54   1.413768 A    
C118  H71   1.109657 S    
C79   H23   1.080683 S    
C59   N7    1.423374 S    
C124  H96   1.109848 S    
C29   C37   1.396001 A    
O13   C7    1.284610 A    
O3    C2    1.287554 A    
C20   C28   1.392279 A    
N15   H73   1.030847 S    
C106  O27   1.222242 D    
C77   H21   1.079211 S    
C74   H18   1.076081 S    
C82   C94   1.418300 A    
C32   C40   1.394344 A    
C68   H12   1.081436 S    
C77   N3    1.361668 A    
C33   C41   1.414572 A    
C41   C46   1.410328 A    
C38   C46   1.414595 A    
C10   C102  1.484876 S    
N10   H53   1.031919 S    
C108  O32   1.398106 S    
C35   C43   1.415773 A    
C113  H52   1.111562 S    
C57   N5    1.425264 S    
N14   H69   1.029220 S    
C36   C44   1.415790 A    
O13   Cu4   1.982071 S    
C124  H95   1.108842 S    
C86   C92   1.414862 A    
O14   Cu3   1.982068 S    
C102  O20   1.396534 S    
C15   C23   1.409672 A    
N19   H89   1.030841 S    
N11   C115  1.446788 S    
C59   C71   1.394146 A    
N6    C110  1.447172 S    
C75   H19   1.076670 S    
N18   H85   1.029932 S    
C111  H44   1.111638 S    
C74   C84   1.415398 A    
C24   C32   1.391992 A    
O16   Cu3   1.982033 S    
N16   C120  1.446735 S    
C99   N19   1.425295 S    
C121  H84   1.108702 S    
C25   C33   1.394014 A    
N8    H45   1.031832 S    
C103  O22   1.397071 S    
C80   C86   1.416166 A    
C118  H70   1.110988 S    
C83   C89   1.413117 A    
O1    Cu1   1.964843 S    
O8    Cu1   1.982033 S    
N14   C118  1.446646 S    
C42   C50   1.412843 A    
C74   N2    1.363433 A    
C110  H38   1.111610 S    
C87   C99   1.417685 A    
C88   C92   1.414722 A    
C21   C29   1.395851 A    
C10   C50   1.410789 A    
C72   H16   1.081571 S    
C124  H94   1.110044 S    
C9    C49   1.409952 A    
N5    C109  1.447222 S    
C31   H7    1.084362 S    
C81   C93   1.416360 A    
C97   C100  1.418447 A    
C120  H79   1.111283 S    
O8    C3    1.283424 A    
C30   H6    1.082714 S    
C77   C87   1.416573 A    
C84   C96   1.418251 A    
C73   N1    1.362397 A    
C113  H50   1.111116 S    
C15   C107  1.486542 S    
C44   C47   1.410740 A    
C71   H15   1.081634 S    
O3    Cu1   1.964767 S    
C78   H22   1.078546 S    
C119  H75   1.111101 S    
Cu4   N4    2.006812 S    
C109  H36   1.111064 S    
C37   C45   1.415482 A    
O26   H29   1.013908 S    
C122  H87   1.110238 S    
C73   C83   1.412780 A    
C104  O24   1.396964 S    
C34   C42   1.415196 A    
C85   C97   1.416213 A    
N11   H57   1.031880 S    
C107  O29   1.222594 D    
C60   N8    1.423519 S    
C9    C101  1.484475 S    
O12   C5    1.288935 A    
C32   H8    1.084343 S    
C58   C70   1.391616 A    
C80   N4    1.361478 A    
C96   N16   1.422710 S    
C83   C95   1.416583 A    
N15   C119  1.445502 S    
C1    C20   1.453370 S    
C30   C38   1.394399 A    
C60   C72   1.394197 A    
C110  H40   1.111059 S    
C33   C57   1.408026 A    
C109  H34   1.111613 S    
C76   C82   1.415400 A    
N13   H65   1.030838 S    
C3    C18   1.474396 S    
C93   C96   1.410236 A    
C5    C24   1.452409 S    
C78   C88   1.416700 A    
C85   C91   1.413348 A    
C39   C47   1.414888 A    
N17   C121  1.448431 S    
O30   H31   1.013204 S    
C26   H2    1.082738 S    
O11   Cu3   1.964767 S    
O18   H25   1.013957 S    
C119  H76   1.109184 S    
C15   C55   1.412615 A    
C12   C104  1.482588 S    
C26   C34   1.393605 A    
N7    C111  1.444113 S    
C116  H62   1.110442 S    
C84   C90   1.412552 A    
O2    Cu2   1.964843 S    
C78   N4    1.361405 A    
C76   H20   1.076096 S    
C51   C68   1.407069 A    
O7    Cu2   1.982030 S    
C70   H14   1.082382 S    
C11   C103  1.482813 S    
C14   C106  1.483086 S    
C55   C72   1.405970 A    
C22   C30   1.395797 A    
C67   H11   1.081499 S    
O4    C1    1.289472 A    
C19   C27   1.392467 A    
C13   C53   1.409210 A    
O15   C8    1.284696 A    
N10   C114  1.446652 S    
C14   C54   1.409635 A    
O7    C4    1.305052 A    
O16   C7    1.304454 A    
C79   N3    1.361588 A    
C117  H67   1.110175 S    
C9    C17   1.425007 A    
C112  H48   1.111629 S    
C37   C61   1.410576 A    
C16   C24   1.409615 A    
C31   C39   1.394501 A    
C17   C25   1.395357 A    
C121  H82   1.110239 S    
C66   H10   1.082200 S    
N20   C124  1.448251 S    
N8    C112  1.444349 S    
C115  H58   1.110355 S    
C52   C67   1.406841 A    
C65   H9    1.078901 S    
O9    Cu3   1.964843 S    
C61   N9    1.432199 S    
C89   C90   1.419010 A    
C106  O28   1.396871 S    
C114  H56   1.111035 S    
O10   Cu4   1.964843 S    
C93   N13   1.425975 S    
C28   C36   1.396415 A    
N9    H49   1.031177 S    
C98   N18   1.424865 S    
C86   C98   1.418827 A    
C120  H80   1.110994 S    
C28   H4    1.084166 S    
C42   C45   1.409395 A    
C94   N14   1.422902 S    
C13   C105  1.483431 S    
C16   C108  1.486609 S    
C64   C68   1.394857 A    
C81   C89   1.413174 A    
N18   C122  1.446264 S    
C64   N12   1.424800 S    
Cu1   N1    2.006812 S    
C122  H88   1.111179 S    
O4    Cu2   1.964767 S    
N16   H77   1.029147 S    
N12   C116  1.446735 S    
C94   C95   1.410473 A    
O5    C3    1.305142 A    
Cu3   N3    2.006812 S    
O32   H32   1.013298 S    
C48   C56   1.418831 A    
C80   H24   1.078635 S    
C43   C48   1.410694 A    
O11   C6    1.287932 A    
O1    C1    1.287608 A    
C36   C60   1.409157 A    
Cu2   N2    2.006812 S    
C75   N1    1.362169 A    
C123  H90   1.110438 S    
C41   C49   1.413992 A    
C95   N15   1.426042 S    
C87   C91   1.414653 A    
C38   C62   1.407801 A    
Cu1   Cu2   2.670996 S    
C114  H55   1.110408 S    
C13   C21   1.423223 A    
N6    H37   1.031928 S    
N13   C117  1.445527 S    
N19   C123  1.445738 S    
C62   C66   1.392281 A    
C101  O17   1.222435 D    
C115  H60   1.111624 S    
C76   N2    1.363497 A    
C4    C17   1.474809 S    
C40   C64   1.408816 A    
O9    C5    1.287787 A    
C107  O30   1.398194 S    
C122  H86   1.111230 S    
O6    C4    1.283769 A    
C23   C31   1.391946 A    
C100  N20   1.425324 S    
C114  H54   1.111678 S    
C79   C85   1.415913 A    
C11   C51   1.412138 A    
C116  H63   1.110956 S    
C34   C58   1.407593 A    
C11   C19   1.407710 A    
N9    C113  1.448372 S    
C117  H68   1.111123 S    
C115  H59   1.110967 S    
C12   C20   1.407392 A    
C88   C100  1.420304 A    
C91   C92   1.420033 A    
C61   C65   1.398508 A    
C18   C26   1.394607 A    
O24   H28   1.012688 S    
C98   C99   1.412183 A    
C108  O31   1.222574 D    
C56   C71   1.405809 A    
C29   H5    1.082361 S    
C111  H42   1.110361 S    
C101  O18   1.396456 S    
C16   C56   1.412544 A    
C47   C55   1.418718 A    
C40   C48   1.414851 A    
C105  O26   1.396905 S    
N7    H41   1.031826 S    
C118  H72   1.111251 S    
C69   H13   1.082410 S    
O20   H26   1.013961 S    
C113  H51   1.110336 S    
C27   H3    1.084189 S    
C73   H17   1.076707 S    
C58   N6    1.425307 S    
C10   C18   1.424909 A    
C110  H39   1.110464 S    
C102  O19   1.222453 D    
C50   C65   1.409228 A    
C123  H91   1.111208 S    
C43   C51   1.418743 A    
C82   C90   1.412549 A    
C6    C23   1.452385 S    
C97   N17   1.428370 S    
C49   C66   1.409026 A    
N20   H93   1.030519 S    
Cu3   Cu4   2.670996 S    
