data_mof_unit_2260.cif
_audit_creation_date              2012-12-10T19:11:30-0500
_audit_creation_method            fapswitch 2.2
_symmetry_space_group_name_H-M    P1
_symmetry_Int_Tables_number       1
_space_group_crystal_system       triclinic
_cell_length_a                    10.643331
_cell_length_b                    9.909973
_cell_length_c                    10.476197
_cell_angle_alpha                 90.479435
_cell_angle_beta                  89.474531
_cell_angle_gamma                 89.891407
_cell_volume                      1104.8908643

loop_
_atom_site_label
_atom_site_type_symbol
_atom_type_description
_atom_site_fract_x
_atom_site_fract_y
_atom_site_fract_z
_atom_type_partial_charge
C1    C     C_R   0.258519 0.499752 0.499201 0.866620
C2    C     C_3   0.501688 0.500128 0.122305 0.054579
C3    C     C_3   0.073371 0.551644 0.631132 -0.516056
C4    C     C_3   0.074212 0.352176 0.477114 -0.470765
C5    C     C_3   0.926440 0.556052 0.630911 0.384800
C6    C     C_3   0.931534 0.350241 0.485400 0.377916
C7    C     C_3   0.073668 0.589554 0.391067 -0.435896
C8    C     C_3   0.122182 0.498535 0.499813 0.079580
C9    C     C_3   0.878486 0.499292 0.499448 -0.043528
C10   C     C_3   0.929817 0.592806 0.392500 -0.413018
C11   C     C_3   0.394064 0.080672 0.418379 0.155745
C12   C     C_3   0.385834 0.920049 0.431866 0.147547
C13   C     C_3   0.619591 0.078562 0.447825 -0.300479
C14   C     C_3   0.612775 0.919547 0.433272 -0.341209
C15   C     C_3   0.481809 0.084574 0.629377 0.081635
C16   C     C_3   0.496667 0.922976 0.631155 0.099017
C17   C     C_R   0.501377 0.499805 0.257733 0.835238
C18   C     C_R   0.741844 0.499684 0.499098 0.883674
C19   C     C_R   0.499317 0.500085 0.741981 0.864592
C20   C     C_3   0.506951 0.627905 0.041215 -0.146596
C21   C     C_3   0.394572 0.441663 0.043455 -0.182176
C22   C     C_3   0.399653 0.569270 0.959886 -0.199895
C23   C     C_3   0.499228 0.499282 0.877088 0.043106
C24   C     C_3   0.606289 0.557497 0.955694 -0.188736
C25   C     C_3   0.494108 0.371495 0.957889 -0.136104
C26   C     C_3   0.601084 0.430084 0.039243 -0.197315
H1    H     H_    0.317480 0.625547 0.923023 0.126051
H2    H     H_    0.897175 0.698068 0.408785 0.201741
H3    H     H_    0.893469 0.567683 0.296813 0.148839
H4    H     H_    0.303491 0.120091 0.456672 0.131728
H5    H     H_    0.302385 0.900708 0.493873 0.114157
H6    H     H_    0.647168 0.124767 0.355820 0.205336
H7    H     H_    0.614324 0.891180 0.330482 0.174422
H8    H     H_    0.557860 0.126976 0.689970 0.138285
H9    H     H_    0.590446 0.903295 0.674158 0.132744
H10   H     H_    0.697387 0.104490 0.513869 0.174511
H11   H     H_    0.699069 0.874689 0.474215 0.180184
H12   H     H_    0.514939 0.733253 0.076132 0.129342
H13   H     H_    0.308463 0.394475 0.083545 0.113586
H14   H     H_    0.692261 0.604692 0.915246 0.155730
H15   H     H_    0.491225 0.266198 0.921809 0.133790
H16   H     H_    0.682841 0.371318 0.072464 0.112320
H17   H     H_    0.119461 0.648574 0.654459 0.178693
H18   H     H_    0.108700 0.312999 0.383416 0.190869
H19   H     H_    0.104692 0.481330 0.706986 0.124704
H20   H     H_    0.111834 0.282826 0.550882 0.148450
H21   H     H_    0.896207 0.482806 0.705110 0.045133
H22   H     H_    0.909373 0.300854 0.578080 0.067903
H23   H     H_    0.109284 0.694368 0.402415 0.183952
H24   H     H_    0.108306 0.551044 0.296980 0.154828
N1    N     N_3   0.499750 0.138610 0.497240 -0.071478
N2    N     N_3   0.499750 0.861390 0.497240 -0.056982
O1    O     O_R   0.314910 0.616040 0.499970 -0.652425
O2    O     O_R   0.314910 0.383960 0.499970 -0.650049
O3    O     O_R   0.500080 0.616020 0.313900 -0.630933
O4    O     O_R   0.500080 0.383980 0.313900 -0.620820
O5    O     O_R   0.685320 0.616040 0.499930 -0.580164
O6    O     O_R   0.685320 0.383960 0.499930 -0.603349
O7    O     O_R   0.500150 0.616060 0.686000 -0.610861
O8    O     O_R   0.500150 0.383940 0.686000 -0.642392
Zn1   Zn    Zn3+2 0.500150 0.654960 0.499940 0.915868
Zn2   Zn    Zn3+2 0.500150 0.345040 0.499940 0.903702
C27   C     C_3   0.390950 0.135177 0.279538 -0.835407
H25   H     H_    0.328448 0.079660 0.214597 0.199252
H26   H     H_    0.344465 0.234989 0.279560 0.250296
H27   H     H_    0.484397 0.138384 0.232652 0.242041
C28   C     C_3   0.348609 0.848638 0.306581 -0.857498
H28   H     H_    0.322793 0.742971 0.318772 0.280126
H29   H     H_    0.258740 0.890762 0.271661 0.187027
H30   H     H_    0.422456 0.858960 0.232400 0.239555
C29   C     C_3   0.357205 0.137000 0.692420 -0.899751
H31   H     H_    0.363377 0.132460 0.797908 0.214147
H32   H     H_    0.334134 0.241346 0.670528 0.294053
H33   H     H_    0.274058 0.078623 0.660893 0.201438
C30   C     C_3   0.402036 0.853027 0.724824 -0.844561
H34   H     H_    0.454788 0.805712 0.803604 0.241337
H35   H     H_    0.336159 0.915662 0.780481 0.203884
H36   H     H_    0.340980 0.779913 0.675228 0.267507
O9    O     O_3   0.863876 0.678664 0.668056 -0.590978
C31   C     C_3   0.935169 0.798256 0.660762 -0.315767
H37   H     H_    0.990180 0.806405 0.570891 0.160204
H38   H     H_    0.996640 0.807894 0.745436 0.159073
H39   H     H_    0.869414 0.885231 0.663656 0.167682
O10   O     O_3   0.876991 0.260381 0.394430 -0.600141
C32   C     C_3   0.874312 0.309134 0.268752 -0.315551
H40   H     H_    0.963714 0.356618 0.238009 0.153335
H41   H     H_    0.793266 0.378015 0.257716 0.161877
H42   H     H_    0.858295 0.222342 0.203465 0.167131

loop_
_geom_bond_atom_site_label_1
_geom_bond_atom_site_label_2
_ccdc_geom_bond_type
O6    Zn2   S    
C7    C10   S    
C27   H26   S    
C16   C30   S    
C13   H6    S    
C4    C8    S    
C14   H7    S    
C7    C8    S    
C4    H20   S    
C32   H40   S    
C5    H21   S    
C3    H17   S    
C6    H22   S    
C24   C26   S    
C11   C27   S    
N2    Zn1   S    
C16   H9    S    
C15   C16   S    
C1    C8    S    
O8    Zn2   S    
C1    O1    A    
C13   N1    S    
O1    Zn1   S    
C18   O6    A    
C14   N2    S    
C20   C24   S    
C11   H4    S    
C23   C24   S    
C15   N1    S    
C5    O9    S    
C9    C10   S    
C17   O3    A    
C15   H8    S    
C27   H27   S    
C21   C22   S    
C2    C17   S    
N1    Zn2   S    
C6    C9    S    
C31   H39   S    
C12   N2    S    
C32   H41   S    
C12   C28   S    
O7    Zn1   S    
C6    O10   S    
C2    C20   S    
C28   H28   S    
O10   C32   S    
C7    H23   S    
C13   H10   S    
C31   H38   S    
C3    C8    S    
C25   H15   S    
C29   H32   S    
C4    H18   S    
C19   O7    A    
C25   C26   S    
C3    H19   S    
O9    C31   S    
C28   H29   S    
C19   C23   S    
C30   H34   S    
C5    C9    S    
C20   H12   S    
C18   O5    A    
C21   H13   S    
C2    C21   S    
C2    C26   S    
C30   H35   S    
C17   O4    A    
C1    O2    A    
C4    C6    S    
C20   C22   S    
C22   H1    S    
C12   H5    S    
O4    Zn2   S    
C15   C29   S    
C26   H16   S    
C32   H42   S    
C10   H2    S    
C21   C25   S    
C16   N2    S    
C7    H24   S    
C31   H37   S    
C3    C5    S    
C29   H33   S    
C11   C12   S    
O5    Zn1   S    
C19   O8    A    
O2    Zn2   S    
C28   H30   S    
C29   H31   S    
C14   H11   S    
C10   H3    S    
O3    Zn1   S    
C24   H14   S    
C23   C25   S    
C30   H36   S    
C11   N1    S    
C27   H25   S    
C9    C18   S    
C22   C23   S    
C13   C14   S    
