data_mof_unit_4603.cif
_audit_creation_date              2012-12-10T19:12:18-0500
_audit_creation_method            fapswitch 2.2
_symmetry_space_group_name_H-M    P1
_symmetry_Int_Tables_number       1
_space_group_crystal_system       triclinic
_cell_length_a                    7.768257
_cell_length_b                    9.078027
_cell_length_c                    17.119988
_cell_angle_alpha                 89.042471
_cell_angle_beta                  92.418978
_cell_angle_gamma                 90.153537
_cell_volume                      1206.06257803

loop_
_atom_site_label
_atom_site_type_symbol
_atom_type_description
_atom_site_fract_x
_atom_site_fract_y
_atom_site_fract_z
_atom_type_partial_charge
C1    C     C_R   0.499695 0.220032 0.498833 0.838364
C2    C     C_R   0.500148 0.780017 0.499989 0.828821
C3    C     C_R   0.518426 0.498135 0.651266 0.872498
C4    C     C_R   0.481640 0.502112 0.348689 0.886813
C5    C     C_R   0.519695 0.481900 0.736885 -0.190746
C6    C     C_R   0.478064 0.505498 0.262592 -0.180982
C7    C     C_R   0.401207 0.563447 0.779451 0.102526
C8    C     C_R   0.598411 0.420601 0.223103 0.089538
C9    C     C_R   0.380625 0.530867 0.858804 0.174596
C10   C     C_R   0.582276 0.408737 0.141225 0.143960
C11   C     C_R   0.487713 0.424233 0.897607 0.214176
C12   C     C_R   0.463505 0.500029 0.098415 0.229748
C13   C     C_R   0.605088 0.343049 0.855573 0.131957
C14   C     C_R   0.352863 0.593848 0.137465 0.136383
C15   C     C_R   0.622621 0.371908 0.775002 0.112802
C16   C     C_R   0.355927 0.593619 0.220109 0.103249
C17   C     C_1   0.499592 0.065400 0.498992 -0.194821
C18   C     C_1   0.500081 0.934620 0.499459 -0.190684
Cu1   Cu    Cu3+1 0.669080 0.500010 0.500000 1.000576
Cu2   Cu    Cu3+1 0.330920 0.499990 0.500000 0.988279
N1    N     N_1   0.076820 0.499970 0.500010 -0.054358
N2    N     N_1   0.923180 0.500030 0.499990 -0.049155
N3    N     N_2   0.484245 0.399589 0.979684 -0.158416
N4    N     N_2   0.465692 0.515814 0.015947 -0.171319
O1    O     O_R   0.642760 0.288400 0.500000 -0.570248
O2    O     O_R   0.357240 0.711600 0.500000 -0.572492
O3    O     O_R   0.357190 0.288380 0.500000 -0.584106
O4    O     O_R   0.642810 0.711620 0.500000 -0.586630
O5    O     O_R   0.658410 0.498660 0.613920 -0.554669
O6    O     O_R   0.341590 0.501340 0.386080 -0.567770
O7    O     O_R   0.372840 0.498650 0.613930 -0.601717
O8    O     O_R   0.627160 0.501350 0.386070 -0.568901
N5    N     N_2   0.734557 0.346447 0.266349 -0.411813
H1    H     H_    0.753555 0.238405 0.251717 0.251733
C19   C     C_3   0.894557 0.428769 0.273288 -0.600914
H2    H     H_    0.956104 0.437684 0.216088 0.184198
H3    H     H_    0.984826 0.371588 0.315617 0.233342
H4    H     H_    0.871917 0.541598 0.294693 0.240470
N6    N     N_2   0.299742 0.678555 0.743531 -0.422595
H5    H     H_    0.214574 0.647241 0.699150 0.285803
C20   C     C_3   0.391960 0.813767 0.728039 -0.710746
H6    H     H_    0.299257 0.900777 0.708084 0.230769
H7    H     H_    0.485682 0.797614 0.681755 0.216662
H8    H     H_    0.461296 0.851274 0.782179 0.226481
N7    N     N_2   0.688250 0.308562 0.101853 -0.378713
H9    H     H_    0.817021 0.312851 0.118486 0.253348
C21   C     C_3   0.622216 0.159161 0.099825 -0.668963
H10   H     H_    0.600555 0.115491 0.159535 0.193447
H11   H     H_    0.716810 0.086610 0.072718 0.221099
H12   H     H_    0.498134 0.155062 0.065307 0.247195
N8    N     N_2   0.248507 0.602271 0.899503 -0.373679
H13   H     H_    0.222726 0.709444 0.881963 0.276867
C22   C     C_3   0.093973 0.515105 0.907826 -0.638596
H14   H     H_    0.031066 0.494535 0.849481 0.208110
H15   H     H_    0.002489 0.575319 0.943790 0.229944
H16   H     H_    0.124901 0.408231 0.937665 0.231646
N9    N     N_2   0.701784 0.229397 0.895257 -0.383388
H17   H     H_    0.833321 0.234427 0.889915 0.240050
C23   C     C_3   0.629146 0.082427 0.889497 -0.666349
H18   H     H_    0.612757 0.035208 0.948620 0.226490
H19   H     H_    0.717691 0.009379 0.858839 0.204274
H20   H     H_    0.500817 0.082602 0.858057 0.219980
N10   N     N_2   0.236277 0.685047 0.091795 -0.390723
H21   H     H_    0.114466 0.696564 0.112228 0.238700
C24   C     C_3   0.308156 0.820929 0.061784 -0.649172
H22   H     H_    0.212253 0.875263 0.020982 0.214644
H23   H     H_    0.425931 0.799559 0.029264 0.239765
H24   H     H_    0.340548 0.897035 0.110116 0.206540
N11   N     N_2   0.740222 0.288875 0.731529 -0.396932
H25   H     H_    0.856303 0.264302 0.760014 0.246055
C25   C     C_3   0.666207 0.165647 0.689178 -0.623992
H26   H     H_    0.751885 0.136005 0.641658 0.232033
H27   H     H_    0.536813 0.193066 0.663060 0.208715
H28   H     H_    0.654118 0.068472 0.728413 0.208981
N12   N     N_2   0.243243 0.685967 0.261294 -0.404515
H29   H     H_    0.120690 0.699798 0.237233 0.240250
C26   C     C_3   0.319055 0.820810 0.291104 -0.632385
H30   H     H_    0.229111 0.872872 0.331071 0.224557
H31   H     H_    0.343411 0.899238 0.242551 0.204867
H32   H     H_    0.442221 0.798615 0.324374 0.209189

loop_
_geom_bond_atom_site_label_1
_geom_bond_atom_site_label_2
_ccdc_geom_bond_type
N10   C24   S    
C2    C18   S    
C16   N12   S    
C20   H6    S    
C22   H15   S    
C19   H2    S    
C9    N8    S    
N6    C20   S    
Cu2   O6    S    
C22   H14   S    
C19   H3    S    
N9    C23   S    
C13   N9    S    
N11   C25   S    
C3    O5    A    
Cu1   Cu2   S    
C24   H23   S    
N3    N4    D    
C26   H30   S    
C22   H16   S    
C26   H31   S    
C23   H18   S    
N1    N2    T    
C1    O1    A    
C20   H7    S    
Cu1   O8    S    
N5    H1    S    
C21   H12   S    
N7    C21   S    
C15   N11   S    
C23   H19   S    
N8    H13   S    
C19   H4    S    
C21   H11   S    
N6    H5    S    
C5    C7    A    
C6    C8    A    
N7    H9    S    
N8    C22   S    
N12   H29   S    
N12   C26   S    
C21   H10   S    
C24   H24   S    
Cu1   N2    S    
C10   N7    S    
C17   C18   T    
C2    O2    A    
C3    O7    A    
Cu1   O4    S    
C9    C11   A    
C4    O8    A    
C10   C12   A    
C4    C6    S    
C12   C14   A    
C13   C15   A    
C20   H8    S    
C14   C16   A    
Cu1   O5    S    
C25   H27   S    
C26   H32   S    
C7    C9    A    
C23   H20   S    
C3    C5    S    
C25   H28   S    
Cu2   O3    S    
C12   N4    S    
C1    C17   S    
C25   H26   S    
C11   C13   A    
N9    H17   S    
Cu2   O2    S    
C14   N10   S    
C11   N3    S    
N5    C19   S    
C8    N5    S    
N11   H25   S    
Cu1   O1    S    
C5    C15   A    
C6    C16   A    
N10   H21   S    
Cu2   N1    S    
C8    C10   A    
C24   H22   S    
C1    O3    A    
C7    N6    S    
C2    O4    A    
C4    O6    A    
Cu2   O7    S    
