data_mof_unit_2309.cif
_audit_creation_date              2013-03-05T16:04:55-0500
_audit_creation_method            fapswitch 2.2
_symmetry_space_group_name_H-M    P1
_symmetry_Int_Tables_number       1
_space_group_crystal_system       triclinic
_cell_length_a                    23.368268
_cell_length_b                    20.28793
_cell_length_c                    14.952609
_cell_angle_alpha                 89.998573
_cell_angle_beta                  98.905752
_cell_angle_gamma                 90.001964
_cell_volume                      7003.47708212

loop_
_atom_site_label
_atom_site_type_symbol
_atom_site_description
_atom_site_fract_x
_atom_site_fract_y
_atom_site_fract_z
_atom_type_partial_charge
O1    O     O_R   0.541320 0.066090 0.608930 -0.615701
O2    O     O_R   0.458680 0.933910 0.391070 -0.617043
O3    O     O_R   0.458680 0.066090 0.391070 -0.617747
O4    O     O_R   0.541320 0.933910 0.608930 -0.615253
O5    O     O_R   0.041320 0.566090 0.608930 -0.615214
O6    O     O_R   0.958680 0.433910 0.391070 -0.617628
O7    O     O_R   0.958680 0.566090 0.391070 -0.617079
O8    O     O_R   0.041320 0.433910 0.608930 -0.615832
O9    O     O_R   0.572880 0.066110 0.470280 -0.619731
O10   O     O_R   0.427120 0.933890 0.529720 -0.620132
O11   O     O_R   0.427120 0.066110 0.529720 -0.620495
O12   O     O_R   0.572880 0.933890 0.470280 -0.619517
O13   O     O_R   0.072880 0.566110 0.470280 -0.619452
O14   O     O_R   0.927120 0.433890 0.529720 -0.620370
O15   O     O_R   0.927120 0.566110 0.529720 -0.620214
O16   O     O_R   0.072880 0.433890 0.470280 -0.619845
C1    C     C_R   0.574267 0.088773 0.552723 0.868622
C2    C     C_R   0.423593 0.913871 0.445665 0.867112
C3    C     C_R   0.423587 0.086124 0.445663 0.867101
C4    C     C_R   0.574280 0.911254 0.552747 0.868611
C5    C     C_R   0.074279 0.588750 0.552742 0.868584
C6    C     C_R   0.923584 0.413878 0.445663 0.867139
C7    C     C_R   0.923596 0.586134 0.445667 0.867104
C8    C     C_R   0.074269 0.411230 0.552727 0.868606
Zn1   Zn    Zn3+2 0.478910 0.000000 0.592580 0.938231
Zn2   Zn    Zn3+2 0.521090 1.000000 0.407420 0.935971
Zn3   Zn    Zn3+2 0.978910 0.500000 0.592580 0.938187
Zn4   Zn    Zn3+2 0.021090 0.500000 0.407420 0.935987
C9    C     C_R   0.610159 0.853311 0.578839 -0.061329
C10   C     C_R   0.373739 0.126732 0.409283 -0.057760
C11   C     C_R   0.373705 0.873332 0.409284 -0.057058
C12   C     C_R   0.610002 0.146876 0.578598 -0.061501
C13   C     C_R   0.110016 0.353141 0.578615 -0.061472
C14   C     C_R   0.873699 0.626665 0.409301 -0.056999
C15   C     C_R   0.873727 0.373281 0.409279 -0.057826
C16   C     C_R   0.110129 0.646725 0.578785 -0.061421
C17   C     C_R   0.645310 0.766588 0.684305 -0.203508
C18   C     C_R   0.313017 0.181292 0.285392 -0.203773
C19   C     C_R   0.312323 0.819796 0.285166 -0.204694
C20   C     C_R   0.644107 0.234634 0.683000 -0.203743
C21   C     C_R   0.144138 0.265397 0.683032 -0.203733
C22   C     C_R   0.812119 0.679909 0.285138 -0.204728
C23   C     C_R   0.813011 0.318715 0.285386 -0.203756
C24   C     C_R   0.145045 0.733687 0.684006 -0.203487
C25   C     C_R   0.612976 0.823920 0.664267 -0.193613
C26   C     C_R   0.363153 0.146129 0.318227 -0.194042
C27   C     C_R   0.362631 0.854688 0.317944 -0.195112
C28   C     C_R   0.612131 0.176987 0.663437 -0.192723
C29   C     C_R   0.112146 0.323030 0.663456 -0.192797
C30   C     C_R   0.862483 0.645105 0.317891 -0.195098
C31   C     C_R   0.863153 0.353866 0.318230 -0.193968
C32   C     C_R   0.112790 0.676282 0.664082 -0.193567
C33   C     C_R   0.638532 0.824250 0.513506 -0.262234
C34   C     C_R   0.333438 0.141225 0.466060 -0.263568
C35   C     C_R   0.333758 0.858313 0.466425 -0.263659
C36   C     C_R   0.638775 0.175484 0.513401 -0.262086
C37   C     C_R   0.138806 0.324549 0.513430 -0.262105
C38   C     C_R   0.833858 0.641832 0.466552 -0.263675
C39   C     C_R   0.833407 0.358818 0.466038 -0.263508
C40   C     C_R   0.138596 0.675676 0.513479 -0.262134
C41   C     C_R   0.669363 0.765634 0.530837 0.092577
C42   C     C_R   0.281909 0.173875 0.433864 0.092653
C43   C     C_R   0.282001 0.826119 0.434282 0.092634
C44   C     C_R   0.669146 0.234453 0.530145 0.092542
C45   C     C_R   0.169186 0.265590 0.530181 0.092558
C46   C     C_R   0.782033 0.673892 0.434438 0.092636
C47   C     C_R   0.781876 0.326169 0.433834 0.092641
C48   C     C_R   0.169325 0.734372 0.530671 0.092562
C49   C     C_R   0.674470 0.737971 0.618771 0.177445
C50   C     C_R   0.272870 0.196434 0.343078 0.176708
C51   C     C_R   0.272456 0.804276 0.343175 0.177043
C52   C     C_R   0.673545 0.262883 0.617526 0.177110
C53   C     C_R   0.173587 0.237161 0.617566 0.177126
C54   C     C_R   0.772333 0.695522 0.343241 0.177061
C55   C     C_R   0.772848 0.303596 0.343056 0.176691
C56   C     C_R   0.174269 0.762216 0.618480 0.177395
C57   C     C_R   0.698989 0.737026 0.464872 0.068334
C58   C     C_R   0.241511 0.189072 0.492110 0.070735
C59   C     C_R   0.241825 0.810732 0.492803 0.070825
C60   C     C_R   0.698966 0.262746 0.464191 0.068572
C61   C     C_R   0.199007 0.237302 0.464229 0.068568
C62   C     C_R   0.741923 0.689332 0.493043 0.070853
C63   C     C_R   0.741468 0.310981 0.492070 0.070715
C64   C     C_R   0.198996 0.762904 0.464702 0.068331
C65   C     C_R   0.242962 0.158909 0.577862 -0.228854
C66   C     C_R   0.688197 0.755483 0.372422 -0.230507
C67   C     C_R   0.688766 0.243469 0.372047 -0.230633
C68   C     C_R   0.243790 0.840362 0.579002 -0.228796
C69   C     C_R   0.744046 0.659870 0.579377 -0.228853
C70   C     C_R   0.188802 0.256574 0.372081 -0.230668
C71   C     C_R   0.188348 0.744246 0.372319 -0.230468
C72   C     C_R   0.742911 0.341149 0.577815 -0.228832
C73   C     C_R   0.208477 0.181987 0.638932 -0.235866
C74   C     C_R   0.723819 0.733737 0.312163 -0.236734
C75   C     C_R   0.724651 0.264883 0.312003 -0.236643
C76   C     C_R   0.209494 0.817078 0.640203 -0.235974
C77   C     C_R   0.709801 0.683212 0.640610 -0.236037
C78   C     C_R   0.224678 0.235152 0.312030 -0.236682
C79   C     C_R   0.224025 0.765927 0.312105 -0.236713
C80   C     C_R   0.708427 0.318066 0.638884 -0.235833
H1    H     H_    0.211185 0.158468 0.704548 0.144387
H2    H     H_    0.714849 0.749381 0.242074 0.146786
H3    H     H_    0.716174 0.248557 0.242178 0.146737
H4    H     H_    0.212618 0.840162 0.706165 0.143933
H5    H     H_    0.713050 0.660263 0.706675 0.143906
H6    H     H_    0.216193 0.251469 0.242201 0.146720
H7    H     H_    0.215172 0.750118 0.242076 0.146815
H8    H     H_    0.711131 0.341587 0.704497 0.144430
H9    H     H_    0.343792 0.128595 0.536719 0.161512
H10   H     H_    0.637890 0.849344 0.449848 0.161631
H11   H     H_    0.638755 0.149815 0.450311 0.161382
H12   H     H_    0.344534 0.870236 0.537271 0.161936
H13   H     H_    0.844758 0.630107 0.537444 0.161908
H14   H     H_    0.138789 0.350223 0.450341 0.161313
H15   H     H_    0.138092 0.650446 0.449950 0.161657
H16   H     H_    0.843749 0.371467 0.536691 0.161569
H17   H     H_    0.393490 0.134335 0.272692 0.158902
H18   H     H_    0.590552 0.845288 0.715473 0.159338
H19   H     H_    0.589384 0.155992 0.714510 0.160093
H20   H     H_    0.392684 0.866917 0.272126 0.157709
H21   H     H_    0.892456 0.632765 0.271995 0.157500
H22   H     H_    0.089387 0.344014 0.714521 0.160021
H23   H     H_    0.090291 0.655001 0.715262 0.159510
H24   H     H_    0.893506 0.365636 0.272709 0.158992
H25   H     H_    0.648235 0.745205 0.751278 0.136795
H26   H     H_    0.305984 0.197347 0.215423 0.136981
H27   H     H_    0.304897 0.804328 0.214950 0.137194
H28   H     H_    0.646478 0.256602 0.749536 0.136515
H29   H     H_    0.146509 0.243429 0.749569 0.136509
H30   H     H_    0.804577 0.695211 0.214857 0.137147
H31   H     H_    0.805987 0.302647 0.215423 0.136987
H32   H     H_    0.147842 0.755208 0.750880 0.136815
H33   H     H_    0.269731 0.116555 0.598649 0.142460
H34   H     H_    0.651744 0.785751 0.344672 0.151573
H35   H     H_    0.652595 0.212759 0.344370 0.150914
H36   H     H_    0.270837 0.882453 0.600066 0.142371
H37   H     H_    0.771179 0.617866 0.600529 0.142336
H38   H     H_    0.152633 0.287284 0.344405 0.150920
H39   H     H_    0.151971 0.713857 0.344581 0.151597
H40   H     H_    0.769678 0.383507 0.598598 0.142554
N1    N     N_R   0.549130 0.000000 0.284090 -0.100986
N2    N     N_R   0.450870 0.000000 0.715910 -0.098637
N3    N     N_R   0.049130 0.500000 0.284090 -0.100967
N4    N     N_R   0.950870 0.500000 0.715910 -0.098696
C81   C     C_R   0.628383 0.990919 0.203474 -0.316762
C82   C     C_R   0.371443 0.991593 0.796338 -0.317336
C83   C     C_R   0.128487 0.508282 0.203560 -0.316868
C84   C     C_R   0.871544 0.509112 0.796408 -0.317268
C85   C     C_R   0.606950 0.997004 0.284238 0.001618
C86   C     C_R   0.393005 0.997350 0.715618 0.004062
C87   C     C_R   0.106972 0.502566 0.284305 0.001659
C88   C     C_R   0.893030 0.503059 0.715670 0.003958
C89   C     C_R   0.510259 0.997433 0.207948 -0.053451
C90   C     C_R   0.489640 0.997286 0.792133 -0.051999
C91   C     C_R   0.010308 0.502770 0.207919 -0.053533
C92   C     C_R   0.989688 0.502480 0.792085 -0.051924
C93   C     C_R   0.528867 0.989537 0.123490 -0.028936
C94   C     C_R   0.470893 0.989573 0.876517 -0.029922
C95   C     C_R   0.029010 0.510381 0.123485 -0.028832
C96   C     C_R   0.971039 0.510387 0.876508 -0.029974
C97   C     C_R   0.589648 0.987070 0.121693 0.156911
C98   C     C_R   0.410093 0.987666 0.878220 0.160866
C99   C     C_R   0.089812 0.512225 0.121730 0.156856
C100  C     C_R   0.910251 0.512877 0.878249 0.160846
C101  C     C_R   0.489131 0.985364 0.041779 0.024875
C102  C     C_R   0.510554 0.985116 0.958250 0.024602
C103  C     C_R   0.989329 0.514791 0.041756 0.024837
C104  C     C_R   0.010760 0.514548 0.958228 0.024621
C105  C     C_R   0.570889 0.979560 0.958676 -0.231204
C106  C     C_R   0.428732 0.980612 0.041327 -0.232265
C107  C     C_R   0.071169 0.519272 0.958665 -0.231161
C108  C     C_R   0.928977 0.520263 0.041312 -0.232210
C109  C     C_R   0.610314 0.980335 0.038682 0.200828
C110  C     C_R   0.389339 0.981473 0.961251 0.203857
C111  C     C_R   0.110567 0.518351 0.038698 0.200755
C112  C     C_R   0.889564 0.519534 0.961268 0.203893
H41   H     H_    0.534340 0.001731 0.783760 0.124751
H42   H     H_    0.465598 0.002032 0.216471 0.124388
H43   H     H_    0.034337 0.497793 0.783581 0.124824
H44   H     H_    0.965612 0.498456 0.216377 0.124380
H45   H     H_    0.363684 0.998963 0.652103 0.127342
H46   H     H_    0.636320 0.998503 0.347689 0.137526
H47   H     H_    0.863678 0.501622 0.652177 0.127359
H48   H     H_    0.136304 0.500919 0.347785 0.137545
H49   H     H_    0.674857 0.988780 0.206146 0.161328
H50   H     H_    0.324946 0.989809 0.793556 0.155524
H51   H     H_    0.174977 0.510012 0.206280 0.161320
H52   H     H_    0.825063 0.511293 0.793666 0.155533
H53   H     H_    0.588819 0.972741 0.897262 0.139686
H54   H     H_    0.410701 0.974396 0.102758 0.139256
H55   H     H_    0.089236 0.525491 0.897253 0.139692
H56   H     H_    0.911021 0.526961 0.102732 0.139207
C113  C     C_3   0.674217 0.974464 0.033373 -0.942738
H57   H     H_    0.682581 0.968784 0.962649 0.242021
H58   H     H_    0.697254 0.019491 0.061680 0.242718
H59   H     H_    0.692479 0.930575 0.072055 0.242166
C114  C     C_3   0.325379 0.976356 0.966508 -0.947737
H60   H     H_    0.316935 0.971059 0.037249 0.242769
H61   H     H_    0.302720 0.021523 0.937907 0.241488
H62   H     H_    0.306776 0.932523 0.928054 0.241443
C115  C     C_3   0.174540 0.523308 0.033385 -0.942438
H63   H     H_    0.197133 0.478128 0.062122 0.242622
H64   H     H_    0.183001 0.528426 0.962615 0.241961
H65   H     H_    0.193209 0.567188 0.071684 0.242193
C116  C     C_3   0.825651 0.525354 0.966545 -0.947800
H66   H     H_    0.817269 0.530974 0.037273 0.242702
H67   H     H_    0.807375 0.569257 0.927913 0.241433
H68   H     H_    0.802638 0.480336 0.938154 0.241520

loop_
_geom_bond_atom_site_label_1
_geom_bond_atom_site_label_2
_geom_bond_distance
_ccdc_geom_bond_type
C25   H18   1.083047 S    
O16   Zn4   1.948051 S    
C21   H29   1.083725 S    
C18   C50   1.403246 A    
C47   C63   1.414001 A    
C101  C102  1.415688 A    
O8    C8    1.308115 A    
C17   C49   1.403007 A    
C35   H12   1.077749 S    
O2    C2    1.308109 A    
C44   C60   1.414327 A    
C115  H63   1.110546 S    
C54   C74   1.392562 A    
Zn1   N2    2.050414 S    
C105  H53   1.075689 S    
C24   H32   1.083764 S    
C99   C111  1.406595 A    
C68   C76   1.389216 A    
O4    Zn1   1.968322 S    
C12   C28   1.401935 A    
C55   C75   1.392487 A    
C87   H48   1.081874 S    
C5    C16   1.461448 S    
C43   C59   1.413823 A    
C116  H66   1.110827 S    
C108  H56   1.075779 S    
C96   C104  1.417976 A    
C6    C15   1.461323 S    
C82   C98   1.406676 A    
O11   C3    1.311197 A    
C62   C69   1.416456 A    
C81   C97   1.406439 A    
C96   C100  1.425664 A    
O10   C2    1.311237 A    
C90   C94   1.406980 A    
C60   C67   1.416489 A    
C106  C110  1.392874 A    
C59   C64   1.410508 A    
C92   H43   1.074675 S    
C11   C35   1.393252 A    
O11   Zn1   1.948049 S    
C13   C29   1.401938 A    
O6    C6    1.308199 A    
C42   C58   1.413992 A    
C45   C53   1.417344 A    
C42   C50   1.417050 A    
C15   C39   1.393452 A    
C114  H61   1.110343 S    
C20   C28   1.394274 A    
C66   C74   1.389845 A    
C51   C79   1.392551 A    
C39   C47   1.393233 A    
O5    Zn3   1.968261 S    
C33   C41   1.393780 A    
C38   C46   1.392943 A    
C104  C107  1.413923 A    
O6    Zn4   1.968262 S    
C105  C109  1.392456 A    
C75   H3    1.083969 S    
C39   H16   1.077634 S    
C113  H58   1.110337 S    
C35   C43   1.392977 A    
C38   H13   1.077739 S    
C36   C44   1.393768 A    
O13   Zn4   1.948025 S    
O3    C3    1.308195 A    
C64   C71   1.416674 A    
C53   C73   1.392554 A    
O14   Zn3   1.948026 S    
C86   H45   1.082127 S    
Zn2   N1    2.050413 S    
C36   H11   1.077512 S    
C16   C32   1.401993 A    
C77   H5    1.084037 S    
C7    C14   1.461221 S    
O15   C7    1.311223 A    
C56   C76   1.392514 A    
O16   C8    1.311397 A    
C82   C86   1.382965 A    
O1    Zn1   1.968261 S    
C31   H24   1.082987 S    
C115  H64   1.111049 S    
C30   H21   1.083085 S    
C65   C73   1.389359 A    
C60   C63   1.410543 A    
C21   C29   1.394276 A    
C59   C68   1.416485 A    
C18   H26   1.083714 S    
C66   H34   1.079575 S    
O9    Zn2   1.948025 S    
C28   H19   1.082971 S    
C17   H25   1.083742 S    
C4    C9    1.461444 S    
C116  H67   1.110436 S    
C23   C55   1.403239 A    
C81   H49   1.081415 S    
C22   C54   1.403445 A    
C80   H8    1.083996 S    
C91   C95   1.406973 A    
C48   C64   1.414401 A    
C67   H35   1.079602 S    
C92   C96   1.406947 A    
C19   H27   1.083745 S    
C68   H36   1.079925 S    
O2    Zn2   1.968262 S    
C73   H1    1.083998 S    
C103  C104  1.415768 A    
C72   C80   1.389359 A    
C34   C42   1.393210 A    
C83   H51   1.081418 S    
C97   C109  1.406470 A    
C107  C111  1.392443 A    
O7    Zn4   1.968321 S    
C34   H9    1.077637 S    
C69   C77   1.389186 A    
C12   C36   1.393619 A    
C67   C75   1.389638 A    
C20   H28   1.083722 S    
C84   C100  1.406703 A    
C112  C116  1.512389 S    
C70   H38   1.079604 S    
C114  H62   1.110418 S    
C83   C87   1.382696 A    
C63   C72   1.416399 A    
C46   C62   1.413811 A    
C10   C34   1.393449 A    
O15   Zn3   1.948049 S    
C113  H59   1.110433 S    
O12   C4    1.311486 A    
Zn3   N4    2.050414 S    
C107  H55   1.075824 S    
C22   H30   1.083721 S    
Zn4   N3    2.050413 S    
N2    C90   1.342803 A    
C88   H47   1.082137 S    
O14   C6    1.311199 A    
C111  C115  1.512639 S    
C103  C108  1.413656 A    
C22   C30   1.394664 A    
C71   H39   1.079603 S    
C61   C70   1.416499 A    
C58   C65   1.416405 A    
O9    C1    1.311400 A    
C27   H20   1.083084 S    
C43   C51   1.417004 A    
C57   C66   1.416621 A    
C69   H37   1.079920 S    
C76   H4    1.084057 S    
C109  C113  1.512344 S    
C85   H46   1.081893 S    
C115  H65   1.110599 S    
C95   C99   1.425628 A    
C47   C55   1.417052 A    
C93   C101  1.418072 A    
C72   H40   1.079859 S    
C93   C97   1.425634 A    
C49   C77   1.392500 A    
C91   H44   1.074932 S    
O10   Zn1   1.948026 S    
C19   C27   1.394616 A    
C52   C80   1.392556 A    
C116  H68   1.110345 S    
C41   C49   1.417540 A    
C101  C106  1.413657 A    
C1    C12   1.461683 S    
C41   C57   1.414398 A    
C89   H42   1.074873 S    
C110  C114  1.512357 S    
C13   C37   1.393624 A    
C20   C52   1.403064 A    
C82   H50   1.081509 S    
O3    Zn2   1.968321 S    
C84   C88   1.382850 A    
C37   C45   1.393752 A    
C16   C40   1.393599 A    
C24   C32   1.394154 A    
C14   C30   1.402113 A    
C37   H14   1.077525 S    
C98   C110  1.406696 A    
C48   C56   1.417547 A    
C79   H7    1.084005 S    
C106  H54   1.075649 S    
O1    C1    1.308116 A    
C8    C13   1.461676 S    
C78   H6    1.083971 S    
C10   C26   1.401969 A    
N3    C91   1.342935 A    
C40   C48   1.393761 A    
C71   C79   1.389799 A    
N2    C86   1.352597 A    
C23   H31   1.083711 S    
N4    C92   1.342691 A    
N4    C88   1.352509 A    
C83   C99   1.406395 A    
O13   C5    1.311470 A    
C15   C31   1.401968 A    
C58   C61   1.410540 A    
N1    C89   1.343067 A    
N1    C85   1.352180 A    
C9    C33   1.393611 A    
C57   C62   1.410488 A    
C23   C31   1.394460 A    
O7    C7    1.308142 A    
C29   H22   1.082980 S    
N3    C87   1.352178 A    
C32   H23   1.083052 S    
C95   C103  1.417900 A    
C100  C112  1.406651 A    
C44   C52   1.417339 A    
C89   C93   1.406987 A    
C114  H60   1.110824 S    
C81   C85   1.382670 A    
C18   C26   1.394463 A    
C94   C98   1.425491 A    
C33   H10   1.077501 S    
C21   C53   1.403071 A    
O4    C4    1.307912 A    
C94   C102  1.417759 A    
C108  C112  1.392728 A    
C84   H52   1.081501 S    
O5    C5    1.307937 A    
C26   H17   1.082997 S    
C102  C105  1.413454 A    
C113  H57   1.110775 S    
C90   H41   1.074882 S    
O12   Zn2   1.948051 S    
C14   C38   1.393236 A    
O8    Zn3   1.968322 S    
C19   C51   1.403407 A    
C45   C61   1.414325 A    
C40   H15   1.077525 S    
C11   C27   1.402130 A    
C2    C11   1.461191 S    
C24   C56   1.403041 A    
C3    C10   1.461306 S    
C17   C25   1.394129 A    
C70   C78   1.389638 A    
C9    C25   1.401966 A    
C50   C78   1.392479 A    
C74   H2    1.083970 S    
C65   H33   1.079859 S    
C46   C54   1.416944 A    
