data_mof_unit_781.cif
_audit_creation_date              2012-12-11T16:17:59-0500
_audit_creation_method            fapswitch 2.2
_symmetry_space_group_name_H-M    P1
_symmetry_Int_Tables_number       1
_space_group_crystal_system       triclinic
_cell_length_a                    14.047028
_cell_length_b                    14.044767
_cell_length_c                    30.116085
_cell_angle_alpha                 97.181055
_cell_angle_beta                  97.101882
_cell_angle_gamma                 61.350149
_cell_volume                      5159.31412404

loop_
_atom_site_label
_atom_site_type_symbol
_atom_type_description
_atom_site_fract_x
_atom_site_fract_y
_atom_site_fract_z
_atom_type_partial_charge
C1    C     C_R   0.385544 0.711220 0.442422 0.588130
C2    C     C_R   0.311252 0.250706 0.223440 -0.103567
C3    C     C_R   0.320383 0.259580 0.270270 -0.094483
C4    C     C_R   0.324577 0.350503 0.293260 0.033705
C5    C     C_R   0.306815 0.332412 0.199530 0.031227
C6    C     C_1   0.298563 0.320679 0.151465 -0.042108
C7    C     C_1   0.343568 0.356127 0.341127 -0.042382
C8    C     C_1   0.289752 0.302849 0.111510 0.002865
C9    C     C_R   0.768609 0.367541 0.400176 0.021824
C10   C     C_R   0.796638 0.262400 0.378247 0.194694
C11   C     C_R   0.812418 0.244227 0.332267 -0.094275
C12   C     C_R   0.398906 0.381157 0.426457 0.552212
C13   C     C_R   0.806341 0.326313 0.308624 -0.027420
C14   C     C_R   0.794150 0.423624 0.331038 -0.119656
C15   C     C_R   0.777765 0.444584 0.376728 0.089787
C16   C     C_R   0.828160 0.396038 0.158570 -0.109970
C17   C     C_R   0.858845 0.388706 0.115470 -0.120842
C18   C     C_R   0.886977 0.203075 0.103988 -0.127074
C19   C     C_R   0.856754 0.210509 0.147160 -0.104484
C20   C     C_R   0.830809 0.305748 0.174876 0.038295
C21   C     C_1   0.819372 0.307459 0.221467 -0.005757
C22   C     C_1   0.813395 0.312519 0.261137 -0.002756
C23   C     C_R   0.711447 0.404884 0.442504 0.556641
C24   C     C_R   0.892796 0.290602 0.088460 0.018449
C25   C     C_R   0.365162 0.765042 0.400801 0.024567
C26   C     C_R   0.420677 0.821920 0.392127 0.244231
C27   C     C_R   0.417560 0.846194 0.347969 -0.102885
C28   C     C_R   0.357829 0.817265 0.313482 -0.010529
C29   C     C_R   0.296135 0.769805 0.322800 -0.101512
C30   C     C_R   0.299550 0.744005 0.366036 -0.161067
C31   C     C_R   0.248564 0.851152 0.156231 0.255011
C32   C     C_R   0.228544 0.875169 0.111334 -0.118588
C33   C     C_R   0.392225 0.894370 0.115947 -0.140552
C34   C     C_R   0.389553 0.711861 0.568186 0.571117
C35   C     C_R   0.413247 0.869748 0.160619 -0.170585
C36   C     C_R   0.340063 0.851777 0.181189 0.024600
C37   C     C_1   0.355164 0.841165 0.228443 0.047246
C38   C     C_1   0.360131 0.832317 0.267796 0.026637
C39   C     C_R   0.297380 0.901537 0.091488 -0.023450
C40   C     C_R   0.365742 0.365928 0.592749 -0.001356
C41   C     C_R   0.399359 0.261378 0.607138 0.205415
C42   C     C_R   0.385437 0.252663 0.651452 -0.080030
C43   C     C_R   0.336708 0.346063 0.680434 -0.005100
C44   C     C_R   0.295491 0.448908 0.665196 -0.120074
C45   C     C_R   0.401704 0.382760 0.551993 0.565978
C46   C     C_R   0.309487 0.458933 0.621639 -0.150658
C47   C     C_R   0.227151 0.399236 0.831530 -0.129651
C48   C     C_R   0.211435 0.387858 0.875244 0.123306
C49   C     C_R   0.398020 0.240301 0.881190 -0.150208
C50   C     C_R   0.411711 0.250500 0.837239 0.137115
C51   C     C_R   0.324288 0.328260 0.812189 0.025383
C52   C     C_1   0.330521 0.333242 0.765781 0.002791
C53   C     C_1   0.333560 0.337581 0.726667 -0.016270
C54   C     C_R   0.296778 0.303678 0.899657 0.003393
C55   C     C_1   0.760598 0.377806 0.612802 0.058908
C56   C     C_R   0.713040 0.407824 0.568545 0.550533
C57   C     C_R   0.746947 0.426915 0.730655 0.286266
C58   C     C_R   0.767112 0.408245 0.776353 -0.096111
C59   C     C_R   0.911084 0.226164 0.759057 -0.116205
C60   C     C_R   0.891415 0.243656 0.713398 -0.152521
C61   C     C_R   0.810004 0.343771 0.698945 0.024478
C62   C     C_R   0.848868 0.308356 0.790557 -0.017486
C63   C     C_1   0.875673 0.293841 0.837710 -0.058874
C64   C     C_1   0.788189 0.359137 0.651603 0.031113
C65   C     C_1   0.905124 0.282586 0.876867 -0.012071
C66   C     C_1   0.374856 0.759533 0.613368 0.046376
C67   C     C_1   0.365300 0.364358 0.380798 0.014676
C68   C     C_R   0.334182 0.738416 0.722948 -0.006144
C69   C     C_R   0.325093 0.754618 0.769536 0.184486
C70   C     C_R   0.347328 0.916616 0.769907 -0.148363
C71   C     C_R   0.358285 0.898254 0.723698 -0.131472
C72   C     C_R   0.351190 0.809409 0.700144 0.027427
C73   C     C_R   0.330547 0.845730 0.793055 0.049318
C74   C     C_1   0.313445 0.872201 0.840212 -0.059426
C75   C     C_1   0.363600 0.787551 0.652675 0.004395
C76   C     C_1   0.293532 0.902226 0.878818 -0.019168
C77   C     C_R   0.950603 0.272865 0.048152 0.540808
C78   C     C_R   0.318781 0.432942 0.269374 -0.096996
C79   C     C_R   0.275213 0.270130 0.065476 0.546566
C80   C     C_R   0.260461 0.954642 0.049041 0.546809
C81   C     C_R   0.952447 0.268995 0.922041 0.547423
C82   C     C_R   0.276515 0.266667 0.939645 0.551519
C83   C     C_R   0.261427 0.950916 0.922836 0.547789
C84   C     C_R   0.309789 0.423970 0.222493 -0.085188
Cr1   Cr    Cr6+3 0.581000 0.584320 0.508140 1.132950
Cr2   Cr    Cr6+3 0.339110 0.576430 0.496080 1.046113
Cr3   Cr    Cr6+3 0.579910 0.339270 0.495810 1.195076
Cr4   Cr    Cr6+3 0.082090 0.079210 0.982490 1.025847
Cr5   Cr    Cr6+3 0.082460 0.324610 0.994920 1.042440
Cr6   Cr    Cr6+3 0.323630 0.087860 0.996130 1.024393
H1    H     H_    0.323084 0.503120 0.286987 0.118356
H2    H     H_    0.859175 0.140249 0.159673 0.129512
H3    H     H_    0.912581 0.126341 0.083992 0.129877
H4    H     H_    0.828060 0.166576 0.314655 0.151763
H5    H     H_    0.155658 0.879850 0.092671 0.158087
H6    H     H_    0.248633 0.748519 0.296203 0.186359
H7    H     H_    0.255848 0.701012 0.371511 0.152544
H8    H     H_    0.483981 0.869637 0.179685 0.124162
H9    H     H_    0.446871 0.914057 0.101448 0.145722
H10   H     H_    0.306257 0.487472 0.204250 0.165291
H11   H     H_    0.462792 0.885810 0.340305 0.150957
H12   H     H_    0.162732 0.461204 0.811743 0.123380
H13   H     H_    0.256905 0.521393 0.687615 0.127460
H14   H     H_    0.282598 0.540027 0.611708 0.151036
H15   H     H_    0.464633 0.176789 0.899616 0.136774
H16   H     H_    0.414965 0.173272 0.663768 0.151883
H17   H     H_    0.308722 0.179653 0.205844 0.119920
H18   H     H_    0.720277 0.471747 0.801032 0.157424
H19   H     H_    0.975654 0.149058 0.769847 0.131890
H20   H     H_    0.939846 0.179169 0.689364 0.132216
H21   H     H_    0.327667 0.670298 0.704352 0.128905
H22   H     H_    0.350882 0.987019 0.787630 0.114173
H23   H     H_    0.371693 0.953470 0.706393 0.132696
H24   H     H_    0.325931 0.195017 0.288457 0.130675
H25   H     H_    0.862327 0.457388 0.104432 0.139967
H26   H     H_    0.808114 0.470096 0.180020 0.118280
H27   H     H_    0.795500 0.484705 0.312727 0.121231
O1    O     O_R   0.688580 0.499770 0.460490 -0.475357
O2    O     O_R   0.348600 0.476260 0.536540 -0.521577
O3    O     O_R   0.494840 0.313840 0.539010 -0.419862
O4    O     O_R   0.672120 0.351750 0.545910 -0.484184
O5    O     O_3   0.500010 0.500010 0.500010 -0.301133
O6    O     O_R   0.167510 0.972920 0.030390 -0.518622
O7    O     O_R   0.990840 0.178580 0.027590 -0.504606
O8    O     O_R   0.972840 0.345510 0.038590 -0.512390
O9    O     O_R   0.181550 0.320660 0.045200 -0.490350
O10   O     O_R   0.346150 0.177650 0.050510 -0.511087
O11   O     O_R   0.314200 0.996600 0.036060 -0.499109
O12   O     O_R   0.480400 0.672610 0.462660 -0.439901
O13   O     O_R   0.168690 0.969990 0.933130 -0.504896
O14   O     O_R   0.991920 0.175870 0.937430 -0.493890
O15   O     O_R   0.974010 0.342590 0.941330 -0.499470
O16   O     O_R   0.182630 0.317940 0.955040 -0.468417
O17   O     O_R   0.347320 0.174720 0.953250 -0.524350
O18   O     O_R   0.315290 0.993890 0.945900 -0.492744
O19   O     O_3   0.162730 0.163890 0.991180 -0.248744
O20   O     O_R   0.315310 0.685650 0.451800 -0.512782
O21   O     O_R   0.346220 0.474990 0.446280 -0.515366
O22   O     O_R   0.492270 0.312460 0.441630 -0.435083
O23   O     O_R   0.669740 0.350480 0.455640 -0.443729
O24   O     O_R   0.691150 0.501150 0.557860 -0.486841
O25   O     O_R   0.482790 0.673890 0.552920 -0.463874
O26   O     O_R   0.317880 0.687030 0.549170 -0.511425
S1    S     S_3+6 0.154689 0.827473 0.181115 -0.001503
O27   O     O_2   0.213313 0.717267 0.199438 -0.282258
O28   O     O_2   0.106818 0.912123 0.219143 -0.291712
O29   O     O_3   0.053959 0.831702 0.143461 -0.507920
H28   H     H_    0.004327 0.910142 0.140334 0.332253
S2    S     S_3+6 0.492160 0.865596 0.435158 0.053689
O30   O     O_2   0.605370 0.774211 0.443006 -0.277187
O31   O     O_2   0.498575 0.961699 0.421598 -0.231432
O32   O     O_3   0.428012 0.901290 0.482813 -0.488304
H29   H     H_    0.479181 0.911215 0.506266 0.407942
N1    N     N_2   0.110580 0.458233 0.894591 -0.484399
H30   H     H_    0.115016 0.510624 0.920998 0.252536
C85   C     C_3   0.010879 0.501566 0.865836 -0.280670
H31   H     H_    0.940416 0.533025 0.886639 0.159559
H32   H     H_    0.008424 0.436705 0.841220 0.163738
H33   H     H_    0.003508 0.569783 0.848103 0.131670
S3    S     S_3+6 0.458508 0.140719 0.571381 0.042164
O33   O     O_2   0.578787 0.101451 0.572418 -0.200783
O34   O     O_2   0.440284 0.053676 0.587144 -0.300451
O35   O     O_3   0.404345 0.164217 0.518347 -0.455365
H34   H     H_    0.325733 0.189513 0.520002 0.338868
N2    N     N_2   0.512210 0.180085 0.818005 -0.506396
H35   H     H_    0.579070 0.161185 0.840627 0.249197
C86   C     C_3   0.515343 0.083843 0.792964 -0.293249
H36   H     H_    0.508207 0.031485 0.815754 0.136474
H37   H     H_    0.593817 0.036811 0.777105 0.160368
H38   H     H_    0.448446 0.106225 0.765987 0.156553
S4    S     S_3+6 0.642536 0.554303 0.714082 -0.023468
O36   O     O_2   0.688064 0.601751 0.685836 -0.282740
O37   O     O_2   0.553772 0.538145 0.686672 -0.306853
O38   O     O_3   0.591221 0.640038 0.759410 -0.563990
H39   H     H_    0.576576 0.712267 0.751303 0.370224
N3    N     N_2   0.307090 0.681117 0.791660 -0.537360
H40   H     H_    0.275206 0.709894 0.822500 0.256098
C87   C     C_3   0.395680 0.570958 0.791517 -0.270658
H41   H     H_    0.373231 0.520222 0.808945 0.139230
H42   H     H_    0.470136 0.570249 0.809364 0.183025
H43   H     H_    0.412817 0.534316 0.756671 0.188787
N4    N     N_2   0.766707 0.545307 0.398172 -0.456429
H44   H     H_    0.734525 0.608165 0.377285 0.266941
C88   C     C_3   0.863748 0.536627 0.424326 -0.238346
H45   H     H_    0.846607 0.616812 0.442055 0.187302
H46   H     H_    0.930566 0.511533 0.402025 0.131291
H47   H     H_    0.890034 0.476401 0.449835 0.166392
S5    S     S_3+6 0.817243 0.149978 0.406577 0.047478
O39   O     O_2   0.863499 0.156881 0.453899 -0.231711
O40   O     O_2   0.710582 0.149788 0.407539 -0.251599
O41   O     O_3   0.904837 0.032883 0.379978 -0.490565
H48   H     H_    0.859122 0.010930 0.357938 0.349808

loop_
_geom_bond_atom_site_label_1
_geom_bond_atom_site_label_2
_ccdc_geom_bond_type
C58   C62   A    
C55   C56   S    
C63   C65   T    
C40   C41   A    
N2    H35   S    
C73   C74   S    
C35   C36   A    
Cr4   O13   S    
Cr3   O23   S    
Cr4   O7    S    
C34   C66   S    
C23   O1    A    
C87   H41   S    
C1    O20   A    
C86   H37   S    
Cr5   O8    S    
C40   C46   A    
S4    O37   D    
C30   H7    S    
C26   C27   A    
C33   C39   A    
Cr5   O15   S    
C74   C76   T    
S5    O41   S    
C18   C24   A    
C28   C29   A    
C1    O12   A    
C11   H4    S    
S2    O31   D    
C5    C6    S    
Cr6   O17   S    
C87   H42   S    
C81   O14   A    
C49   C54   A    
C15   N4    S    
C2    H17   S    
C88   H45   S    
C71   H23   S    
C7    C67   T    
S5    O40   D    
C18   C19   A    
C41   C42   A    
C32   C39   A    
C31   S1    S    
O38   H39   S    
C79   O10   A    
C19   H2    S    
Cr2   O20   S    
Cr1   O12   S    
N4    H44   S    
C43   C53   S    
C34   O25   A    
C62   C63   S    
O35   H34   S    
C16   C17   A    
Cr2   O5    S    
C8    C79   S    
C10   S5    S    
Cr6   O10   S    
C69   C73   A    
Cr2   O2    S    
C69   N3    S    
C35   H8    S    
C9    C10   A    
C83   O18   A    
C68   C72   A    
C45   O2    A    
N3    C87   S    
C59   C60   A    
N2    C86   S    
Cr5   O19   S    
C21   C22   T    
C1    C25   S    
S1    O29   S    
C70   C73   A    
Cr4   O6    S    
C16   H26   S    
C76   C83   S    
C12   C67   S    
C44   H13   S    
C44   C46   A    
Cr2   O26   S    
C86   H38   S    
Cr5   O9    S    
C26   S2    S    
C40   C45   S    
S4    O38   S    
C34   O26   A    
C17   C24   A    
Cr5   O16   S    
O29   H28   S    
C51   C52   S    
C84   H10   S    
S3    O35   S    
C23   O23   A    
Cr4   O19   S    
C83   O13   A    
S1    O28   D    
S2    O32   S    
Cr1   O24   S    
C86   H36   S    
Cr3   O4    S    
C5    C84   A    
C9    C23   S    
C81   O15   A    
C47   C51   A    
C80   O11   A    
C4    C7    S    
C25   C26   A    
C46   H14   S    
C27   H11   S    
O41   H48   S    
S5    O39   D    
C33   H9    S    
C68   H21   S    
S3    O34   D    
C82   O17   A    
C61   C64   S    
C48   C54   A    
C43   C44   A    
C4    C78   A    
C37   C38   T    
C29   H6    S    
C41   S3    S    
Cr6   O19   S    
C65   C81   S    
C31   C32   A    
C28   C38   S    
C16   C20   A    
C14   H27   S    
C55   C64   T    
C50   N2    S    
C50   C51   A    
C12   O22   A    
Cr1   O5    S    
C20   C21   S    
C42   H16   S    
S4    O36   D    
N1    H30   S    
C70   C71   A    
C70   H22   S    
C56   O24   A    
C45   O3    A    
N3    H40   S    
C79   O9    A    
C12   O21   A    
C2    C5    A    
C42   C43   A    
C3    C4    A    
C54   C82   S    
C77   O8    A    
C52   C53   T    
C17   H25   S    
C25   C30   A    
C48   N1    S    
C85   H31   S    
C59   C62   A    
C31   C36   A    
N1    C85   S    
C68   C69   A    
C85   H33   S    
C49   H15   S    
Cr3   O22   S    
S1    O27   D    
C47   C48   A    
C3    H24   S    
Cr1   O25   S    
Cr3   O5    S    
C6    C8    T    
C57   C61   A    
C78   H1    S    
C88   H47   S    
C39   C80   S    
C19   C20   A    
C85   H32   S    
C2    C3    A    
C9    C15   A    
C71   C72   A    
C77   O7    A    
S2    O30   D    
C56   O4    A    
Cr6   O18   S    
C11   C13   A    
C33   C35   A    
C72   C75   S    
C57   C58   A    
C82   O16   A    
C66   C75   T    
C59   H19   S    
C88   H46   S    
C13   C22   S    
C58   H18   S    
Cr1   O1    S    
S3    O33   D    
N4    C88   S    
C87   H43   S    
C60   H20   S    
C10   C11   A    
Cr2   O21   S    
C29   C30   A    
C78   C84   A    
C24   C77   S    
Cr3   O3    S    
C32   H5    S    
O32   H29   S    
C36   C37   S    
C49   C50   A    
C27   C28   A    
C47   H12   S    
C18   H3    S    
Cr6   O11   S    
C14   C15   A    
C60   C61   A    
Cr4   O14   S    
C13   C14   A    
C57   S4    S    
C80   O6    A    
