data_mof_unit_808.cif
_audit_creation_date              2012-12-10T18:46:12-0500
_audit_creation_method            fapswitch 2.2
_symmetry_space_group_name_H-M    P1
_symmetry_Int_Tables_number       1
_space_group_crystal_system       triclinic
_cell_length_a                    9.887587
_cell_length_b                    10.727433
_cell_length_c                    12.953994
_cell_angle_alpha                 90.523237
_cell_angle_beta                  72.105588
_cell_angle_gamma                 90.446798
_cell_volume                      1307.46867328

loop_
_atom_site_label
_atom_site_type_symbol
_atom_type_description
_atom_site_fract_x
_atom_site_fract_y
_atom_site_fract_z
_atom_type_partial_charge
C1    C     C_R   0.500292 0.740085 0.500746 0.895372
C2    C     C_R   0.387691 0.414777 0.807985 -0.121778
C3    C     C_R   0.608576 0.938617 0.528273 0.632451
C4    C     C_R   0.425473 0.471519 0.698901 0.967279
C5    C     C_R   0.607362 0.066212 0.527726 -0.203197
C6    C     C_R   0.499038 0.127833 0.500900 -0.118735
C7    C     C_R   0.391171 0.062722 0.474776 -0.167618
C8    C     C_R   0.392184 0.934929 0.474880 -0.247648
C9    C     C_R   0.500838 0.872823 0.501411 -0.163166
C10   C     C_R   0.957448 0.430925 0.425637 0.660097
C11   C     C_R   0.101073 0.431344 0.425535 -0.168711
C12   C     C_R   0.454092 0.401709 0.971972 -0.071210
C13   C     C_R   0.043607 0.567045 0.575179 0.020268
C14   C     C_R   0.900849 0.568756 0.575340 0.424124
C15   C     C_R   0.499646 0.260095 0.499828 0.910874
C16   C     C_R   0.577603 0.506300 0.295341 0.921384
C17   C     C_R   0.808253 0.486227 0.002224 0.380078
C18   C     C_R   0.624405 0.507761 0.176124 -0.290269
C19   C     C_R   0.247979 0.378284 0.863860 0.377088
C20   C     C_R   0.212210 0.351077 0.975037 -0.300916
C21   C     C_R   0.312244 0.365546 0.030680 0.557842
C22   C     C_R   0.493782 0.396531 0.858649 -0.169178
C23   C     C_R   0.558793 0.441332 0.019399 -0.126050
C24   C     C_R   0.704665 0.441333 0.956538 -0.168771
C25   C     C_R   0.742650 0.398609 0.848711 0.604353
C26   C     C_R   0.636989 0.370576 0.800817 0.382450
C27   C     C_R   0.521246 0.496746 0.122227 0.357063
C28   C     C_R   0.769656 0.506765 0.115517 0.284780
F1    F     F_    0.919449 0.360962 0.351327 -0.609416
F2    F     F_    0.880938 0.386256 0.788869 -0.634562
F3    F     F_    0.713808 0.880817 0.556191 -0.647702
H1    H     H_    0.690766 0.116384 0.548852 0.212694
H2    H     H_    0.393456 0.620855 0.208603 0.344914
H3    H     H_    0.072076 0.308960 0.852627 0.388236
H4    H     H_    0.356906 0.302113 0.155882 0.334819
H5    H     H_    0.772025 0.293186 0.673426 0.364340
H6    H     H_    0.307424 0.110179 0.453188 0.186098
H7    H     H_    0.308878 0.885105 0.453290 0.197317
H8    H     H_    0.178777 0.376216 0.365982 0.213957
H9    H     H_    0.075321 0.620962 0.634995 0.195277
H10   H     H_    0.106390 0.318137 0.018617 0.182952
H11   H     H_    0.961236 0.489476 0.124780 0.359098
H12   H     H_    0.724817 0.656838 0.632105 0.409137
H13   H     H_    0.987275 0.577059 0.970354 0.342897
N1    N     N_R   0.142790 0.500030 0.500030 -0.161029
N2    N     N_R   0.857180 0.499940 0.500010 -0.200954
O1    O     O_R   0.385370 0.683250 0.500010 -0.638756
O2    O     O_3   0.809496 0.641151 0.653908 -0.706531
O3    O     O_3   0.943104 0.513192 0.935074 -0.685002
O4    O     O_3   0.386503 0.545755 0.165255 -0.699823
O5    O     O_3   0.152631 0.359043 0.806922 -0.644199
O6    O     O_3   0.271390 0.329298 0.137825 -0.706626
O7    O     O_3   0.668579 0.308952 0.702073 -0.749610
O8    O     O_R   0.614700 0.683220 0.500010 -0.591860
O9    O     O_R   0.328400 0.499990 0.653620 -0.560327
O10   O     O_R   0.557730 0.499960 0.653620 -0.613676
O11   O     O_R   0.385300 0.316780 0.499990 -0.625247
O12   O     O_R   0.614630 0.316750 0.499990 -0.568663
O13   O     O_R   0.442270 0.500040 0.346380 -0.620136
O14   O     O_R   0.671600 0.500010 0.346380 -0.501579
O15   O     O_3   0.870531 0.528153 0.167587 -0.690930
Zn1   Zn    Zn3+2 0.346870 0.500020 0.500000 0.998863
Zn2   Zn    Zn3+2 0.653130 0.499980 0.500000 1.067774

loop_
_geom_bond_atom_site_label_1
_geom_bond_atom_site_label_2
_ccdc_geom_bond_type
H13   O3    S    
C10   N2    A    
C2    C4    S    
C23   C24   A    
O9    Zn1   S    
C24   C25   A    
C2    C22   A    
C6    C7    A    
C3    C9    A    
C23   C27   A    
H12   O2    S    
C19   C20   A    
H11   O15   S    
C27   O4    S    
N2    Zn2   S    
C1    O8    A    
C5    H1    S    
C28   O15   S    
O1    Zn1   S    
C20   H10   S    
C7    H6    S    
O10   Zn2   S    
C1    C9    S    
C7    C8    A    
C14   N2    A    
C13   C14   A    
C4    O10   A    
C3    F3    S    
C15   O11   A    
C10   F1    S    
H3    O5    S    
C8    H7    S    
O14   Zn2   S    
C25   C26   A    
C19   O5    S    
C4    O9    A    
C22   C26   A    
C5    C6    A    
C11   H8    S    
C15   O12   A    
C11   N1    A    
C17   C24   A    
C10   C11   A    
C26   O7    S    
C12   C22   A    
N1    Zn1   S    
O11   Zn1   S    
C18   C28   A    
C20   C21   A    
C13   N1    A    
C16   C18   S    
C16   O14   A    
C17   O3    S    
H4    O6    S    
C14   O2    S    
O8    Zn2   S    
C25   F2    S    
C13   H9    S    
C12   C23   A    
H5    O7    S    
H2    O4    S    
C3    C5    A    
C6    C15   S    
C2    C19   A    
C17   C28   A    
C12   C21   A    
C21   O6    S    
C1    O1    A    
C18   C27   A    
O12   Zn2   S    
C8    C9    A    
O13   Zn1   S    
C16   O13   A    
