data_mof_unit_82.cif
_audit_creation_date              2012-12-10T17:33:58-0500
_audit_creation_method            fapswitch 2.2
_symmetry_space_group_name_H-M    P1
_symmetry_Int_Tables_number       1
_space_group_crystal_system       triclinic
_cell_length_a                    10.66786
_cell_length_b                    11.976426
_cell_length_c                    12.884418
_cell_angle_alpha                 93.080818
_cell_angle_beta                  89.83512
_cell_angle_gamma                 86.5197
_cell_volume                      1640.70794148

loop_
_atom_site_label
_atom_site_type_symbol
_atom_type_description
_atom_site_fract_x
_atom_site_fract_y
_atom_site_fract_z
_atom_type_partial_charge
C1    C     C_R   0.493196 0.521625 0.700313 0.992166
C2    C     C_R   0.454075 0.449718 0.975763 0.029863
C3    C     C_R   0.500249 0.547714 0.025169 0.045755
C4    C     C_R   0.742459 0.500716 0.498617 0.894988
C5    C     C_R   0.515973 0.554500 0.130952 -0.230387
C6    C     C_R   0.440828 0.368707 0.143215 -0.328043
C7    C     C_R   0.419984 0.360702 0.036259 0.473523
C8    C     C_R   0.384623 0.954890 0.401638 -0.291434
C9    C     C_R   0.395341 0.838478 0.411267 0.038869
C10   C     C_R   0.549200 0.858046 0.542326 0.034471
C11   C     C_R   0.541543 0.975469 0.535487 0.036525
C12   C     C_3   0.122504 0.499425 0.493748 -0.015817
C13   C     C_R   0.458217 0.024459 0.464115 0.089789
C14   C     C_R   0.450850 0.141945 0.457383 -0.131438
C15   C     C_R   0.604504 0.161915 0.589386 0.629924
C16   C     C_R   0.499915 0.478117 0.299750 0.899733
C17   C     C_R   0.614847 0.044595 0.598244 -0.416228
C18   C     C_R   0.258333 0.498883 0.494671 0.877287
C19   C     C_3   0.930024 0.522234 0.614424 -0.139604
C20   C     C_3   0.076954 0.508594 0.608443 -0.520518
C21   C     C_3   0.935871 0.388223 0.450063 -0.436611
C22   C     C_3   0.921979 0.599992 0.426314 0.284955
C23   C     C_3   0.078435 0.389011 0.441534 -0.411908
C24   C     C_3   0.879380 0.503725 0.498001 -0.134272
C25   C     C_2   0.883282 0.435189 0.687420 0.931056
C26   C     C_2   0.886967 0.639508 0.661704 1.011004
C27   C     C_2   0.879340 0.581692 0.313034 0.941871
C28   C     C_3   0.066801 0.603338 0.436282 0.160781
C29   C     C_R   0.488840 0.464966 0.189236 -0.076290
C30   C     C_R   0.483720 0.534134 0.811634 -0.139630
C31   C     C_R   0.531009 0.638623 0.968822 -0.171559
C32   C     C_R   0.522839 0.631826 0.862156 -0.188684
C33   C     C_R   0.444862 0.444318 0.867412 0.375369
H1    H     H_    0.895110 0.366760 0.372976 0.207773
H2    H     H_    0.338601 0.784867 0.363093 0.170046
H3    H     H_    0.612816 0.818990 0.596758 0.173998
H4    H     H_    0.123243 0.577158 0.651826 0.210942
H5    H     H_    0.114352 0.432427 0.646719 0.234201
H6    H     H_    0.911563 0.317575 0.496831 0.256092
H7    H     H_    0.120654 0.315068 0.480518 0.221176
H8    H     H_    0.086219 0.678309 0.487427 0.206453
H9    H     H_    0.771274 0.401496 0.807406 0.353385
H10   H     H_    0.152601 0.546446 0.306237 0.355235
H11   H     H_    0.347670 0.215497 0.045243 0.333300
H12   H     H_    0.108133 0.378852 0.358710 0.190300
H13   H     H_    0.462063 0.289167 0.824906 0.371082
H14   H     H_    0.930907 0.794765 0.712883 0.349260
H15   H     H_    0.727534 0.186545 0.697713 0.327572
H16   H     H_    0.768398 0.636413 0.197676 0.334392
H17   H     H_    0.901028 0.764163 0.421088 0.355324
H18   H     H_    0.549573 0.630312 0.168165 0.180361
H19   H     H_    0.415584 0.301613 0.190964 0.152624
H20   H     H_    0.564787 0.713764 0.007133 0.158299
H21   H     H_    0.552166 0.701038 0.818993 0.198686
H22   H     H_    0.387250 0.181164 0.402928 0.137981
H23   H     H_    0.319515 0.990027 0.345986 0.151962
H24   H     H_    0.679275 0.007850 0.653612 0.157178
N1    N     N_R   0.523380 0.207800 0.519350 -0.111442
N2    N     N_R   0.476620 0.792180 0.480650 -0.109951
O1    O     O_R   0.506240 0.421700 0.658830 -0.535806
O2    O     O_R   0.793981 0.466480 0.765172 -0.783490
O3    O     O_3   0.126284 0.620064 0.340626 -0.766864
O4    O     O_3   0.365067 0.268501 0.991176 -0.733951
O5    O     O_3   0.399488 0.352312 0.814636 -0.687830
O6    O     O_2   0.775500 0.662879 0.679666 -0.609288
O7    O     O_R   0.972683 0.721586 0.683253 -0.815178
O8    O     O_3   0.674840 0.232048 0.650512 -0.726283
O9    O     O_2   0.929545 0.507753 0.255170 -0.654359
O10   O     O_R   0.783854 0.652902 0.274385 -0.775266
O11   O     O_3   0.868049 0.705411 0.463582 -0.751201
O12   O     O_R   0.491240 0.609310 0.646410 -0.631678
O13   O     O_R   0.692710 0.406190 0.506230 -0.596160
O14   O     O_R   0.677700 0.593810 0.493810 -0.529856
O15   O     O_R   0.508760 0.390690 0.353590 -0.643136
O16   O     O_R   0.493760 0.578300 0.341170 -0.612006
O17   O     O_R   0.322300 0.406190 0.506190 -0.632951
O18   O     O_R   0.307290 0.593810 0.493770 -0.614568
O19   O     O_2   0.925275 0.337729 0.679555 -0.613610
Zn1   Zn    Zn3+2 0.510020 0.374730 0.508290 1.013194
Zn2   Zn    Zn3+2 0.489980 0.625270 0.491710 1.018550

loop_
_geom_bond_atom_site_label_1
_geom_bond_atom_site_label_2
_ccdc_geom_bond_type
O1    Zn1   S    
C8    C13   A    
C23   H12   S    
C16   O16   A    
C2    C7    A    
O17   Zn1   S    
C8    H23   S    
C12   C23   S    
C1    O12   A    
C12   C28   S    
C16   O15   A    
O13   Zn1   S    
C33   O5    S    
C4    C24   S    
C23   H7    S    
C28   H8    S    
C19   C26   S    
C27   O9    D    
C19   C20   S    
C8    C9    A    
O16   Zn2   S    
H14   O7    S    
C27   O10   S    
C14   H22   S    
H16   O10   S    
C13   C14   A    
C32   H21   S    
O12   Zn2   S    
C22   C28   S    
C5    C29   A    
H11   O4    S    
C14   N1    A    
C25   O19   D    
C26   O7    S    
C1    O1    A    
C21   H1    S    
C16   C29   S    
H13   O5    S    
C9    N2    A    
C20   H5    S    
C31   C32   A    
C21   H6    S    
C15   O8    S    
C12   C20   S    
C25   O2    S    
C31   H20   S    
C3    C31   A    
H9    O2    S    
C7    O4    S    
C4    O14   A    
N1    Zn1   S    
C2    C33   A    
C22   C27   S    
C21   C23   S    
C15   N1    A    
C22   C24   S    
C4    O13   A    
O18   Zn2   S    
C15   C17   A    
C11   C17   A    
C18   O17   A    
C30   C33   A    
C26   O6    D    
C3    C5    A    
N2    Zn2   S    
C6    C7    A    
O15   Zn1   S    
C2    C3    A    
H17   O11   S    
C30   C32   A    
C20   H4    S    
C11   C13   A    
C18   O18   A    
C1    C30   S    
O14   Zn2   S    
C19   C24   S    
H15   O8    S    
C19   C25   S    
C10   C11   A    
C6    C29   A    
C21   C24   S    
C12   C18   S    
C9    H2    S    
C5    H18   S    
C10   H3    S    
C6    H19   S    
C10   N2    A    
C22   O11   S    
H10   O3    S    
C17   H24   S    
C28   O3    S    
