data_mof_unit_53.cif
_audit_creation_date              2012-12-11T15:34:05-0500
_audit_creation_method            fapswitch 2.2
_symmetry_space_group_name_H-M    P1
_symmetry_Int_Tables_number       1
_space_group_crystal_system       triclinic
_cell_length_a                    15.013927
_cell_length_b                    15.055499
_cell_length_c                    34.858515
_cell_angle_alpha                 90.411729
_cell_angle_beta                  90.198645
_cell_angle_gamma                 60.097975
_cell_volume                      6830.39259542

loop_
_atom_site_label
_atom_site_type_symbol
_atom_type_description
_atom_site_fract_x
_atom_site_fract_y
_atom_site_fract_z
_atom_type_partial_charge
C1    C     C_R   0.301965 0.608255 0.555585 0.547607
C2    C     C_R   0.670426 0.676470 0.664650 0.055861
C3    C     C_R   0.288996 0.624240 0.266020 -0.009492
C4    C     C_R   0.209799 0.626538 0.288143 0.117952
C5    C     C_R   0.124771 0.630356 0.270035 -0.097107
C6    C     C_R   0.119454 0.630002 0.230266 -0.143195
C7    C     C_R   0.196593 0.630930 0.208062 0.027540
C8    C     C_R   0.218909 0.550030 0.352310 0.254409
C9    C     C_R   0.227875 0.552626 0.392452 0.231577
C10   C     C_R   0.214589 0.720118 0.388400 0.245870
C11   C     C_R   0.204850 0.718283 0.348500 0.199756
C12   C     C_R   0.212442 0.631133 0.330239 -0.051933
C13   C     C_R   0.575979 0.738263 0.646272 -0.082189
C14   C     C_R   0.240404 0.631009 0.409729 -0.076543
C15   C     C_R   0.736297 0.024428 0.942925 0.548679
C16   C     C_R   0.746510 0.723583 0.944622 0.544936
C17   C     C_R   0.038015 0.734144 0.948312 0.546056
C18   C     C_R   0.723360 0.039061 0.052901 0.560915
C19   C     C_R   0.733479 0.734152 0.054959 0.576201
C20   C     C_R   0.029080 0.743753 0.057761 0.569326
C21   C     C_R   0.558748 0.713623 0.609386 -0.113557
C22   C     C_R   0.692170 0.694275 0.783736 0.369304
C23   C     C_R   0.681623 0.688497 0.706109 0.393703
C24   C     C_R   0.778711 0.613711 0.845370 -0.076901
C25   C     C_R   0.789395 0.618676 0.884893 -0.110918
C26   C     C_R   0.634165 0.784611 0.886721 -0.126705
C27   C     C_R   0.623189 0.779363 0.847158 -0.116112
C28   C     C_R   0.697401 0.695486 0.825947 0.044316
C29   C     C_R   0.611364 0.588744 0.555016 0.542534
C30   C     C_R   0.719466 0.705963 0.905741 0.020076
C31   C     C_R   0.725275 0.066201 0.903940 -0.020556
C32   C     C_R   0.642158 0.079921 0.881072 -0.130175
C33   C     C_R   0.642075 0.095682 0.841844 -0.152370
C34   C     C_R   0.724127 0.099655 0.824661 0.036141
C35   C     C_R   0.805456 0.091691 0.847577 0.277509
C36   C     C_R   0.805152 0.075739 0.887132 -0.092736
C37   C     C_R   0.733236 0.187056 0.765564 -0.093438
C38   C     C_R   0.728061 0.197169 0.725822 -0.155097
C39   C     C_R   0.714545 0.128115 0.702602 0.034152
C40   C     C_R   0.590931 0.299558 0.553411 0.541493
C41   C     C_R   0.711007 0.045349 0.719650 0.272742
C42   C     C_R   0.716387 0.035604 0.759508 -0.066763
C43   C     C_R   0.725456 0.107402 0.782633 -0.012566
C44   C     C_R   0.598599 0.170159 0.646377 -0.067404
C45   C     C_R   0.568119 0.212212 0.609950 -0.119615
C46   C     C_R   0.728559 0.212438 0.602624 -0.127693
C47   C     C_R   0.759059 0.170102 0.639054 -0.101114
C48   C     C_R   0.693011 0.151411 0.661547 0.071085
C49   C     C_R   0.631209 0.237249 0.588315 0.017823
C50   C     C_R   0.089816 0.698045 0.911013 -0.015660
C51   C     C_R   0.298221 0.611023 0.446295 0.554215
C52   C     C_R   0.129083 0.753329 0.892239 -0.139226
C53   C     C_R   0.152266 0.737529 0.853306 -0.167875
C54   C     C_R   0.135397 0.667375 0.832473 0.071365
C55   C     C_R   0.105983 0.604393 0.851886 0.289653
C56   C     C_R   0.083423 0.619955 0.891003 -0.084434
C57   C     C_R   0.239663 0.634777 0.774007 -0.131724
C58   C     C_R   0.250715 0.632993 0.734367 0.211319
C59   C     C_R   0.165155 0.660849 0.710422 0.023221
C60   C     C_R   0.067862 0.693044 0.726631 0.261093
C61   C     C_R   0.056711 0.697038 0.766733 0.284732
C62   C     C_R   0.607267 0.590070 0.445101 0.543369
C63   C     C_R   0.143854 0.665046 0.790401 -0.027837
C64   C     C_R   0.154532 0.739283 0.645985 0.294991
C65   C     C_R   0.184353 0.726442 0.607151 0.288557
C66   C     C_R   0.263085 0.541863 0.614179 -0.181099
C67   C     C_R   0.229715 0.554981 0.651971 -0.119248
C68   C     C_R   0.179682 0.652732 0.668562 0.073580
C69   C     C_R   0.245849 0.626624 0.592103 -0.013157
C70   C     C_R   0.692438 0.716987 0.091330 -0.018976
C71   C     C_R   0.587342 0.778798 0.101729 0.219038
C72   C     C_R   0.554121 0.768317 0.138560 0.238162
C73   C     C_R   0.588910 0.301532 0.443982 0.570667
C74   C     C_R   0.626365 0.703038 0.165561 -0.014117
C75   C     C_R   0.728459 0.640732 0.154745 -0.145174
C76   C     C_R   0.761030 0.642829 0.117693 0.203429
C77   C     C_R   0.611531 0.610067 0.222076 0.298615
C78   C     C_R   0.604670 0.604852 0.262362 -0.114506
C79   C     C_R   0.596714 0.684190 0.286074 0.012758
C80   C     C_R   0.584584 0.774052 0.269577 -0.086610
C81   C     C_R   0.583687 0.783284 0.229869 -0.132797
C82   C     C_R   0.600289 0.700894 0.206133 0.095963
C83   C     C_R   0.530530 0.739598 0.353352 0.251440
C84   C     C_R   0.635700 0.626832 0.590287 0.016960
C85   C     C_R   0.537782 0.717611 0.392424 -0.080889
C86   C     C_R   0.697211 0.558842 0.381960 -0.123696
C87   C     C_R   0.691288 0.581193 0.342919 -0.157795
C88   C     C_R   0.606494 0.669758 0.328055 0.028208
C89   C     C_R   0.618452 0.625099 0.406867 -0.032717
C90   C     C_R   0.701017 0.100537 0.088512 0.029719
C91   C     C_R   0.776454 0.116200 0.107133 0.213698
C92   C     C_R   0.761836 0.149291 0.145197 -0.056822
C93   C     C_R   0.673435 0.167607 0.164966 -0.004922
C94   C     C_R   0.593758 0.164396 0.145386 -0.148089
C95   C     C_R   0.732920 0.570446 0.607349 -0.128351
C96   C     C_R   0.607448 0.131148 0.107459 -0.169516
C97   C     C_R   0.588205 0.257204 0.225158 -0.151168
C98   C     C_R   0.583159 0.263491 0.265030 0.230656
C99   C     C_R   0.660367 0.184252 0.287094 0.020627
C100  C     C_R   0.741896 0.099852 0.268898 -0.102010
C101  C     C_R   0.747322 0.093426 0.228986 0.257417
C102  C     C_R   0.670660 0.173862 0.206947 -0.029070
C103  C     C_R   0.730903 0.205793 0.349404 0.269124
C104  C     C_R   0.715447 0.232117 0.388522 0.239880
C105  C     C_R   0.559317 0.220460 0.387089 -0.152233
C106  C     C_R   0.750192 0.595153 0.644176 -0.099346
C107  C     C_R   0.575864 0.193068 0.348599 -0.119622
C108  C     C_R   0.657937 0.191234 0.329129 0.023540
C109  C     C_R   0.624966 0.246109 0.407002 -0.019008
C110  C     C_R   0.091748 0.704032 0.093046 -0.021875
C111  C     C_R   0.121445 0.605639 0.107851 0.233096
C112  C     C_R   0.162757 0.579844 0.144663 -0.124170
C113  C     C_R   0.178769 0.648549 0.166693 -0.013178
C114  C     C_R   0.158985 0.742249 0.150845 0.268815
C115  C     C_R   0.116235 0.769117 0.114141 -0.131931
C116  C     C_R   0.281935 0.627489 0.226025 -0.051538
Cr1   Cr    Cr6+3 0.421670 0.426920 0.499620 1.032212
Cr2   Cr    Cr6+3 0.427030 0.651190 0.500980 1.059566
Cr3   Cr    Cr6+3 0.651280 0.421870 0.499380 1.076632
Cr4   Cr    Cr6+3 0.910810 0.908010 0.001130 1.086580
Cr5   Cr    Cr6+3 0.682800 0.909890 0.998370 1.012118
Cr6   Cr    Cr6+3 0.908370 0.682300 0.002180 1.085216
H1    H     H_    0.794204 0.504016 0.593072 0.136312
H2    H     H_    0.869708 0.066150 0.904234 0.142001
H3    H     H_    0.832056 0.156373 0.650442 0.138989
H4    H     H_    0.729992 0.261787 0.713243 0.136231
H5    H     H_    0.740077 0.243136 0.783038 0.168318
H6    H     H_    0.578764 0.102474 0.824626 0.133008
H7    H     H_    0.712524 0.972484 0.772559 0.181792
H8    H     H_    0.545711 0.158145 0.663640 0.149532
H9    H     H_    0.492642 0.230628 0.599746 0.132601
H10   H     H_    0.483274 0.759143 0.596791 0.153269
H11   H     H_    0.779059 0.230390 0.586511 0.132923
H12   H     H_    0.135936 0.813165 0.907024 0.144548
H13   H     H_    0.054608 0.575332 0.905032 0.156397
H14   H     H_    0.248847 0.488067 0.669137 0.154222
H15   H     H_    0.306113 0.612447 0.792198 0.167241
H16   H     H_    0.178239 0.784011 0.839042 0.109079
H17   H     H_    0.856087 0.556831 0.898652 0.149534
H18   H     H_    0.308303 0.464502 0.603099 0.150641
H19   H     H_    0.751103 0.527101 0.323951 0.124487
H20   H     H_    0.608838 0.538590 0.275924 0.134289
H21   H     H_    0.579153 0.835753 0.287415 0.153308
H22   H     H_    0.824416 0.547019 0.657307 0.154024
H23   H     H_    0.577030 0.852293 0.217640 0.120156
H24   H     H_    0.475741 0.769900 0.411031 0.179199
H25   H     H_    0.784342 0.590585 0.175567 0.132150
H26   H     H_    0.759983 0.486866 0.392126 0.187423
H27   H     H_    0.547524 0.121951 0.094113 0.126026
H28   H     H_    0.520606 0.179787 0.333269 0.164062
H29   H     H_    0.528998 0.318555 0.208286 0.155681
H30   H     H_    0.513305 0.802158 0.661121 0.160228
H31   H     H_    0.822655 0.153937 0.160198 0.145602
H32   H     H_    0.801915 0.039199 0.285754 0.148021
H33   H     H_    0.524559 0.179070 0.160361 0.128981
H34   H     H_    0.490853 0.228102 0.400507 0.172822
H35   H     H_    0.098072 0.843298 0.103034 0.191509
H36   H     H_    0.836296 0.547214 0.829910 0.175655
H37   H     H_    0.354617 0.622588 0.279784 0.174541
H38   H     H_    0.341471 0.629399 0.209199 0.175174
H39   H     H_    0.179168 0.507115 0.156786 0.158095
H40   H     H_    0.061036 0.636878 0.286690 0.080914
H41   H     H_    0.052508 0.634231 0.216746 0.109040
H42   H     H_    0.579087 0.853000 0.901981 0.130877
H43   H     H_    0.559047 0.843091 0.833037 0.138092
H44   H     H_    0.579532 0.072848 0.893051 0.147205
N1    N     N_R   0.771506 0.620755 0.763115 -0.165958
N2    N     N_R   0.766215 0.617757 0.725098 -0.184283
N3    N     N_R   0.603011 0.763248 0.726684 -0.188484
N4    N     N_R   0.608392 0.766396 0.764740 -0.215774
O1    O     O_R   0.502070 0.323090 0.541280 -0.522974
O2    O     O_R   0.520720 0.641670 0.461580 -0.502577
O3    O     O_R   0.674120 0.502090 0.457500 -0.479738
O4    O     O_R   0.640110 0.338380 0.459630 -0.437646
O5    O     O_3   0.499990 0.499990 0.499990 -0.257431
O6    O     O_R   0.017640 0.822070 0.960410 -0.513906
O7    O     O_R   0.822000 0.989470 0.960340 -0.497255
O8    O     O_R   0.666920 0.007430 0.955290 -0.517747
O9    O     O_R   0.694410 0.812480 0.959650 -0.502344
O10   O     O_R   0.831550 0.656950 0.958960 -0.521285
O11   O     O_R   0.998590 0.685540 0.963930 -0.499747
O12   O     O_R   0.338340 0.520690 0.539540 -0.529195
O13   O     O_R   0.008220 0.831200 0.045060 -0.493929
O14   O     O_R   0.813270 0.997930 0.038810 -0.428297
O15   O     O_R   0.657500 0.016560 0.039940 -0.551427
O16   O     O_R   0.685680 0.820940 0.038120 -0.490248
O17   O     O_R   0.822130 0.666070 0.043610 -0.465755
O18   O     O_R   0.989860 0.694000 0.042400 -0.427695
O19   O     O_3   0.833990 0.833400 0.000560 -0.265837
O20   O     O_R   0.324760 0.674070 0.543580 -0.462845
O21   O     O_R   0.522400 0.640310 0.540110 -0.500650
O22   O     O_R   0.675940 0.500630 0.542210 -0.518207
O23   O     O_R   0.641790 0.337020 0.538150 -0.499839
O24   O     O_R   0.500260 0.324550 0.456580 -0.504330
O25   O     O_R   0.336660 0.522040 0.461020 -0.459676
O26   O     O_R   0.322940 0.675540 0.458880 -0.478251
Cl1   Cl    Cl    0.700220 0.952566 0.692123 -0.521550
O27   O     O_3   0.883678 0.102722 0.831766 -0.577229
C117  C     C_3   0.959989 0.007917 0.816401 0.004981
H45   H     H_    0.927921 0.961325 0.803801 0.172437
H46   H     H_    0.015027 0.962807 0.839493 0.142978
C118  C     C_3   0.016832 0.029309 0.784691 -0.256975
H47   H     H_    0.960905 0.077235 0.762281 0.195015
H48   H     H_    0.052597 0.072580 0.796848 0.185928
C119  C     C_3   0.099945 0.930880 0.766010 -0.428567
H49   H     H_    0.161203 0.884917 0.786990 0.139770
H50   H     H_    0.135154 0.950213 0.741870 0.210236
H51   H     H_    0.066390 0.884945 0.754638 0.198920
Cl2   Cl    Cl    0.373316 0.595916 0.715547 -0.588169
Cl3   Cl    Cl    0.960347 0.727136 0.696767 -0.451054
Cl4   Cl    Cl    0.932981 0.746649 0.787083 -0.524943
Cl5   Cl    Cl    0.092318 0.863281 0.666465 -0.583575
O28   O     O_3   0.160237 0.811003 0.584714 -0.520850
C120  C     C_3   0.058724 0.852213 0.570539 0.035695
H52   H     H_    0.030761 0.933492 0.563003 0.169346
H53   H     H_    0.004130 0.853192 0.592415 0.175619
C121  C     C_3   0.056285 0.795022 0.534293 -0.293223
H54   H     H_    0.110712 0.794967 0.512784 0.174575
H55   H     H_    0.080214 0.714394 0.541371 0.146419
C122  C     C_3   0.948748 0.844652 0.517048 -0.488557
H56   H     H_    0.893644 0.843830 0.538027 0.174355
H57   H     H_    0.949627 0.801010 0.491105 0.138524
H58   H     H_    0.922965 0.925015 0.508829 0.150954
Cl6   Cl    Cl    0.093028 0.508129 0.827835 -0.563524
O29   O     O_3   0.515952 0.837884 0.074181 -0.524112
C123  C     C_3   0.482672 0.942728 0.080517 0.035923
H59   H     H_    0.548568 0.956883 0.080015 0.147671
H60   H     H_    0.443125 0.969792 0.108599 0.170489
C124  C     C_3   0.406893 0.004641 0.048746 -0.240972
H61   H     H_    0.444416 0.976895 0.020328 0.176515
H62   H     H_    0.339626 0.992705 0.050161 0.196775
C125  C     C_3   0.369393 0.118975 0.052406 -0.470434
H63   H     H_    0.433150 0.134007 0.046360 0.164938
H64   H     H_    0.338421 0.147413 0.081606 0.162965
H65   H     H_    0.307427 0.161650 0.031161 0.167575
O30   O     O_3   0.863516 0.577850 0.109041 -0.517104
C126  C     C_3   0.875482 0.486593 0.092123 0.065625
H66   H     H_    0.945628 0.453753 0.074014 0.207307
H67   H     H_    0.810954 0.500355 0.072483 0.123614
C127  C     C_3   0.889581 0.408085 0.122778 -0.310181
H68   H     H_    0.946842 0.402390 0.144365 0.185319
H69   H     H_    0.815101 0.433278 0.137376 0.173987
C128  C     C_3   0.925686 0.302564 0.105176 -0.438887
H70   H     H_    0.868971 0.306529 0.083714 0.194110
H71   H     H_    0.933471 0.248237 0.128064 0.180475
H72   H     H_    0.001561 0.273416 0.091088 0.175415
O31   O     O_3   0.626795 0.531516 0.196661 -0.563198
C129  C     C_3   0.681750 0.431266 0.211908 -0.002452
H73   H     H_    0.688762 0.378209 0.188274 0.167317
H74   H     H_    0.637585 0.419147 0.234698 0.163878
C130  C     C_3   0.790865 0.401971 0.225416 -0.289876
H75   H     H_    0.826006 0.432598 0.205403 0.155921
H76   H     H_    0.787895 0.434954 0.254263 0.155300
C131  C     C_3   0.859773 0.286153 0.227649 -0.448902
H77   H     H_    0.822242 0.252090 0.244764 0.210982
H78   H     H_    0.933921 0.267433 0.241371 0.170099
H79   H     H_    0.875716 0.252358 0.198375 0.128282
Cl7   Cl    Cl    0.422088 0.831556 0.150234 -0.550824
Cl8   Cl    Cl    0.419046 0.849348 0.336997 -0.535728
Cl9   Cl    Cl    0.894097 0.088762 0.085964 -0.648594
Cl10  Cl    Cl    0.481716 0.374181 0.286287 -0.615734
O32   O     O_3   0.832622 0.012367 0.212039 -0.604954
C132  C     C_3   0.808124 0.939383 0.197302 0.004526
H80   H     H_    0.854197 0.906551 0.170761 0.157219
H81   H     H_    0.725910 0.972266 0.188848 0.132274
C133  C     C_3   0.837340 0.853241 0.226223 -0.282119
H82   H     H_    0.916983 0.824991 0.236593 0.171308
H83   H     H_    0.784546 0.883156 0.251242 0.153781
C134  C     C_3   0.830263 0.764519 0.208068 -0.485607
H84   H     H_    0.752112 0.792458 0.196364 0.145609
H85   H     H_    0.846520 0.705087 0.229954 0.141048
H86   H     H_    0.886666 0.729615 0.184309 0.166270
Cl11  Cl    Cl    0.837738 0.199112 0.325374 -0.621201
Cl12  Cl    Cl    0.809794 0.249326 0.412758 -0.566389
Cl13  Cl    Cl    0.108679 0.511229 0.082232 -0.592945
Cl14  Cl    Cl    0.184160 0.826202 0.321758 -0.569202
O33   O     O_3   0.235424 0.460490 0.334410 -0.490783
C135  C     C_3   0.144198 0.454635 0.333577 0.029111
H87   H     H_    0.114117 0.468752 0.303792 0.135102
H88   H     H_    0.081724 0.511360 0.352540 0.088471
C136  C     C_3   0.169528 0.346258 0.344400 -0.246291
H89   H     H_    0.224675 0.290704 0.323201 0.189895
H90   H     H_    0.206590 0.326514 0.373077 0.198778
C137  C     C_3   0.073082 0.336486 0.345118 -0.459861
H91   H     H_    0.017914 0.389527 0.366864 0.149165
H92   H     H_    0.094193 0.256846 0.352696 0.199709
H93   H     H_    0.035585 0.354428 0.316485 0.154109
O34   O     O_3   0.232583 0.473737 0.414194 -0.520684
C138  C     C_3   0.134426 0.504978 0.430380 -0.001018
H94   H     H_    0.119286 0.440303 0.426938 0.149673
H95   H     H_    0.069455 0.572226 0.415914 0.083145
C139  C     C_3   0.132680 0.528489 0.473310 -0.248545
H96   H     H_    0.198980 0.463442 0.487764 0.190203
H97   H     H_    0.138336 0.598669 0.477369 0.142642
C140  C     C_3   0.033331 0.546596 0.492136 -0.486992
H98   H     H_    0.965972 0.612187 0.478422 0.147300
H99   H     H_    0.034109 0.564555 0.523050 0.154084
H100  H     H_    0.025881 0.477006 0.489538 0.159781
O35   O     O_3   0.182079 0.807449 0.171109 -0.524853
C141  C     C_3   0.093366 0.881143 0.190677 0.016662
H101  H     H_    0.056541 0.844602 0.207018 0.145133
H102  H     H_    0.036825 0.936827 0.169939 0.170994
C142  C     C_3   0.124649 0.938383 0.219111 -0.228859
H103  H     H_    0.186352 0.882273 0.238142 0.238994
H104  H     H_    0.155341 0.980993 0.203132 0.195801
C143  C     C_3   0.033998 0.013448 0.243697 -0.408645
H105  H     H_    0.971723 0.070034 0.225128 0.171139
H106  H     H_    0.058830 0.054919 0.263567 0.197815
H107  H     H_    0.004301 0.971961 0.260922 0.210725
O36   O     O_3   0.204306 0.807788 0.405802 -0.473886
C144  C     C_3   0.110811 0.857052 0.426704 0.026265
H108  H     H_    0.117495 0.907276 0.448652 0.166523
H109  H     H_    0.095628 0.802124 0.442745 0.084504
C145  C     C_3   0.019719 0.923924 0.400362 -0.234796
H110  H     H_    0.031932 0.983786 0.386960 0.250578
H111  H     H_    0.013632 0.876153 0.377221 0.171917
C146  C     C_3   0.918640 0.975074 0.422440 -0.462511
H112  H     H_    0.903592 0.916225 0.434918 0.126776
H113  H     H_    0.854822 0.022473 0.402535 0.180954
H114  H     H_    0.920761 0.024838 0.445678 0.187040

loop_
_geom_bond_atom_site_label_1
_geom_bond_atom_site_label_2
_ccdc_geom_bond_type
C32   H44   S    
C87   C88   A    
C114  C115  A    
C39   C41   A    
C129  H73   S    
C136  C137  S    
C137  H91   S    
C36   H2    S    
C5    C6    A    
C54   C63   S    
C44   H8    S    
C34   C35   A    
C61   C63   A    
C110  C111  A    
C131  H78   S    
C91   Cl9   S    
O36   C144  S    
C107  H28   S    
C50   C52   A    
C4    C12   S    
C16   O9    A    
C1    O20   A    
C83   C88   A    
C59   C60   A    
C73   O24   A    
C71   O29   S    
C129  H74   S    
C118  H47   S    
C130  H75   S    
C142  H104  S    
C145  H110  S    
O28   C120  S    
C77   O31   S    
C146  H114  S    
C75   C76   A    
C21   H10   S    
C65   O28   S    
C124  H61   S    
Cr2   O21   S    
Cr6   O18   S    
C142  H103  S    
C125  H64   S    
C143  H105  S    
C13   C21   A    
C85   H24   S    
C94   C96   A    
C22   N4    A    
C27   H43   S    
C134  H85   S    
C114  O35   S    
C104  Cl12  S    
C141  H101  S    
Cr6   O19   S    
C132  H81   S    
C120  H52   S    
C137  H93   S    
C4    C5    A    
Cr4   O7    S    
C6    C7    A    
C139  H97   S    
C67   H14   S    
C51   O25   A    
Cr4   O19   S    
C32   C33   A    
C77   C82   A    
C125  H65   S    
C66   H18   S    
C6    H41   S    
C124  H62   S    
C98   C99   A    
C31   C36   A    
C64   Cl5   S    
C40   O1    A    
C44   C48   A    
C55   Cl6   S    
C52   H12   S    
C111  C112  A    
C97   C98   A    
Cr6   O17   S    
C140  H99   S    
C53   C54   A    
C99   C108  S    
C105  C107  A    
C64   C68   A    
C124  C125  S    
C3    C116  A    
C19   O16   A    
Cr5   O19   S    
C38   C39   A    
C120  H53   S    
C16   C30   S    
C40   C49   S    
O30   C126  S    
C125  H63   S    
C99   C100  A    
C94   H33   S    
C117  C118  S    
C107  C108  A    
C29   O21   A    
C92   H31   S    
C141  C142  S    
Cr3   O5    S    
Cr1   O5    S    
C66   C67   A    
O33   C135  S    
C3    H37   S    
C122  H56   S    
C38   H4    S    
C57   C63   A    
C40   O23   A    
C119  H50   S    
C10   O36   S    
Cr3   O22   S    
C29   C84   S    
C41   Cl1   S    
C10   C14   A    
C91   C92   A    
Cr1   O12   S    
C130  C131  S    
C131  H79   S    
C121  H54   S    
C62   O3    A    
C2    C106  A    
C50   C56   A    
Cr3   O23   S    
C84   C95   A    
C7    C116  A    
Cr1   O25   S    
C95   C106  A    
C20   O18   A    
C31   C32   A    
C23   N3    A    
C8    C12   A    
C128  H72   S    
C138  H94   S    
C57   H15   S    
C76   O30   S    
C83   Cl8   S    
Cr4   O14   S    
C133  H83   S    
C20   C110  S    
C26   C30   A    
C144  H109  S    
C3    C4    A    
C52   C53   A    
C58   Cl2   S    
C100  H32   S    
C105  C109  A    
C54   C55   A    
C34   C43   S    
C24   C28   A    
C133  C134  S    
C86   H26   S    
C111  Cl13  S    
C15   C31   S    
O32   C132  S    
C136  H90   S    
C18   O15   A    
C123  H60   S    
C15   O7    A    
C71   C72   A    
C57   C58   A    
C64   C65   A    
C26   H42   S    
C100  C101  A    
C42   H7    S    
C11   Cl14  S    
C10   C11   A    
C17   O11   A    
C117  H45   S    
C123  H59   S    
C126  C127  S    
C2    C23   S    
C135  H87   S    
C122  H58   S    
C16   O10   A    
C55   C56   A    
C101  C102  A    
C41   C42   A    
C35   C36   A    
C132  H80   S    
Cr5   O9    S    
C77   C78   A    
C121  C122  S    
Cr6   O10   S    
C112  H39   S    
C46   C49   A    
C26   C27   A    
C118  H48   S    
C25   H17   S    
O29   C123  S    
C116  H38   S    
C78   H20   S    
C145  H111  S    
C128  H70   S    
C62   C89   S    
C138  C139  S    
C73   O4    A    
C146  H113  S    
C19   O17   A    
Cr5   O16   S    
Cr4   O6    S    
Cr6   O11   S    
C135  C136  S    
C143  H106  S    
C47   H3    S    
C70   C71   A    
Cr2   O26   S    
C97   C102  A    
C145  C146  S    
C22   C28   S    
C134  H84   S    
C74   C82   S    
C79   C88   S    
C141  H102  S    
C8    O33   S    
C142  C143  S    
C143  H107  S    
C53   H16   S    
C18   C90   S    
C103  Cl11  S    
C72   C74   A    
C140  H98   S    
C85   C89   A    
C86   C87   A    
C75   H25   S    
C58   C59   A    
C127  C128  S    
C1    C69   S    
C67   C68   A    
C60   C61   A    
C37   C43   A    
O35   C141  S    
C131  H77   S    
Cr1   O1    S    
C14   C51   S    
C21   C84   A    
Cr2   O2    S    
O31   C129  S    
C97   H29   S    
C90   C96   A    
C20   O13   A    
C22   N1    A    
C83   C85   A    
C45   H9    S    
C42   C43   A    
N1    N2    A    
C44   C45   A    
C113  C114  A    
C25   C30   A    
C46   C47   A    
C13   H30   S    
C86   C89   A    
C93   C102  S    
C1    O12   A    
C73   C109  S    
C5    H40   S    
Cr3   O4    S    
Cr3   O3    S    
C46   H11   S    
Cr2   O20   S    
C90   C91   A    
C65   C69   A    
C96   H27   S    
C137  H92   S    
C92   C93   A    
C45   C49   A    
C23   N2    A    
C134  H86   S    
C103  C104  A    
C117  H46   S    
C110  C115  A    
C39   C48   S    
C132  C133  S    
C144  H108  S    
C72   Cl7   S    
C93   C94   A    
N3    N4    A    
C9    C14   A    
C122  H57   S    
C81   C82   A    
C119  H49   S    
C37   C38   A    
C115  H35   S    
C139  H96   S    
C51   O26   A    
C104  C109  A    
C24   H36   S    
C130  H76   S    
C66   C69   A    
C61   Cl4   S    
C2    C13   A    
C127  H68   S    
Cr1   O24   S    
C8    C9    A    
C128  H71   S    
O27   C117  S    
C18   O14   A    
C129  C130  S    
C112  C113  A    
C140  H100  S    
C74   C75   A    
C24   C25   A    
C78   C79   A    
C136  H89   S    
C33   H6    S    
C87   H19   S    
C59   C68   S    
C47   C48   A    
C80   H21   S    
C127  H69   S    
C33   C34   A    
C29   O22   A    
C103  C108  A    
Cr2   O5    S    
C81   H23   S    
C126  H67   S    
C70   C76   A    
C135  H88   S    
C15   O8    A    
C56   H13   S    
C119  H51   S    
C9    O34   S    
C139  C140  S    
C80   C81   A    
C120  C121  S    
C17   C50   S    
C11   C12   A    
C17   O6    A    
C106  H22   S    
Cr5   O8    S    
C121  H55   S    
C123  C124  S    
C62   O2    A    
O34   C138  S    
C7    C113  S    
C98   Cl10  S    
C138  H95   S    
C146  H112  S    
Cr4   O13   S    
C126  H66   S    
C133  H82   S    
Cr5   O15   S    
C79   C80   A    
C105  H34   S    
C144  C145  S    
C27   C28   A    
C19   C70   S    
C118  C119  S    
C101  O32   S    
C60   Cl3   S    
C35   O27   S    
C95   H1    S    
C37   H5    S    
