data_mof_unit_1090.cif
_audit_creation_date              2013-03-05T15:51:40-0500
_audit_creation_method            fapswitch 2.2
_symmetry_space_group_name_H-M    P1
_symmetry_Int_Tables_number       1
_space_group_crystal_system       triclinic
_cell_length_a                    10.628417
_cell_length_b                    10.869651
_cell_length_c                    9.636604
_cell_angle_alpha                 92.045418
_cell_angle_beta                  89.985867
_cell_angle_gamma                 93.316344
_cell_volume                      1110.71536326

loop_
_atom_site_label
_atom_site_type_symbol
_atom_site_description
_atom_site_fract_x
_atom_site_fract_y
_atom_site_fract_z
_atom_type_partial_charge
O1    O     O_R   0.499990 0.319640 0.618810 -0.589491
O2    O     O_R   0.500000 0.319660 0.381240 -0.544173
C1    C     C_R   0.509382 0.263463 0.498283 0.811182
O3    O     O_R   0.316850 0.499960 0.618770 -0.593162
O4    O     O_R   0.316860 0.499980 0.381190 -0.524065
C2    C     C_R   0.259607 0.499491 0.500145 0.823135
Cu1   Cu    Cu3+1 0.499990 0.499990 0.640660 0.943334
Cu2   Cu    Cu3+1 0.500010 0.500010 0.359340 1.006793
O5    O     O_R   0.500000 0.680340 0.618760 -0.611594
O6    O     O_R   0.500010 0.680360 0.381190 -0.586671
O7    O     O_R   0.683140 0.500020 0.618810 -0.585584
O8    O     O_R   0.683150 0.500040 0.381230 -0.617959
C3    C     C_R   0.495575 0.737859 0.503380 0.762033
C4    C     C_R   0.740459 0.500498 0.499875 0.788839
C5    C     C_3   0.040960 0.499900 0.633131 -0.198667
C6    C     C_3   0.953399 0.400827 0.559527 0.529994
H1    H     H_    0.076376 0.498849 0.741439 0.164773
C7    C     C_3   0.877540 0.500944 0.499148 -0.060991
C8    C     C_3   0.964539 0.601676 0.570534 -0.257546
C9    C     C_3   0.048895 0.601823 0.439282 -0.131211
C10   C     C_3   0.959624 0.501167 0.367729 -0.144121
C11   C     C_3   0.035958 0.398565 0.428695 -0.193756
C12   C     C_3   0.122726 0.499553 0.500914 -0.059180
H2    H     H_    0.932051 0.684702 0.627213 0.144463
H3    H     H_    0.092008 0.684676 0.389642 0.159818
H4    H     H_    0.923874 0.502914 0.259597 0.179202
H5    H     H_    0.067736 0.315294 0.371962 0.183247
H6    H     H_    0.447756 0.100643 0.289251 0.236580
C13   C     C_R   0.627742 0.137283 0.726495 -0.198778
H7    H     H_    0.672450 0.227819 0.712875 0.225000
C14   C     C_R   0.635169 0.088009 0.856854 -0.216831
H8    H     H_    0.681393 0.142850 0.940088 0.192098
C15   C     C_R   0.574603 0.973608 0.881610 0.402227
C16   C     C_R   0.523069 0.901956 0.769261 -0.266421
H9    H     H_    0.473259 0.816455 0.793100 0.217111
C17   C     C_R   0.526361 0.946213 0.632842 0.031563
C18   C     C_R   0.560574 0.072192 0.617847 0.097348
C19   C     C_R   0.522136 0.130168 0.497086 -0.122713
C20   C     C_R   0.476227 0.058653 0.383084 -0.119528
H10   H     H_    0.431828 0.878792 0.297846 0.233484
C21   C     C_R   0.465223 0.931621 0.388871 -0.151566
C22   C     C_R   0.491936 0.873095 0.511442 -0.131935
C23   C     C_R   0.678157 0.655444 0.148742 -0.201983
H11   H     H_    0.677173 0.664676 0.257603 0.189825
C24   C     C_R   0.769803 0.729710 0.079474 0.561615
C25   C     C_R   0.767381 0.727007 0.935797 -0.236715
H12   H     H_    0.834559 0.785380 0.879913 0.162848
C26   C     C_R   0.675914 0.655667 0.862158 -0.225676
H13   H     H_    0.675828 0.669759 0.753612 0.209003
C27   C     C_R   0.587587 0.575629 0.928207 0.214366
C28   C     C_R   0.588321 0.575290 0.077186 0.121227
N1    N     N_R   0.501210 0.501210 0.147910 -0.248538
C29   C     C_R   0.413745 0.430425 0.069843 0.439488
H14   H     H_    0.345421 0.372735 0.864299 0.162374
C30   C     C_R   0.415227 0.429862 0.922404 -0.104840
N2    N     N_R   0.501250 0.501290 0.852040 -0.221087
O9    O     O_3   0.893772 0.297106 0.620883 -0.602261
C31   C     C_3   0.985818 0.220866 0.669259 -0.319997
H15   H     H_    0.045721 0.269288 0.751140 0.178971
H16   H     H_    0.045049 0.186308 0.582766 0.158184
H17   H     H_    0.937339 0.139476 0.716452 0.200838
N3    N     N_R   0.563142 0.931296 0.020551 0.109112
O10   O     O_R   0.626808 0.988160 0.121291 -0.400600
O11   O     O_R   0.483889 0.839861 0.048561 -0.416133
N4    N     N_R   0.315250 0.359651 0.135536 0.130663
O12   O     O_R   0.202016 0.399071 0.134372 -0.387632
O13   O     O_R   0.328646 0.243161 0.152787 -0.394152
O14   O     O_3   0.864687 0.806061 0.143662 -0.562364
C32   C     C_3   0.843037 0.834180 0.285470 -0.271626
H18   H     H_    0.856498 0.752910 0.349055 0.127724
H19   H     H_    0.748350 0.870176 0.303189 0.203974
H20   H     H_    0.913668 0.907636 0.321097 0.197110

loop_
_geom_bond_atom_site_label_1
_geom_bond_atom_site_label_2
_geom_bond_distance
_ccdc_geom_bond_type
C30   N2    1.361481 A    
C7    C10   1.537661 S    
C21   C22   1.398275 A    
C4    C7    1.456702 S    
C17   C22   1.426313 A    
C8    C9    1.550178 S    
C10   H4    1.110401 S    
Cu1   Cu2   2.710977 S    
C20   C21   1.382093 A    
C24   C25   1.384028 A    
C5    C8    1.548960 S    
C13   H7    1.080070 S    
C17   C18   1.408795 A    
C16   H9    1.074710 S    
O4    C2    1.297723 A    
O7    C4    1.297884 A    
C9    H3    1.110281 S    
C31   H16   1.112158 S    
C5    C6    1.535821 S    
C5    H1    1.110272 S    
C7    C8    1.535084 S    
C32   H19   1.111633 S    
O5    C3    1.297078 A    
N3    O11   1.300900 A    
H14   C30   1.082434 S    
C1    C19   1.462622 S    
C15   N3    1.434038 S    
N4    O13   1.298868 A    
C14   C15   1.395025 A    
C29   N4    1.424686 S    
Cu2   N1    2.038006 S    
C31   H17   1.109426 S    
C5    C12   1.542116 S    
C10   C11   1.548824 S    
Cu1   N2    2.036573 S    
C24   O14   1.398284 S    
O3    Cu1   1.957918 S    
C3    C22   1.471986 S    
C15   C16   1.403385 A    
C29   C30   1.420691 A    
C25   C26   1.387008 A    
C28   N1    1.386614 A    
O3    C2    1.294802 A    
O14   C32   1.411380 S    
H6    C20   1.078468 S    
C31   H15   1.112131 S    
C27   N2    1.380550 A    
O1    C1    1.299309 A    
C32   H20   1.109110 S    
Cu1   O7    1.957879 S    
C23   H11   1.050368 S    
C18   C19   1.414448 A    
C14   H8    1.082692 S    
C9    C12   1.533811 S    
Cu2   O8    1.957917 S    
N3    O10   1.300557 A    
C27   C28   1.435815 A    
C23   C24   1.411801 A    
Cu2   O6    1.964131 S    
H10   C21   1.079704 S    
O8    C4    1.295309 A    
C11   H5    1.110032 S    
N1    C29   1.377819 A    
Cu1   O5    1.979136 S    
C25   H12   1.083603 S    
C26   H13   1.062579 S    
C6    C11   1.536186 S    
O1    Cu1   1.964131 S    
O2    Cu2   1.979139 S    
O6    C3    1.315368 A    
O4    Cu2   1.957880 S    
C8    H2    1.110295 S    
C13   C14   1.387128 A    
C23   C28   1.416831 A    
O9    C31   1.408094 S    
C19   C20   1.394512 A    
C2    C12   1.454883 S    
C26   C27   1.409972 A    
O2    C1    1.308248 A    
C16   C17   1.415633 A    
C6    O9    1.409612 S    
C32   H18   1.108871 S    
C9    C10   1.548907 S    
C6    C7    1.523088 S    
N4    O12   1.300822 A    
C13   C18   1.412609 A    
C11   C12   1.538968 S    
