data_mof_unit_1693.cif
_audit_creation_date              2013-03-05T15:49:44-0500
_audit_creation_method            fapswitch 2.2
_symmetry_space_group_name_H-M    P1
_symmetry_Int_Tables_number       1
_space_group_crystal_system       triclinic
_cell_length_a                    13.503181
_cell_length_b                    13.499926
_cell_length_c                    27.566599
_cell_angle_alpha                 90.72219
_cell_angle_beta                  90.142476
_cell_angle_gamma                 59.950117
_cell_volume                      4349.34678775

loop_
_atom_site_label
_atom_site_type_symbol
_atom_site_description
_atom_site_fract_x
_atom_site_fract_y
_atom_site_fract_z
_atom_type_partial_charge
O1    O     O_R   0.301780 0.195490 0.553940 -0.497402
O2    O     O_R   0.522450 0.158840 0.550250 -0.493657
C1    C     C_R   0.620389 0.101354 0.569845 0.547541
O3    O     O_R   0.694460 0.003360 0.553820 -0.494181
O4    O     O_R   0.657750 0.819520 0.549120 -0.483878
C2    C     C_R   0.599820 0.779246 0.568395 0.548549
O5    O     O_R   0.501990 0.803120 0.552700 -0.497243
O6    O     O_R   0.318230 0.023430 0.549370 -0.486185
C3    C     C_R   0.277713 0.121844 0.569343 0.550579
O7    O     O_R   0.302950 0.194150 0.446980 -0.517381
O8    O     O_R   0.523540 0.157600 0.451100 -0.509313
C4    C     C_R   0.621562 0.100132 0.431485 0.540052
O9    O     O_R   0.695630 0.002030 0.446860 -0.512393
O10   O     O_R   0.658840 0.818280 0.449970 -0.496631
C5    C     C_R   0.598298 0.782580 0.428875 0.537676
O11   O     O_R   0.503160 0.801780 0.445740 -0.514532
O12   O     O_R   0.319320 0.022190 0.450230 -0.509903
C6    C     C_R   0.280495 0.119679 0.430566 0.538094
Cr1   Cr    Cr6+3 0.417550 0.169090 0.500530 1.038482
Cr2   Cr    Cr6+3 0.669180 0.913420 0.499920 1.054472
Cr3   Cr    Cr6+3 0.413260 0.917540 0.499520 1.043075
O13   O     O_3   0.499990 0.000010 0.499990 -0.260636
C7    C     C_3   0.772874 0.643530 0.739676 0.248674
C8    C     C_3   0.706199 0.737985 0.777834 -0.097369
H1    H     H_    0.734390 0.794795 0.794725 0.122745
H2    H     H_    0.531350 0.866926 0.739221 0.127207
C9    C     C_1   0.697308 0.607314 0.898746 0.001258
C10   C     C_1   0.631637 0.731376 0.615734 0.027427
C11   C     C_3   0.750708 0.557888 0.766966 -0.105631
C12   C     C_3   0.680947 0.653547 0.804544 0.013148
C13   C     C_3   0.639957 0.597675 0.736790 -0.132260
C14   C     C_3   0.664967 0.681840 0.709645 0.041403
C15   C     C_3   0.570642 0.692420 0.775246 -0.094681
C16   C     C_3   0.595677 0.776909 0.747593 -0.133731
C17   C     C_1   0.688825 0.633257 0.856727 -0.037667
C18   C     C_1   0.650359 0.703703 0.657551 0.014148
H3    H     H_    0.486562 0.713079 0.790763 0.157091
H4    H     H_    0.612709 0.540282 0.719721 0.123403
H5    H     H_    0.815848 0.468080 0.775229 0.109067
C19   C     C_3   0.063408 0.231940 0.736591 -0.112297
C20   C     C_3   0.085042 0.130467 0.769370 -0.092997
H6    H     H_    0.021192 0.104810 0.778783 0.124555
H7    H     H_    0.981694 0.290295 0.718170 0.126745
C21   C     C_1   0.097554 0.199588 0.900252 0.003803
C22   C     C_1   0.229331 0.138439 0.616980 0.015464
C23   C     C_3   0.125296 0.268759 0.773860 -0.093477
C24   C     C_3   0.147514 0.167128 0.805841 0.022836
C25   C     C_3   0.240886 0.191472 0.747804 -0.116984
C26   C     C_3   0.178614 0.154846 0.711194 0.057029
C27   C     C_3   0.262845 0.089993 0.780553 -0.097369
C28   C     C_3   0.200675 0.053790 0.743273 0.117098
C29   C     C_1   0.125195 0.180251 0.858158 -0.041863
C30   C     C_1   0.201202 0.147576 0.658959 -0.009674
H8    H     H_    0.344599 0.031488 0.798913 0.118527
H9    H     H_    0.304881 0.216971 0.738427 0.120050
H10   H     H_    0.094385 0.357463 0.787172 0.169479
C31   C     C_3   0.596676 0.281319 0.740524 -0.097189
C32   C     C_3   0.550912 0.230245 0.778588 -0.098259
H11   H     H_    0.463721 0.274090 0.794728 0.120039
H12   H     H_    0.547475 0.367507 0.724311 0.120414
H13   H     H_    0.562515 0.066054 0.740510 0.103643
C33   C     C_1   0.691608 0.206476 0.901392 -0.003595
C34   C     C_1   0.635722 0.133617 0.617745 0.000538
C35   C     C_3   0.709015 0.236634 0.769709 -0.108060
C36   C     C_3   0.663058 0.185308 0.806916 0.047109
C37   C     C_3   0.763336 0.122400 0.740632 -0.093617
C38   C     C_3   0.651281 0.167269 0.712247 0.049872
C39   C     C_3   0.717595 0.071351 0.778572 -0.090998
C40   C     C_3   0.605314 0.115959 0.749452 -0.102714
C41   C     C_1   0.674640 0.195663 0.859270 -0.047978
C42   C     C_1   0.644200 0.152544 0.659898 -0.041770
H14   H     H_    0.766870 0.985099 0.794727 0.124366
H15   H     H_    0.850586 0.078508 0.724538 0.131341
H16   H     H_    0.751863 0.286501 0.778637 0.103076
C43   C     C_R   0.615059 0.760581 0.376987 0.034076
C44   C     C_R   0.723197 0.689579 0.356812 -0.116050
C45   C     C_R   0.736405 0.681733 0.306498 -0.091287
C46   C     C_R   0.642387 0.747817 0.276141 0.022733
C47   C     C_R   0.535855 0.823498 0.297029 -0.123036
C48   C     C_R   0.521973 0.828232 0.346856 -0.113700
C49   C     C_R   0.561314 0.728650 0.197921 -0.094652
C50   C     C_R   0.576693 0.688481 0.150486 -0.080741
C51   C     C_R   0.770549 0.655072 0.151228 -0.113740
C52   C     C_R   0.754215 0.697961 0.198562 -0.090121
C53   C     C_R   0.651752 0.728702 0.223212 0.026511
C54   C     C_R   0.683675 0.644479 0.127915 0.013226
H17   H     H_    0.796411 0.639872 0.379825 0.133828
H18   H     H_    0.481114 0.751435 0.215642 0.130371
H19   H     H_    0.507202 0.684090 0.132886 0.193089
H20   H     H_    0.819337 0.622082 0.291533 0.198656
H21   H     H_    0.823645 0.701480 0.216656 0.145182
H22   H     H_    0.853270 0.623839 0.134155 0.143180
H23   H     H_    0.462686 0.878493 0.274908 0.109383
H24   H     H_    0.438813 0.888096 0.362010 0.134022
C55   C     C_R   0.230388 0.138325 0.382269 0.022663
C56   C     C_R   0.189060 0.069163 0.363002 -0.135996
C57   C     C_R   0.156175 0.079934 0.314389 -0.109272
C58   C     C_R   0.166459 0.158507 0.285113 0.063722
C59   C     C_R   0.210788 0.224579 0.304190 -0.065426
C60   C     C_R   0.239673 0.216761 0.352474 -0.108529
C61   C     C_R   0.057695 0.288350 0.218118 0.216173
C62   C     C_R   0.041986 0.307100 0.168792 -0.142667
C63   C     C_R   0.160985 0.102640 0.151555 0.196229
C64   C     C_R   0.179389 0.084195 0.201557 -0.151590
C65   C     C_R   0.129289 0.176264 0.234635 -0.033046
C66   C     C_R   0.091508 0.216039 0.135364 -0.022872
H25   H     H_    0.183565 0.006514 0.385240 0.125329
H26   H     H_    0.984393 0.393495 0.156688 0.166204
H27   H     H_    0.122676 0.027859 0.299706 0.116090
H28   H     H_    0.236821 0.998815 0.214675 0.146754
H29   H     H_    0.222084 0.283392 0.281619 0.138105
H30   H     H_    0.273754 0.269354 0.365841 0.127570
C67   C     C_R   0.637332 0.137969 0.384197 0.026162
C68   C     C_R   0.539904 0.218764 0.359228 -0.122495
C69   C     C_R   0.545730 0.234747 0.310131 -0.119401
C70   C     C_R   0.650245 0.174138 0.285371 0.040525
C71   C     C_R   0.749984 0.100768 0.311270 -0.104477
C72   C     C_R   0.743280 0.081494 0.360341 -0.118403
C73   C     C_R   0.729702 0.091861 0.203837 -0.123384
C74   C     C_R   0.741929 0.106024 0.154930 -0.133313
C75   C     C_R   0.590507 0.305053 0.161113 0.083196
C76   C     C_R   0.582277 0.290941 0.210514 -0.088763
C77   C     C_R   0.654349 0.185846 0.232575 0.013096
C78   C     C_R   0.677841 0.214070 0.133596 0.027700
H31   H     H_    0.456828 0.263821 0.376671 0.130459
H32   H     H_    0.781984 0.008068 0.219379 0.117428
H33   H     H_    0.806450 0.033299 0.134444 0.150274
H34   H     H_    0.466943 0.290530 0.291370 0.108178
H35   H     H_    0.521509 0.364147 0.231810 0.133372
H36   H     H_    0.832548 0.055856 0.293377 0.113252
H37   H     H_    0.819606 0.019411 0.379027 0.131472
O14   O     O_R   0.819250 0.149410 0.965240 -0.504300
O15   O     O_R   0.006940 0.180310 0.968270 -0.482582
C79   C     C_R   0.049893 0.234671 0.947978 0.561303
O16   O     O_R   0.028420 0.332670 0.963010 -0.500306
O17   O     O_R   0.810130 0.520390 0.966030 -0.495677
C80   C     C_R   0.711909 0.561842 0.946478 0.546314
O18   O     O_R   0.636050 0.541380 0.962520 -0.495769
O19   O     O_R   0.666480 0.323610 0.968170 -0.491571
C81   C     C_R   0.722549 0.223974 0.949134 0.542596
O20   O     O_R   0.817280 0.156800 0.072180 -0.517776
O21   O     O_R   0.005110 0.187160 0.067410 -0.456703
C82   C     C_R   0.048286 0.243592 0.086067 0.594757
O22   O     O_R   0.026450 0.340060 0.069950 -0.518461
O23   O     O_R   0.808300 0.527240 0.065170 -0.512484
C83   C     C_R   0.708478 0.573571 0.084002 0.545528
O24   O     O_R   0.634070 0.548770 0.069460 -0.484979
O25   O     O_R   0.664650 0.330470 0.067300 -0.466428
C84   C     C_R   0.718731 0.232892 0.087177 0.549460
Cr4   Cr    Cr6+3 0.909770 0.175810 0.018240 1.089462
Cr5   Cr    Cr6+3 0.913300 0.427650 0.016090 1.047411
Cr6   Cr    Cr6+3 0.657770 0.431010 0.016900 1.082597
O26   O     O_3   0.826940 0.344820 0.017080 -0.273819
N1    N     N_R   0.884829 0.615539 0.720933 0.078409
O27   O     O_R   0.970097 0.584410 0.750595 -0.347458
O28   O     O_R   0.900419 0.621200 0.674752 -0.323356
N2    N     N_R   0.000521 0.384136 0.250988 0.068865
O29   O     O_R   0.991478 0.481878 0.240254 -0.400267
O30   O     O_R   0.952281 0.375946 0.290372 -0.342020
N3    N     N_R   0.215784 0.007103 0.118167 0.088492
O31   O     O_R   0.243074 0.020899 0.074537 -0.322777
O32   O     O_R   0.249661 0.903730 0.132837 -0.343740
I1    I     I_    0.466714 0.467670 0.133953 -0.318794
I2    I     I_    0.260484 0.882520 0.718471 -0.407739

loop_
_geom_bond_atom_site_label_1
_geom_bond_atom_site_label_2
_geom_bond_distance
_ccdc_geom_bond_type
C25   H9    1.110561 S    
C5    C43   1.452247 S    
C78   C84   1.469371 S    
C3    C22   1.432386 S    
C61   C62   1.382541 A    
C70   C77   1.470098 S    
O14   Cr4   2.042041 S    
C20   H6    1.110456 S    
C37   C39   1.548537 S    
C55   C56   1.404693 A    
C49   C50   1.384833 A    
C31   C32   1.551285 S    
C74   H33   1.083368 S    
O20   C84   1.272773 A    
C66   C82   1.455028 S    
O4    Cr2   1.926282 S    
C45   C46   1.409658 A    
C19   C23   1.549137 S    
C51   H22   1.083007 S    
O8    Cr1   1.926440 S    
C9    C80   1.430002 S    
C50   H19   1.082646 S    
C12   C17   1.461382 S    
C14   C18   1.462611 S    
C82   O22   1.268755 A    
C47   H23   1.083056 S    
O22   Cr5   2.039771 S    
O2    C1    1.273637 A    
O23   C83   1.276137 A    
O4    C2    1.274795 A    
O16   Cr5   2.041911 S    
C63   N3    1.440756 S    
C19   C26   1.535881 S    
C75   I1    2.129372 S    
O19   Cr6   1.923914 S    
C70   C71   1.407727 A    
C33   C41   1.204145 T    
C75   C78   1.416003 A    
C72   H37   1.083134 S    
C14   C16   1.544434 S    
H2    C16   1.110612 S    
C19   H7    1.110274 S    
C2    C10   1.430234 S    
C51   C52   1.393184 A    
O6    C3    1.273853 A    
C26   C28   1.534284 S    
Cr4   O26   1.975774 S    
C7    C8    1.537590 S    
C13   C15   1.551642 S    
C62   H26   1.084697 S    
C52   H21   1.082438 S    
C43   C48   1.402919 A    
C76   H35   1.081778 S    
N1    O28   1.300254 A    
O9    Cr2   2.042682 S    
C21   C29   1.204524 T    
C25   C27   1.550075 S    
C37   C38   1.535183 S    
C61   N2    1.436420 S    
N2    O30   1.301516 A    
Cr3   O13   1.979048 S    
C61   C65   1.407728 A    
C6    C55   1.458461 S    
C31   C38   1.535411 S    
C54   C83   1.464780 S    
C64   C65   1.402281 A    
O20   Cr4   2.043645 S    
C57   C58   1.401937 A    
C24   C27   1.535756 S    
C8    C12   1.539315 S    
C44   C45   1.394788 A    
C21   C79   1.432720 S    
C23   C25   1.548040 S    
C45   H20   1.078648 S    
O1    Cr1   2.044212 S    
C83   O24   1.270375 A    
O10   Cr2   1.923329 S    
Cr1   O13   1.975851 S    
O1    C3    1.268570 A    
C8    H1    1.110142 S    
C68   H31   1.082390 S    
C55   C60   1.402481 A    
C39   C40   1.548381 S    
C31   H12   1.110144 S    
C9    C17   1.202853 T    
C32   H11   1.110174 S    
C50   C54   1.400925 A    
C37   H15   1.110308 S    
C8    C16   1.554918 S    
C69   H34   1.082175 S    
C47   C48   1.383092 A    
N2    O29   1.300725 A    
C38   C40   1.539039 S    
N3    O32   1.301634 A    
C24   C29   1.464374 S    
C43   C44   1.396101 A    
C11   C12   1.543026 S    
C57   H27   1.083069 S    
C32   C36   1.535266 S    
C13   C14   1.540131 S    
O7    Cr1   2.040873 S    
C39   H14   1.110200 S    
C36   C39   1.535403 S    
C59   H29   1.083973 S    
C56   C57   1.396947 A    
C11   H5    1.110588 S    
O12   C6    1.275285 A    
C20   C24   1.539070 S    
C28   I2    2.135050 S    
C27   C28   1.547159 S    
C27   H8    1.110281 S    
C52   C53   1.403837 A    
C73   C74   1.385880 A    
C71   H36   1.082630 S    
C58   C65   1.459469 S    
C44   H17   1.083193 S    
N1    O27   1.300123 A    
C75   C76   1.389856 A    
O23   Cr5   1.924300 S    
C46   C53   1.473177 S    
C19   C20   1.551620 S    
C56   H25   1.082940 S    
C34   C42   1.204093 T    
C60   H30   1.082343 S    
C73   C77   1.399449 A    
O15   C79   1.275192 A    
C48   H24   1.083305 S    
C1    O3    1.268044 A    
C7    C11   1.536845 S    
O17   Cr5   1.923488 S    
C31   C35   1.549814 S    
C15   H3    1.109989 S    
C67   C68   1.404113 A    
H13   C40   1.110715 S    
C23   C24   1.538371 S    
C25   C26   1.539356 S    
C12   C15   1.538854 S    
O2    Cr1   1.924312 S    
C46   C47   1.400758 A    
O15   Cr4   1.927108 S    
O25   Cr6   1.923999 S    
Cr2   O13   1.977680 S    
O17   C80   1.274146 A    
O6    Cr3   1.923707 S    
O19   C81   1.273620 A    
O11   Cr3   2.040671 S    
C68   C69   1.381807 A    
C2    O5    1.269024 A    
C1    C34   1.431998 S    
O14   C81   1.267845 A    
C80   O18   1.268806 A    
C79   O16   1.268330 A    
C13   H4    1.110199 S    
C32   C40   1.549763 S    
O18   Cr6   2.042000 S    
C7    C14   1.525112 S    
O21   Cr4   1.923995 S    
O24   Cr6   2.040525 S    
C76   C77   1.402093 A    
C11   C13   1.554857 S    
O5    Cr3   2.040954 S    
C59   C60   1.376464 A    
C35   C36   1.539144 S    
C64   H28   1.083808 S    
C69   C70   1.400482 A    
O7    C6    1.265132 A    
C26   C30   1.464494 S    
C15   C16   1.551021 S    
C62   C66   1.399562 A    
C63   C66   1.414111 A    
C38   C42   1.463632 S    
O25   C84   1.273411 A    
Cr5   O26   1.979355 S    
N3    O31   1.301382 A    
O12   Cr3   1.922559 S    
C49   H18   1.082252 S    
C22   C30   1.204288 T    
C67   C72   1.400044 A    
O3    Cr2   2.040976 S    
C73   H32   1.082810 S    
C74   C78   1.406147 A    
C4    C67   1.460368 S    
C51   C54   1.404120 A    
C4    O9    1.272538 A    
C10   C18   1.202996 T    
C58   C59   1.397077 A    
C7    N1    1.456701 S    
C23   H10   1.109949 S    
C63   C64   1.403094 A    
O21   C82   1.272104 A    
C35   H16   1.110733 S    
O10   C5    1.274331 A    
Cr6   O26   1.977422 S    
C33   C81   1.432023 S    
C36   C41   1.463759 S    
C71   C72   1.392406 A    
C20   C28   1.547630 S    
C49   C53   1.404993 A    
C5    O11   1.264957 A    
O8    C4    1.269161 A    
C35   C37   1.548430 S    
