data_mof_unit_3053.cif
_audit_creation_date              2012-12-10T17:35:00-0500
_audit_creation_method            fapswitch 2.2
_symmetry_space_group_name_H-M    P1
_symmetry_Int_Tables_number       1
_space_group_crystal_system       triclinic
_cell_length_a                    11.981917
_cell_length_b                    12.877313
_cell_length_c                    15.747982
_cell_angle_alpha                 90.102628
_cell_angle_beta                  86.605842
_cell_angle_gamma                 93.604385
_cell_volume                      2420.76847405

loop_
_atom_site_label
_atom_site_type_symbol
_atom_type_description
_atom_site_fract_x
_atom_site_fract_y
_atom_site_fract_z
_atom_type_partial_charge
C1    C     C_R   0.522519 0.700630 0.499538 0.928660
C2    C     C_3   0.383916 0.474789 0.053828 0.270809
C3    C     C_3   0.505855 0.497542 0.082396 0.202739
C4    C     C_3   0.582961 0.410535 0.045089 0.452361
C5    C     C_3   0.584661 0.417694 0.945248 -0.513342
C6    C     C_1   0.501162 0.498476 0.174247 0.019551
C7    C     C_1   0.503320 0.500177 0.825633 0.054381
C8    C     C_1   0.501889 0.500124 0.750450 -0.162753
C9    C     C_R   0.463863 0.188288 0.503042 -0.049854
C10   C     C_R   0.537035 0.812395 0.502048 -0.102893
C11   C     C_R   0.643058 0.971960 0.532915 -0.330746
C12   C     C_R   0.500505 0.500056 0.661701 0.904914
C13   C     C_R   0.637580 0.863723 0.526386 0.460890
C14   C     C_R   0.444820 0.867852 0.483818 -0.363841
C15   C     C_R   0.449935 0.974313 0.491437 0.186392
C16   C     C_R   0.549823 0.026572 0.516038 0.136498
C17   C     C_R   0.555619 0.133230 0.522472 -0.247282
C18   C     C_R   0.363486 0.136813 0.480749 -0.203173
C19   C     C_R   0.356541 0.029321 0.474873 -0.188381
C20   C     C_R   0.953617 0.401330 0.421876 -0.328950
C21   C     C_R   0.837479 0.410956 0.429348 0.021607
C22   C     C_R   0.858785 0.542854 0.533558 -0.017055
C23   C     C_R   0.477686 0.299582 0.501841 0.875378
C24   C     C_R   0.976070 0.536011 0.528244 0.079853
C25   C     C_R   0.023930 0.464122 0.471624 0.092039
C26   C     C_R   0.141209 0.457169 0.466414 -0.040400
C27   C     C_R   0.162523 0.589246 0.570472 0.029250
C28   C     C_R   0.046387 0.598913 0.577898 -0.319560
C29   C     C_R   0.499553 0.499919 0.338317 0.900916
C30   C     C_3   0.385750 0.469162 0.955743 -0.571419
C31   C     C_3   0.546576 0.610287 0.949437 0.840348
C32   C     C_3   0.549292 0.606709 0.048415 -0.582119
C33   C     C_1   0.498998 0.499299 0.249570 -0.175292
C34   C     C_3   0.505042 0.500224 0.917115 0.165250
H1    H     H_    0.360390 0.388247 0.936428 0.181807
H2    H     H_    0.349427 0.398361 0.080599 0.160542
H3    H     H_    0.632602 0.173502 0.541197 0.160483
H4    H     H_    0.292145 0.179558 0.465667 0.156898
H5    H     H_    0.719305 0.013300 0.551734 0.137740
H6    H     H_    0.279338 0.989521 0.456375 0.140989
H7    H     H_    0.368022 0.828033 0.464267 0.183859
H8    H     H_    0.179625 0.402380 0.423313 0.124588
H9    H     H_    0.323004 0.519394 0.930577 0.207855
H10   H     H_    0.216775 0.637781 0.608734 0.140934
H11   H     H_    0.987978 0.345410 0.377704 0.146277
H12   H     H_    0.012025 0.654952 0.621963 0.156141
H13   H     H_    0.783234 0.362541 0.390987 0.136671
H14   H     H_    0.820368 0.597553 0.576734 0.163489
H15   H     H_    0.497490 0.667533 0.077824 0.226046
H16   H     H_    0.634675 0.626573 0.069494 0.167909
H17   H     H_    0.557808 0.340859 0.918056 0.181127
H18   H     H_    0.669063 0.436233 0.914994 0.197715
N1    N     N_R   0.207800 0.519340 0.515510 -0.102891
N2    N     N_R   0.792190 0.480660 0.484490 -0.106157
O1    O     O_R   0.421690 0.658830 0.504140 -0.641374
O2    O     O_R   0.609320 0.646410 0.494190 -0.559768
O3    O     O_R   0.406150 0.506210 0.627840 -0.619393
O4    O     O_R   0.593770 0.493790 0.617880 -0.612029
O5    O     O_R   0.390680 0.353590 0.505810 -0.627489
O6    O     O_R   0.578310 0.341170 0.495860 -0.632834
O7    O     O_R   0.406230 0.506210 0.382120 -0.609133
O8    O     O_R   0.593850 0.493790 0.372160 -0.624849
Zn1   Zn    Zn3+2 0.374720 0.508290 0.506640 0.951882
Zn2   Zn    Zn3+2 0.625280 0.491710 0.493360 0.972637
O9    O     O_3   0.314160 0.552456 0.084083 -0.779956
H19   H     H_    0.235711 0.524859 0.078269 0.334423
C35   C     C_3   0.703540 0.415275 0.082103 -0.407903
C36   C     C_3   0.802005 0.474698 0.031900 -0.394823
C37   C     C_3   0.903214 0.491737 0.086061 -0.871698
H20   H     H_    0.882318 0.541263 0.141885 0.267599
H21   H     H_    0.930116 0.415999 0.108503 0.260701
H22   H     H_    0.973927 0.531470 0.047538 0.256374
H23   H     H_    0.828769 0.428599 0.975428 0.227329
H24   H     H_    0.779020 0.551399 0.010198 0.267127
H25   H     H_    0.698890 0.445764 0.148014 0.209620
H26   H     H_    0.729802 0.334562 0.089149 0.205540
O10   O     O_3   0.727319 0.807332 0.545464 -0.764447
H27   H     H_    0.790152 0.855828 0.561529 0.326020
O11   O     O_3   0.655226 0.635427 0.913444 -0.786867
H28   H     H_    0.676352 0.708172 0.929990 0.350859
O12   O     O_3   0.476267 0.686988 0.923363 -0.763621
H29   H     H_    0.404103 0.679933 0.957628 0.345574
O13   O     O_3   0.529326 0.313680 0.070641 -0.801763
H30   H     H_    0.571062 0.257149 0.043099 0.335465

loop_
_geom_bond_atom_site_label_1
_geom_bond_atom_site_label_2
_ccdc_geom_bond_type
C22   H14   S    
C11   C13   A    
C3    C6    S    
O12   H29   S    
C7    C8    T    
C22   N2    A    
O10   H27   S    
C23   O5    A    
C28   H12   S    
C30   H1    S    
C1    O2    A    
C21   N2    A    
C20   C25   A    
C36   H24   S    
C15   C16   A    
C29   C33   S    
C37   H21   S    
C18   C19   A    
O7    Zn1   S    
O8    Zn2   S    
C36   C37   S    
C27   H10   S    
C31   C32   S    
C16   C17   A    
O1    Zn1   S    
O2    Zn2   S    
C5    H18   S    
C20   H11   S    
C12   O4    A    
C2    O9    S    
C37   H20   S    
C25   C26   A    
O3    Zn1   S    
C29   O7    A    
O4    Zn2   S    
C23   O6    A    
C13   O10   S    
C30   C34   S    
C35   C36   S    
C24   C25   A    
C10   C14   A    
C9    C23   S    
C36   H23   S    
C37   H22   S    
C15   C19   A    
C11   C16   A    
O13   H30   S    
C8    C12   S    
C5    C34   S    
C31   C34   S    
C17   H3    S    
C11   H5    S    
C32   H16   S    
C14   H7    S    
C12   O3    A    
C9    C17   A    
C7    C34   S    
C22   C24   A    
C30   H9    S    
C35   H25   S    
C3    C4    S    
C26   N1    A    
C26   H8    S    
C2    H2    S    
C29   O8    A    
C1    C10   S    
C24   C28   A    
C4    C5    S    
C10   C13   A    
C4    C35   S    
C27   N1    A    
C31   O11   S    
O5    Zn1   S    
C31   O12   S    
C6    C33   T    
O6    Zn2   S    
C2    C30   S    
C2    C3    S    
C18   H4    S    
N1    Zn1   S    
C4    O13   S    
N2    Zn2   S    
C1    O1    A    
C3    C32   S    
C32   H15   S    
C19   H6    S    
O11   H28   S    
C9    C18   A    
C20   C21   A    
O9    H19   S    
C27   C28   A    
C14   C15   A    
C5    H17   S    
C35   H26   S    
C21   H13   S    
