data_mof_unit_3292.cif
_audit_creation_date              2012-12-11T16:05:02-0500
_audit_creation_method            fapswitch 2.2
_symmetry_space_group_name_H-M    P1
_symmetry_Int_Tables_number       1
_space_group_crystal_system       triclinic
_cell_length_a                    10.583539
_cell_length_b                    10.610535
_cell_length_c                    16.858172
_cell_angle_alpha                 98.429399
_cell_angle_beta                  98.680324
_cell_angle_gamma                 61.598097
_cell_volume                      1640.07573513

loop_
_atom_site_label
_atom_site_type_symbol
_atom_type_description
_atom_site_fract_x
_atom_site_fract_y
_atom_site_fract_z
_atom_type_partial_charge
C1    C     C_R   0.350580 0.783747 0.402207 0.545193
C2    C     C_3   0.663124 0.353951 0.232362 -0.151114
C3    C     C_3   0.742879 0.391618 0.308833 -0.008203
C4    C     C_3   0.887811 0.267832 0.286308 -0.161588
C5    C     C_3   0.909785 0.372175 0.242284 -0.134450
C6    C     C_3   0.765092 0.495630 0.265383 0.247156
C7    C     C_3   0.687655 0.457924 0.188437 0.375497
C8    C     C_3   0.830919 0.334678 0.165666 0.036037
C9    C     C_3   0.434762 0.839843 0.226212 -0.021076
C10   C     C_3   0.381402 0.741866 0.253394 -0.041492
C11   C     C_3   0.328164 0.847365 0.327756 0.038550
C12   C     C_R   0.366691 0.343595 0.360011 0.545245
C13   C     C_3   0.382452 0.944588 0.302266 -0.115512
C14   C     C_3   0.232359 0.028094 0.256206 -0.181297
C15   C     C_3   0.179214 0.929452 0.283321 -0.134233
C16   C     C_3   0.232479 0.824222 0.208593 -0.080862
C17   C     C_3   0.285771 0.921953 0.182140 0.028553
C18   C     C_3   0.457107 0.253148 0.783444 -0.111953
C19   C     C_3   0.402584 0.404594 0.756531 -0.194767
C20   C     C_3   0.361383 0.349983 0.672782 0.053496
C21   C     C_3   0.415172 0.198918 0.699153 -0.144187
C22   C     C_3   0.261889 0.245134 0.721345 -0.131464
C23   C     C_R   0.704897 0.417078 0.390770 0.567539
C24   C     C_3   0.209865 0.395974 0.694618 0.411780
C25   C     C_3   0.249011 0.451137 0.779461 -0.080771
C26   C     C_3   0.304123 0.299283 0.805030 0.003099
C27   C     C_1   0.847452 0.328336 0.705703 -0.012620
C28   C     C_1   0.893845 0.294902 0.773100 -0.042884
C29   C     C_1   0.357952 0.764922 0.714577 -0.043289
C30   C     C_1   0.326598 0.811354 0.782183 -0.039021
C31   C     C_R   0.891533 0.310619 0.090567 0.586619
C32   C     C_R   0.292100 0.262280 0.122957 0.536615
C33   C     C_R   0.256042 0.960052 0.099388 0.550635
C34   C     C_R   0.379698 0.715479 0.631864 0.523261
C35   C     C_R   0.943094 0.275913 0.856046 0.537864
C36   C     C_R   0.281970 0.259105 0.877366 0.541381
C37   C     C_R   0.282648 0.879926 0.859797 0.557033
C38   C     C_R   0.402946 0.372798 0.601255 0.539270
C39   C     C_R   0.779400 0.376979 0.628641 0.569352
C40   C     C_1   0.326141 0.318380 0.277983 -0.056830
C41   C     C_1   0.306742 0.294096 0.207119 -0.063300
C42   C     C_3   0.810061 0.228865 0.208691 -0.162074
Cr1   Cr    Cr6+3 0.608340 0.611040 0.520430 1.096014
Cr2   Cr    Cr6+3 0.287650 0.601120 0.489350 1.091150
Cr3   Cr    Cr6+3 0.604040 0.287870 0.490280 1.038632
Cr4   Cr    Cr6+3 0.054020 0.052700 0.970850 1.030390
Cr5   Cr    Cr6+3 0.059230 0.375120 0.993390 1.056911
Cr6   Cr    Cr6+3 0.374950 0.061200 0.992340 1.048662
H1    H     H_    0.560573 0.348552 0.229884 0.134744
H2    H     H_    0.174545 0.145767 0.255112 0.097851
H3    H     H_    0.076340 0.959294 0.307982 0.140646
H4    H     H_    0.171639 0.773132 0.170044 0.160122
H5    H     H_    0.461836 0.469107 0.768948 0.113926
H6    H     H_    0.560156 0.194129 0.820634 0.169422
H7    H     H_    0.483866 0.095267 0.665935 0.161531
H8    H     H_    0.202701 0.180527 0.708838 0.110325
H9    H     H_    0.179518 0.553234 0.813586 0.153409
H10   H     H_    0.830598 0.118690 0.183760 0.153469
H11   H     H_    0.966662 0.198122 0.332008 0.150219
H12   H     H_    0.009595 0.382960 0.244841 0.137993
H13   H     H_    0.437745 0.623983 0.256033 0.134416
H14   H     H_    0.534723 0.808126 0.197881 0.225402
H15   H     H_    0.443656 0.993084 0.342792 0.167989
O1    O     O_R   0.751220 0.499230 0.435170 -0.431669
O2    O     O_R   0.297880 0.469080 0.560050 -0.446356
O3    O     O_R   0.489720 0.254590 0.564810 -0.513403
O4    O     O_R   0.725220 0.304230 0.585080 -0.516314
O5    O     O_3   0.500010 0.500010 0.500020 -0.341797
O6    O     O_R   0.171830 0.913880 0.057510 -0.496534
O7    O     O_R   0.940690 0.186050 0.054730 -0.524831
O8    O     O_R   0.920470 0.405720 0.075010 -0.484313
O9    O     O_R   0.196690 0.370460 0.084120 -0.474291
O10   O     O_R   0.412990 0.180750 0.091610 -0.488929
O11   O     O_R   0.366620 0.943130 0.065760 -0.484756
O12   O     O_R   0.477220 0.727600 0.436870 -0.492697
O13   O     O_R   0.160510 0.906330 0.879210 -0.501941
O14   O     O_R   0.930190 0.179050 0.889450 -0.484080
O15   O     O_R   0.909140 0.398170 0.896710 -0.487637
O16   O     O_R   0.186190 0.363460 0.918830 -0.496493
O17   O     O_R   0.401670 0.173200 0.913310 -0.496752
O18   O     O_R   0.356120 0.936130 0.900470 -0.498212
O19   O     O_3   0.162740 0.163010 0.985530 -0.348070
O20   O     O_R   0.258650 0.745120 0.411470 -0.508016
O21   O     O_R   0.297070 0.467240 0.395960 -0.475307
O22   O     O_R   0.488830 0.252610 0.387790 -0.513209
O23   O     O_R   0.724400 0.302390 0.420980 -0.494984
O24   O     O_R   0.752100 0.501210 0.612190 -0.456529
O25   O     O_R   0.478040 0.729440 0.600970 -0.493753
O26   O     O_R   0.259530 0.747110 0.588490 -0.487656
F1    F     F_    0.083826 0.469858 0.646710 -0.593887
Cl1   Cl    Cl    0.755699 0.664201 0.306531 -0.596580
F2    F     F_    0.589258 0.550324 0.133412 -0.625417

loop_
_geom_bond_atom_site_label_1
_geom_bond_atom_site_label_2
_ccdc_geom_bond_type
C18   C21   S    
C3    C23   S    
C2    C7    S    
C1    C11   S    
Cr5   O16   S    
Cr2   O20   S    
C42   H10   S    
Cr4   O13   S    
C7    C8    S    
C32   O9    A    
C25   H9    S    
C12   O22   A    
Cr1   O25   S    
C8    C42   S    
C5    C6    S    
C6    Cl1   S    
Cr6   O18   S    
C12   O21   A    
C18   C19   S    
Cr5   O19   S    
C9    C13   S    
Cr4   O6    S    
Cr4   O19   S    
C11   C15   S    
C31   O7    A    
C38   O3    A    
C28   C35   S    
C27   C39   S    
Cr1   O5    S    
C23   O23   A    
C18   C26   S    
Cr3   O4    S    
C32   C41   S    
C15   H3    S    
C9    C10   S    
C33   O6    A    
C3    C6    S    
C31   O8    A    
C21   C22   S    
C14   C17   S    
C37   O18   A    
Cr2   O2    S    
C17   C33   S    
Cr1   O1    S    
Cr1   O12   S    
C9    H14   S    
C1    O12   A    
Cr6   O11   S    
C24   C25   S    
C36   O17   A    
C32   O10   A    
C21   H7    S    
C16   C17   S    
C22   H8    S    
C25   C26   S    
C29   C34   S    
C35   O14   A    
C30   C37   S    
C12   C40   S    
Cr3   O22   S    
C29   C30   T    
C2    H1    S    
C5    C8    S    
C20   C38   S    
C13   H15   S    
C38   O2    A    
Cr3   O5    S    
C34   O25   A    
Cr5   O8    S    
C26   C36   S    
C23   O1    A    
C37   O13   A    
C22   C24   S    
Cr2   O5    S    
C10   H13   S    
C3    C4    S    
Cr3   O3    S    
C9    C17   S    
C40   C41   T    
C5    H12   S    
C8    C31   S    
C39   O4    A    
Cr6   O10   S    
C16   H4    S    
C4    C5    S    
Cr2   O21   S    
C36   O16   A    
C24   F1    S    
Cr4   O14   S    
C6    C7    S    
C1    O20   A    
C35   O15   A    
Cr1   O24   S    
Cr6   O17   S    
C19   C20   S    
C2    C3    S    
C34   O26   A    
C10   C16   S    
C11   C13   S    
C19   H5    S    
C14   H2    S    
C4    C42   S    
C2    C42   S    
C39   O24   A    
C7    F2    S    
C4    H11   S    
Cr6   O19   S    
Cr3   O23   S    
C19   C25   S    
Cr5   O9    S    
Cr4   O7    S    
C10   C11   S    
C18   H6    S    
C33   O11   A    
C20   C21   S    
C22   C26   S    
C27   C28   T    
C14   C15   S    
Cr5   O15   S    
C13   C14   S    
C20   C24   S    
Cr2   O26   S    
C15   C16   S    
