data_mof_unit_2468.cif
_audit_creation_date              2012-12-10T17:36:21-0500
_audit_creation_method            fapswitch 2.2
_symmetry_space_group_name_H-M    P1
_symmetry_Int_Tables_number       1
_space_group_crystal_system       triclinic
_cell_length_a                    12.425632
_cell_length_b                    12.993362
_cell_length_c                    15.927422
_cell_angle_alpha                 76.117635
_cell_angle_beta                  102.189884
_cell_angle_gamma                 117.143872
_cell_volume                      2205.99484169

loop_
_atom_site_label
_atom_site_type_symbol
_atom_type_description
_atom_site_fract_x
_atom_site_fract_y
_atom_site_fract_z
_atom_type_partial_charge
C1    C     C_R   0.854947 0.284122 0.508729 0.931087
C2    C     C_3   0.110202 0.488609 0.070536 -0.316266
C3    C     C_3   0.996753 0.508804 0.080816 -0.148386
C4    C     C_3   0.013172 0.635884 0.023743 -0.280851
C5    C     C_3   0.041235 0.639235 0.926633 0.092658
C6    C     C_1   0.998379 0.508170 0.174091 0.152428
C7    C     C_1   0.007045 0.505282 0.823358 0.161112
C8    C     C_1   0.004898 0.503209 0.748285 0.060511
C9    C     C_R   0.293932 0.000054 0.341775 -0.145856
C10   C     C_R   0.224306 0.838136 0.458784 -0.149050
C11   C     C_R   0.811147 0.070057 0.564176 -0.127082
C12   C     C_R   0.001498 0.500941 0.659276 0.876054
C13   C     C_R   0.722436 0.960180 0.596675 0.312544
C14   C     C_R   0.597457 0.934504 0.576762 -0.069406
C15   C     C_R   0.558909 0.011794 0.509943 -0.005020
C16   C     C_R   0.652058 0.117252 0.471755 0.001839
C17   C     C_R   0.434967 0.983850 0.472040 0.060176
C18   C     C_R   0.411249 0.044748 0.388170 -0.082634
C19   C     C_R   0.505979 0.143020 0.348463 -0.066318
C20   C     C_R   0.625602 0.176323 0.388678 0.323623
C21   C     C_R   0.332560 0.894000 0.511156 0.286826
C22   C     C_R   0.204331 0.893131 0.373650 0.308541
C23   C     C_R   0.144743 0.714742 0.486525 0.876316
C24   C     C_R   0.773391 0.155594 0.512944 -0.162348
C25   C     C_R   0.382091 0.394362 0.666971 0.269851
C26   C     C_R   0.754124 0.633199 0.374078 0.078377
C27   C     C_R   0.664424 0.674319 0.344714 -0.169147
C28   C     C_R   0.566409 0.635111 0.394083 -0.038307
C29   C     C_R   0.558896 0.552780 0.473004 -0.064946
C30   C     C_R   0.659650 0.520508 0.502497 0.199275
C31   C     C_R   0.457374 0.500579 0.525511 -0.045462
C32   C     C_R   0.477090 0.451187 0.613709 -0.068695
C33   C     C_R   0.588038 0.447281 0.645594 -0.109748
C34   C     C_R   0.001250 0.503333 0.340169 0.859833
C35   C     C_R   0.661029 0.454448 0.588301 0.350423
C36   C     C_R   0.336782 0.491614 0.495588 0.028135
C37   C     C_R   0.265828 0.383916 0.631821 0.485354
C38   C     C_3   0.101871 0.462661 0.977026 0.147126
C39   C     C_3   0.873068 0.426864 0.942122 -0.259525
C40   C     C_3   0.871391 0.406394 0.044836 -0.229334
C41   C     C_1   0.000454 0.506339 0.250124 0.068788
C42   C     C_3   0.007053 0.507633 0.915309 -0.125476
Cu1   Cu    Cu3+1 0.098280 0.475420 0.519630 1.065157
Cu2   Cu    Cu3+1 0.901720 0.524580 0.480370 1.071792
H1    H     H_    0.187039 0.575960 0.073600 0.217754
H2    H     H_    0.274093 0.041212 0.276563 0.202134
H3    H     H_    0.604360 0.409691 0.712761 0.233071
H4    H     H_    0.311742 0.524242 0.429638 0.172643
H5    H     H_    0.829247 0.664352 0.336686 0.213533
H6    H     H_    0.824108 0.482031 0.911849 0.217269
N1    N     N_R   0.246300 0.438200 0.549400 -0.258853
N2    N     N_R   0.754300 0.561180 0.451130 -0.210258
O1    O     O_R   0.972520 0.318130 0.524690 -0.544248
O2    O     O_R   0.806530 0.359650 0.491530 -0.515914
O3    O     O_R   0.083030 0.479240 0.637150 -0.536273
O4    O     O_R   0.917040 0.520750 0.603990 -0.561025
O5    O     O_R   0.193470 0.640350 0.508470 -0.567350
O6    O     O_R   0.027480 0.681870 0.475310 -0.552669
O7    O     O_R   0.082960 0.479250 0.396010 -0.589766
O8    O     O_R   0.916970 0.520760 0.362850 -0.546148
C43   C     C_2   0.152690 0.412203 0.146254 0.967412
O9    O     O_2   0.244935 0.459556 0.194679 -0.521181
O10   O     O_R   0.089985 0.290088 0.161167 -0.673306
H7    H     H_    0.129383 0.251932 0.213353 0.363256
C44   C     C_2   0.228997 0.518026 0.946749 0.887494
O11   O     O_2   0.239995 0.515197 0.872873 -0.502833
O12   O     O_R   0.334063 0.565377 0.004555 -0.709716
H8    H     H_    0.411723 0.596949 0.976731 0.379404
C45   C     C_2   0.899513 0.653809 0.027854 0.922787
O13   O     O_2   0.820805 0.648813 0.966264 -0.471056
O14   O     O_R   0.884006 0.672963 0.106538 -0.705797
H9    H     H_    0.805535 0.680574 0.103114 0.391143
Cl1   Cl    Cl    0.071958 0.829060 0.302256 -0.571090
C46   C     C_2   0.480705 0.210460 0.263291 0.929152
O15   O     O_2   0.515416 0.207477 0.197944 -0.490451
O16   O     O_R   0.414121 0.274629 0.258075 -0.736103
H10   H     H_    0.401442 0.315984 0.196747 0.365839
Cl2   Cl    Cl    0.318236 0.885327 0.620934 -0.538175
C47   C     C_2   0.940208 0.088329 0.575014 0.987868
O17   O     O_2   0.997783 0.130906 0.512129 -0.552433
O18   O     O_R   0.994187 0.051598 0.655468 -0.609054
H11   H     H_    0.080061 0.063506 0.652964 0.376938
C48   C     C_2   0.514429 0.819448 0.620999 0.994774
O19   O     O_2   0.516556 0.802483 0.700193 -0.475438
O20   O     O_R   0.440704 0.728316 0.574366 -0.720708
H12   H     H_    0.392547 0.653670 0.613614 0.343470
Cl3   Cl    Cl    0.766606 0.848412 0.657443 -0.418960
Cl4   Cl    Cl    0.055739 0.310071 0.975880 -0.385751
Cl5   Cl    Cl    0.743422 0.272661 0.323826 -0.521248
Cl6   Cl    Cl    0.144753 0.296660 0.695186 -0.414739
Cl7   Cl    Cl    0.404747 0.330747 0.777368 -0.405195
C49   C     C_2   0.480802 0.689918 0.365404 0.885813
O21   O     O_2   0.479742 0.755431 0.408525 -0.548651
O22   O     O_R   0.403607 0.668986 0.287648 -0.689959
H13   H     H_    0.347996 0.709714 0.276136 0.353611
C50   C     C_2   0.680485 0.763467 0.263743 0.941258
O23   O     O_2   0.726588 0.758573 0.205019 -0.548716
O24   O     O_R   0.647551 0.855338 0.255450 -0.706266
H14   H     H_    0.664506 0.910306 0.197769 0.362590
Cl8   Cl    Cl    0.695621 0.332805 0.622920 -0.580994
C51   C     C_2   0.793084 0.318588 0.898336 0.992943
O25   O     O_2   0.835962 0.278751 0.858947 -0.476724
O26   O     O_R   0.667521 0.264849 0.902593 -0.663050
H15   H     H_    0.623240 0.194982 0.870923 0.379571
C52   C     C_2   0.858301 0.283967 0.093430 0.987815
O27   O     O_2   0.865559 0.264061 0.173023 -0.508457
O28   O     O_R   0.828483 0.191230 0.049955 -0.668426
H16   H     H_    0.820360 0.115865 0.091099 0.372341
C53   C     C_2   0.756004 0.409595 0.063720 0.872564
O29   O     O_2   0.745222 0.412098 0.137666 -0.500500
O30   O     O_R   0.660443 0.406375 0.997908 -0.656643
H17   H     H_    0.590360 0.408148 0.019648 0.382099
C54   C     C_2   0.173513 0.718858 0.905144 0.883726
O31   O     O_2   0.259135 0.753659 0.961478 -0.559493
O32   O     O_R   0.197740 0.747639 0.818421 -0.661778
H18   H     H_    0.287387 0.797144 0.811988 0.396251
Cl9   Cl    Cl    0.957520 0.703267 0.839999 -0.403907
C55   C     C_2   0.114206 0.741297 0.063949 0.956519
O33   O     O_2   0.129416 0.840746 0.027857 -0.466102
O34   O     O_R   0.188468 0.727080 0.140802 -0.753371
H19   H     H_    0.249252 0.804718 0.159276 0.361763

loop_
_geom_bond_atom_site_label_1
_geom_bond_atom_site_label_2
_ccdc_geom_bond_type
C23   O6    A    
C5    C42   S    
C51   O25   D    
O30   H17   S    
C1    O2    A    
C3    C6    S    
O18   H11   S    
C7    C8    T    
O20   H12   S    
C10   C22   A    
C52   O28   S    
C26   C27   A    
C46   O16   S    
C30   C35   A    
C16   C20   A    
C38   C42   S    
C45   O13   D    
C53   O30   S    
C37   N1    A    
C9    C22   A    
C15   C16   A    
C11   C24   A    
C43   O10   S    
C18   C19   A    
C7    C42   S    
C45   O14   S    
C2    C38   S    
C55   O33   D    
C1    O1    A    
C25   C37   A    
Cu1   O1    S    
C31   C32   A    
Cu2   O6    S    
C44   O12   S    
C6    C41   T    
C50   O24   S    
C21   Cl2   S    
O28   H16   S    
C2    C43   S    
Cu1   O7    S    
Cu2   N2    S    
C25   C32   A    
C9    H2    S    
C16   C24   A    
C13   C14   A    
C34   O8    A    
C4    C55   S    
C27   C50   S    
C43   O9    D    
C34   C41   S    
C14   C48   S    
C4    C45   S    
C39   C51   S    
C39   C42   S    
C10   C21   A    
C25   Cl7   S    
C46   O15   D    
O12   H8    S    
O16   H10   S    
C26   H5    S    
C39   C40   S    
C47   O18   S    
C17   C21   A    
C3    C4    S    
C47   O17   D    
C38   Cl4   S    
Cu1   Cu2   S    
C29   C30   A    
C26   N2    A    
Cu2   O4    S    
C48   O19   D    
C38   C44   S    
C8    C12   S    
C50   O23   D    
C13   Cl3   S    
C49   O22   S    
C17   C18   A    
C28   C49   S    
C12   O4    A    
C36   N1    A    
C11   C47   S    
C37   Cl6   S    
Cu1   O3    S    
C48   O20   S    
C3    C40   S    
O24   H14   S    
C34   O7    A    
C33   H3    S    
C35   Cl8   S    
O26   H15   S    
O34   H19   S    
C54   O31   D    
C52   O27   D    
C23   O5    A    
C30   N2    A    
C28   C29   A    
C5    C54   S    
C14   C15   A    
C19   C46   S    
C4    C5    S    
C15   C17   A    
C40   C53   S    
C10   C23   S    
C20   Cl5   S    
C32   C33   A    
C19   C20   A    
C2    C3    S    
O14   H9    S    
C29   C31   A    
C53   O29   D    
C11   C13   A    
Cu1   N1    S    
Cu2   O8    S    
C49   O21   D    
C33   C35   A    
C36   H4    S    
O22   H13   S    
C55   O34   S    
C12   O3    A    
C2    H1    S    
Cu1   O5    S    
O10   H7    S    
Cu2   O2    S    
C9    C18   A    
C39   H6    S    
C1    C24   S    
C51   O26   S    
C44   O11   D    
C5    Cl9   S    
C27   C28   A    
C31   C36   A    
C22   Cl1   S    
O32   H18   S    
C40   C52   S    
C54   O32   S    
