data_mof_unit_2939.cif
_audit_creation_date              2012-10-26T20:35:45-0400
_audit_creation_method            fapswitch 2.2
_symmetry_space_group_name_H-M    P1
_symmetry_Int_Tables_number       1
_space_group_crystal_system       triclinic
_cell_length_a                    8.691902
_cell_length_b                    15.890069
_cell_length_c                    17.034711
_cell_angle_alpha                 96.894887
_cell_angle_beta                  91.785609
_cell_angle_gamma                 85.038925
_cell_volume                      2326.46889793

loop_
_atom_site_label
_atom_site_type_symbol
_atom_type_description
_atom_site_fract_x
_atom_site_fract_y
_atom_site_fract_z
_atom_type_partial_charge
C1    C     C_R   0.505738 0.488993 0.348528 0.550632
C2    C     C_R   0.372832 0.159101 0.435518 0.213461
C3    C     C_R   0.604339 0.754894 0.566930 0.266566
C4    C     C_R   0.374909 0.248660 0.442052 0.267513
C5    C     C_R   0.205756 0.521375 0.499120 0.552014
C6    C     C_R   0.794278 0.478420 0.499352 0.542929
C7    C     C_2   0.041109 0.532287 0.494258 -0.165797
C8    C     C_2   0.959038 0.466843 0.501694 -0.159053
C9    C     C_R   0.528934 0.481851 0.262795 -0.096870
C10   C     C_R   0.512082 0.514538 0.738232 -0.081739
C11   C     C_R   0.582578 0.549875 0.229021 -0.155762
C12   C     C_R   0.502527 0.510418 0.651648 0.557191
C13   C     C_R   0.522297 0.438883 0.773310 -0.170083
C14   C     C_R   0.614520 0.541941 0.148566 0.255605
C15   C     C_R   0.537427 0.439700 0.855343 0.230433
C16   C     C_R   0.575772 0.468104 0.099397 0.202660
C17   C     C_R   0.535926 0.519092 0.903768 0.228758
C18   C     C_R   0.522650 0.399908 0.133218 0.233747
C19   C     C_R   0.526547 0.594900 0.868418 0.226140
C20   C     C_R   0.507251 0.405792 0.214870 -0.161234
C21   C     C_R   0.513192 0.592441 0.786078 -0.164964
C22   C     C_3   0.671533 0.310333 0.865015 0.013106
C23   C     C_R   0.437836 0.752814 0.454239 -0.029512
C24   C     C_3   0.696755 0.240778 0.919826 -0.234687
C25   C     C_3   0.829398 0.175748 0.892131 -0.503059
C26   C     C_3   0.834920 0.585010 0.100433 0.018511
C27   C     C_3   0.939651 0.595541 0.174636 -0.289903
C28   C     C_3   0.110105 0.579441 0.153690 -0.475349
C29   C     C_3   0.341822 0.334367 0.052299 0.040576
C30   C     C_3   0.218659 0.314635 0.108490 -0.301379
C31   C     C_3   0.060049 0.312564 0.067597 -0.486341
C32   C     C_3   0.667344 0.705630 0.912907 0.022200
C33   C     C_3   0.673636 0.782479 0.975745 -0.245665
C34   C     C_R   0.577320 0.244337 0.538114 -0.025411
C35   C     C_3   0.829069 0.820546 0.976652 -0.492695
C36   C     C_3   0.569519 0.109317 0.669212 -0.272090
C37   C     C_3   0.187861 0.900727 0.416241 -0.281172
C38   C     C_3   0.845084 0.902766 0.598353 0.019320
C39   C     C_3   0.949713 0.931262 0.668681 -0.258733
C40   C     C_3   0.107671 0.950466 0.642007 -0.484368
C41   C     C_3   0.353524 0.077721 0.316420 0.018221
C42   C     C_3   0.240865 0.056996 0.247457 -0.258800
C43   C     C_3   0.323740 0.007061 0.176646 -0.488710
C44   C     C_3   0.837042 0.692352 0.628608 -0.256088
C45   C     C_R   0.438755 0.841679 0.454389 0.069089
C46   C     C_3   0.243820 0.291429 0.321681 -0.260555
C47   C     C_R   0.568153 0.156223 0.540217 0.076342
C48   C     C_R   0.531637 0.888356 0.511339 0.195733
C49   C     C_R   0.466181 0.111607 0.486395 0.192371
C50   C     C_R   0.617156 0.843141 0.566775 0.211707
Cu1   Cu    Cu3+1 0.492520 0.415770 0.496210 0.953429
Cu2   Cu    Cu3+1 0.507480 0.584230 0.503790 0.945660
H1    H     H_    0.987364 0.594011 0.483156 0.111624
H2    H     H_    0.655147 0.279590 0.803506 0.115989
H3    H     H_    0.723613 0.270178 0.980711 0.209234
H4    H     H_    0.589541 0.207607 0.921266 0.175746
H5    H     H_    0.801509 0.142546 0.832885 0.139665
H6    H     H_    0.848234 0.127792 0.934568 0.148006
H7    H     H_    0.937534 0.207535 0.888823 0.141392
H8    H     H_    0.869069 0.628335 0.058731 0.147481
H9    H     H_    0.854322 0.519299 0.069316 0.132285
H10   H     H_    0.918228 0.661111 0.205332 0.169671
H11   H     H_    0.912915 0.549792 0.215746 0.154723
H12   H     H_    0.012824 0.404669 0.511624 0.120961
H13   H     H_    0.134105 0.514260 0.122770 0.144873
H14   H     H_    0.182683 0.585736 0.208568 0.153166
H15   H     H_    0.142045 0.626384 0.114972 0.164069
H16   H     H_    0.339856 0.287757 0.998249 0.172172
H17   H     H_    0.312601 0.398322 0.032402 0.156310
H18   H     H_    0.251474 0.252046 0.129960 0.167603
H19   H     H_    0.210932 0.364306 0.160207 0.145097
H20   H     H_    0.025180 0.374373 0.045174 0.143416
H21   H     H_    0.972971 0.300458 0.110343 0.156888
H22   H     H_    0.062305 0.260932 0.017503 0.147603
H23   H     H_    0.516537 0.378450 0.736968 0.138579
H24   H     H_    0.683136 0.726534 0.853766 0.119618
H25   H     H_    0.763733 0.657553 0.925203 0.125103
H26   H     H_    0.580081 0.831760 0.963569 0.167600
H27   H     H_    0.654946 0.762740 0.034924 0.206401
H28   H     H_    0.924048 0.772856 0.990536 0.148557
H29   H     H_    0.829598 0.876324 0.022636 0.145468
H30   H     H_    0.849376 0.841795 0.918320 0.148918
H31   H     H_    0.760894 0.139277 0.612494 0.229226
H32   H     H_    0.535888 0.173898 0.699516 0.109659
H33   H     H_    0.642188 0.073112 0.710475 0.149411
H34   H     H_    0.606570 0.608132 0.265505 0.151294
H35   H     H_    0.464019 0.075487 0.653893 0.186120
H36   H     H_    0.360809 0.849480 0.340201 0.233507
H37   H     H_    0.125141 0.932282 0.368650 0.146866
H38   H     H_    0.133193 0.841330 0.422924 0.108307
H39   H     H_    0.177009 0.944511 0.471939 0.182806
H40   H     H_    0.830012 0.954450 0.559569 0.176907
H41   H     H_    0.903324 0.845279 0.564140 0.103379
H42   H     H_    0.894332 0.989368 0.702823 0.167310
H43   H     H_    0.965624 0.880482 0.708406 0.162169
H44   H     H_    0.166086 0.893186 0.607937 0.153200
H45   H     H_    0.475283 0.351141 0.240112 0.141926
H46   H     H_    0.181019 0.969494 0.694587 0.150615
H47   H     H_    0.094923 0.003630 0.604887 0.149106
H48   H     H_    0.415087 0.017517 0.331651 0.188011
H49   H     H_    0.440734 0.117654 0.296398 0.104824
H50   H     H_    0.150323 0.018976 0.266307 0.170926
H51   H     H_    0.183451 0.116900 0.229083 0.153977
H52   H     H_    0.413000 0.044649 0.155717 0.149333
H53   H     H_    0.239023 0.993319 0.127623 0.147163
H54   H     H_    0.379365 0.945783 0.192971 0.149996
H55   H     H_    0.635061 0.741364 0.685281 0.237001
H56   H     H_    0.501850 0.651538 0.760017 0.143250
H57   H     H_    0.895847 0.733923 0.675107 0.118841
H58   H     H_    0.884452 0.699997 0.570454 0.130104
H59   H     H_    0.862778 0.625423 0.640579 0.152783
H60   H     H_    0.147352 0.293334 0.431667 0.238050
H61   H     H_    0.142878 0.256779 0.299063 0.133776
H62   H     H_    0.349750 0.258048 0.294482 0.130766
H63   H     H_    0.227350 0.356507 0.303830 0.137595
H64   H     H_    0.656341 0.278050 0.578182 0.131462
H65   H     H_    0.368783 0.717375 0.410132 0.141297
H66   H     H_    0.777098 0.346147 0.868561 0.125035
N1    N     N_2   0.586863 0.460661 0.016271 -0.193512
N2    N     N_2   0.252774 0.297598 0.407000 -0.431301
N3    N     N_2   0.536488 0.526460 0.987762 -0.167937
N4    N     N_R   0.518730 0.710760 0.509500 -0.251670
N5    N     N_R   0.481270 0.289240 0.490500 -0.252375
N6    N     N_2   0.550421 0.977948 0.514376 -0.187955
N7    N     N_2   0.445248 0.022117 0.483144 -0.187496
N8    N     N_2   0.655458 0.115280 0.598940 -0.492820
N9    N     N_2   0.348729 0.881798 0.396220 -0.500188
N10   N     N_2   0.671759 0.713388 0.630534 -0.442334
O1    O     O_R   0.493000 0.421040 0.382520 -0.476459
O2    O     O_3   0.677842 0.608343 0.118835 -0.551513
O3    O     O_3   0.491627 0.325226 0.087147 -0.574271
O4    O     O_3   0.522544 0.672128 0.915635 -0.545157
O5    O     O_3   0.700879 0.886251 0.626984 -0.571626
O6    O     O_3   0.270532 0.119363 0.382333 -0.569320
O7    O     O_R   0.507000 0.578960 0.617480 -0.466719
O8    O     O_R   0.505640 0.563310 0.388930 -0.515337
O9    O     O_R   0.494360 0.436690 0.611070 -0.511954
O10   O     O_R   0.269980 0.445280 0.497530 -0.469455
O11   O     O_R   0.730020 0.554720 0.502470 -0.485297
O12   O     O_R   0.282610 0.587550 0.503940 -0.506166
O13   O     O_R   0.717390 0.412450 0.496060 -0.505820
O14   O     O_3   0.538503 0.364068 0.888533 -0.551434

loop_
_geom_bond_atom_site_label_1
_geom_bond_atom_site_label_2
_ccdc_geom_bond_type
C34   N5    A    
C23   C45   A    
Cu1   N5    S    
C41   C42   S    
C28   H14   S    
C42   H51   S    
C40   H47   S    
C30   H19   S    
Cu1   O1    S    
C5    O10   A    
C47   C49   A    
C24   H3    S    
C26   C27   S    
C2    O6    S    
C46   H63   S    
C5    O12   A    
C19   C21   A    
C26   H9    S    
C45   N9    S    
H55   N10   S    
H36   N9    S    
C1    O1    A    
C40   H46   S    
C30   C31   S    
C10   C12   S    
C11   C14   A    
C33   H26   S    
C31   H21   S    
C11   H34   S    
C34   H64   S    
C29   H16   S    
C38   H40   S    
C35   H28   S    
Cu2   O11   S    
C22   H66   S    
C43   H53   S    
C38   O5    S    
C6    O11   A    
C43   H52   S    
Cu2   O12   S    
C32   H25   S    
Cu2   N4    S    
C35   H30   S    
C20   H45   S    
C13   H23   S    
C12   O7    A    
C1    O8    A    
C18   C20   A    
C26   O2    S    
C3    N4    A    
C44   H57   S    
N1    N3    D    
C36   H35   S    
C18   O3    S    
C25   H5    S    
C40   H44   S    
C42   H50   S    
C41   O6    S    
C30   H18   S    
C3    C50   A    
C23   N4    A    
C29   H17   S    
Cu1   O13   S    
C10   C21   A    
C35   H29   S    
C38   C39   S    
C46   H62   S    
Cu1   Cu2   S    
C7    C8    D    
C28   H15   S    
C1    C9    S    
C24   C25   S    
C22   H2    S    
C16   N1    S    
C39   C40   S    
C5    C7    S    
C37   H39   S    
C3    N10   S    
C33   H27   S    
C31   H22   S    
C6    C8    S    
C10   C13   A    
C4    N5    A    
C43   H54   S    
C2    C4    A    
C44   H59   S    
C39   H42   S    
C32   H24   S    
C29   C30   S    
C2    C49   A    
C15   O14   S    
C9    C20   A    
C22   O14   S    
C41   H48   S    
C46   N2    S    
C6    O13   A    
C9    C11   A    
C39   H43   S    
C27   H11   S    
C8    H12   S    
C37   H38   S    
C17   N3    S    
C31   H20   S    
C13   C15   A    
Cu2   O8    S    
C22   C24   S    
C25   H6    S    
C7    H1    S    
H31   N8    S    
Cu1   O9    S    
C32   O4    S    
C47   N8    S    
H60   N2    S    
C14   O2    S    
C45   C48   A    
C19   O4    S    
C15   C17   A    
C44   N10   S    
C46   H61   S    
C36   N8    S    
C50   O5    S    
C23   H65   S    
C27   H10   S    
C36   H33   S    
C24   H4    S    
C49   N7    S    
C37   H37   S    
C32   C33   S    
C28   H13   S    
C33   C35   S    
C29   O3    S    
C36   H32   S    
C38   H41   S    
C48   C50   A    
C17   C19   A    
C41   H49   S    
C14   C16   A    
C21   H56   S    
Cu1   O10   S    
C16   C18   A    
C48   N6    S    
C42   C43   S    
C27   C28   S    
Cu2   O7    S    
C12   O9    A    
C4    N2    S    
C34   C47   A    
C25   H7    S    
C26   H8    S    
N6    N7    D    
C37   N9    S    
C44   H58   S    
