data_mof_unit_2164.cif
_audit_creation_date              2012-12-11T17:37:48-0500
_audit_creation_method            fapswitch 2.2
_symmetry_space_group_name_H-M    P1
_symmetry_Int_Tables_number       1
_space_group_crystal_system       triclinic
_cell_length_a                    13.141222
_cell_length_b                    13.035895
_cell_length_c                    15.483752
_cell_angle_alpha                 117.648556
_cell_angle_beta                  63.163163
_cell_angle_gamma                 98.172095
_cell_volume                      2088.91252275

loop_
_atom_site_label
_atom_site_type_symbol
_atom_type_description
_atom_site_fract_x
_atom_site_fract_y
_atom_site_fract_z
_atom_type_partial_charge
C1    C     C_R   0.998838 0.832901 0.059742 -0.115460
C2    C     C_R   0.299250 0.593423 0.790748 -0.169494
C3    C     C_R   0.259755 0.417939 0.047085 -0.153016
C4    C     C_R   0.679752 0.476297 0.220366 -0.132756
C5    C     C_R   0.048154 0.275994 0.683765 -0.127752
C6    C     C_R   0.360449 0.433583 0.970020 0.156689
C7    C     C_R   0.034767 0.164125 0.675839 0.060474
C8    C     C_R   0.300133 0.557045 0.691518 0.068775
C9    C     C_R   0.006699 0.150871 0.041872 0.035450
C10   C     C_R   0.429265 0.929464 0.109091 -0.125437
C11   C     C_R   0.357364 0.911453 0.199571 -0.142064
C12   C     C_R   0.673499 0.555648 0.321168 0.035318
C13   C     C_R   0.256704 0.984584 0.279001 0.117991
C14   C     C_R   0.228725 0.075245 0.266216 -0.183973
C15   C     C_R   0.300190 0.092083 0.175068 -0.116965
C16   C     C_R   0.753903 0.530061 0.901833 -0.137678
C17   C     C_R   0.400539 0.019369 0.096657 -0.090631
C18   C     C_R   0.159360 0.063109 0.478271 -0.235917
C19   C     C_R   0.085711 0.054857 0.574319 0.064332
C20   C     C_R   0.061000 0.942456 0.567194 0.025885
C21   C     C_R   0.095764 0.847320 0.465946 -0.230300
C22   C     C_R   0.135241 0.863893 0.373601 0.047792
C23   C     C_R   0.655932 0.481479 0.943857 0.076055
C24   C     C_R   0.183043 0.968953 0.377067 0.029754
C25   C     C_R   0.025860 0.912815 0.725649 -0.165182
C26   C     C_R   0.951154 0.893918 0.814593 -0.161267
C27   C     C_R   0.835967 0.879001 0.835976 -0.117571
C28   C     C_R   0.025164 0.697037 0.297385 -0.147053
C29   C     C_R   0.795772 0.881022 0.767362 -0.117069
C30   C     C_R   0.869939 0.900700 0.678751 -0.176423
C31   C     C_R   0.984686 0.919002 0.659001 0.121560
C32   C     C_R   0.858880 0.368826 0.362734 -0.111386
C33   C     C_R   0.743718 0.402851 0.405068 -0.110021
C34   C     C_R   0.090908 0.789512 0.294106 0.072398
C35   C     C_R   0.700659 0.517908 0.483361 0.115960
C36   C     C_R   0.769571 0.594339 0.528033 -0.186444
C37   C     C_R   0.885421 0.560960 0.482948 -0.133732
C38   C     C_R   0.930716 0.449529 0.397859 -0.116514
C39   C     C_R   0.498381 0.573033 0.595639 -0.251120
C40   C     C_R   0.671072 0.433441 0.000146 -0.165296
C41   C     C_R   0.388879 0.578828 0.604798 0.070323
C42   C     C_R   0.371642 0.588696 0.524795 0.023916
C43   C     C_R   0.466845 0.591839 0.436348 -0.252110
C44   C     C_R   0.576560 0.576522 0.423859 0.074601
C45   C     C_R   0.333579 0.504657 0.939450 -0.086455
C46   C     C_R   0.591750 0.563197 0.503130 0.017090
C47   C     C_R   0.245556 0.466940 0.444454 -0.164860
C48   C     C_R   0.136506 0.428335 0.463335 -0.155679
C49   C     C_R   0.041178 0.497198 0.557125 -0.135969
C50   C     C_R   0.053611 0.608384 0.627876 -0.117165
C51   C     C_R   0.162846 0.647243 0.610083 -0.134091
C52   C     C_R   0.103145 0.796935 0.203935 -0.151285
C53   C     C_R   0.259761 0.573332 0.521679 0.109726
C54   C     C_2   0.476228 0.412684 0.948510 -0.317212
C55   C     C_2   0.550820 0.494737 0.942578 0.186695
C56   C     C_R   0.965675 0.178000 0.780792 -0.141017
C57   C     C_2   0.828215 0.958211 0.108642 -0.195605
C58   C     C_2   0.827183 0.047153 0.198978 -0.171017
C59   C     C_R   0.783515 0.575253 0.309907 -0.090218
C60   C     C_R   0.897107 0.748788 0.965428 -0.166678
C61   C     C_R   0.908682 0.853035 0.044288 0.122566
C62   C     C_3   0.573435 0.636867 0.874010 -1.018989
C63   C     C_R   0.205848 0.495788 0.691063 -0.132954
C64   C     C_R   0.052362 0.254502 0.085307 -0.125426
C65   C     C_R   0.949494 0.171621 0.994002 -0.120039
H1    H     H_    0.027997 0.893871 0.118536 0.097965
H2    H     H_    0.507792 0.874484 0.049006 0.119146
H3    H     H_    0.380752 0.841902 0.208659 0.107739
H4    H     H_    0.609463 0.439097 0.201066 0.097848
H5    H     H_    0.151046 0.131859 0.326294 0.105658
H6    H     H_    0.277960 0.161751 0.165460 0.098917
H7    H     H_    0.194018 0.144137 0.480544 0.127522
H8    H     H_    0.073565 0.762989 0.462687 0.124786
H9    H     H_    0.114360 0.926135 0.710621 0.118801
H10   H     H_    0.982942 0.892601 0.867278 0.135733
H11   H     H_    0.777280 0.866247 0.905604 0.092006
H12   H     H_    0.929886 0.114599 0.808941 0.130679
H13   H     H_    0.706980 0.868407 0.783446 0.108823
H14   H     H_    0.837916 0.903300 0.626385 0.116433
H15   H     H_    0.021510 0.425757 0.358212 0.110506
H16   H     H_    0.776624 0.560471 0.841888 0.111948
H17   H     H_    0.893531 0.281934 0.299005 0.114692
H18   H     H_    0.690491 0.342793 0.371072 0.116001
H19   H     H_    0.736876 0.683005 0.588763 0.120321
H20   H     H_    0.940808 0.623403 0.510824 0.133197
H21   H     H_    0.512265 0.559468 0.653751 0.135249
H22   H     H_    0.455723 0.596317 0.372850 0.131521
H23   H     H_    0.178553 0.456260 0.628397 0.133511
H24   H     H_    0.319254 0.408401 0.376277 0.118197
H25   H     H_    0.126495 0.342734 0.408046 0.108715
H26   H     H_    0.957478 0.464373 0.575152 0.131958
H27   H     H_    0.979168 0.660496 0.700062 0.135439
H28   H     H_    0.010407 0.655389 0.347330 0.101920
H29   H     H_    0.172744 0.728032 0.671323 0.112793
H30   H     H_    0.498418 0.333511 0.945454 0.126003
H31   H     H_    0.764003 0.962252 0.084312 0.133157
H32   H     H_    0.886912 0.049054 0.230181 0.128012
H33   H     H_    0.615096 0.379642 0.034830 0.092760
H34   H     H_    0.091610 0.273553 0.138610 0.081247
H35   H     H_    0.159186 0.848877 0.167502 0.120567
H36   H     H_    0.809277 0.637152 0.370734 0.116558
H37   H     H_    0.831334 0.733323 0.938694 0.100517
H38   H     H_    0.389442 0.528804 0.876952 0.140908
H39   H     H_    0.516266 0.673393 0.035498 0.167309
H40   H     H_    0.510380 0.688261 0.877111 0.250878
H41   H     H_    0.605906 0.557694 0.794332 0.265309
H42   H     H_    0.644798 0.691746 0.881039 0.243309
H43   H     H_    0.890946 0.115560 0.966066 0.112463
H44   H     H_    0.352666 0.654946 0.822990 0.101325
H45   H     H_    0.251074 0.369515 0.090432 0.095225
H46   H     H_    0.090205 0.299800 0.618714 0.094351
H47   H     H_    0.456276 0.032927 0.026462 0.097562
N1    N     N_R   0.037320 0.720000 0.995830 -0.044228
N2    N     N_R   0.824900 0.517970 0.936430 -0.039656
N3    N     N_R   0.003190 0.648180 0.211390 -0.041055
N4    N     N_R   0.774330 0.457010 0.995830 -0.034710
N5    N     N_R   0.053760 0.709130 0.151980 -0.041147
N6    N     N_R   0.853840 0.498830 0.211390 -0.040239
N7    N     N_R   0.974250 0.667320 0.936430 -0.038902
N8    N     N_R   0.225670 0.542990 0.004170 -0.051777
N9    N     N_2   0.518659 0.607511 0.963753 -0.098676
N10   N     N_R   0.946240 0.290870 0.848020 -0.042565
N11   N     N_R   0.146160 0.501170 0.788610 -0.039938
N12   N     N_R   0.025750 0.332680 0.063570 -0.035994
N13   N     N_R   0.962680 0.280000 0.004170 -0.043539
N14   N     N_R   0.209230 0.553860 0.848010 -0.041157
N15   N     N_R   0.175100 0.482030 0.063570 -0.042299
N16   N     N_R   0.996810 0.351820 0.788610 -0.039369
N17   N     N_R   0.790770 0.446140 0.151990 -0.042063
Ni1   Ni    Ni4+2 0.130310 0.630310 0.000000 0.212101
Ni2   Ni    Ni4+2 0.869690 0.369690 0.000000 0.212958
Ni3   Ni    Ni4+2 0.985660 0.509480 0.863750 0.213746
Ni4   Ni    Ni4+2 0.014340 0.490520 0.136250 0.216959

loop_
_geom_bond_atom_site_label_1
_geom_bond_atom_site_label_2
_ccdc_geom_bond_type
C25   C31   A    
C55   N9    S    
C2    H44   S    
C6    C45   A    
N11   Ni3   S    
C27   C29   A    
C9    C64   A    
C14   H5    S    
C41   C42   A    
C35   C36   A    
C3    C6    A    
N8    N15   A    
C39   C41   A    
C62   H40   S    
C10   H2    S    
C26   C27   A    
C29   C30   A    
N12   Ni4   S    
C18   C24   A    
C37   H20   S    
C36   C37   A    
C49   H26   S    
C18   C19   A    
C42   C53   S    
C40   H33   S    
C30   C31   A    
C63   H23   S    
C3    N15   A    
N14   Ni1   S    
C10   C17   A    
C23   C40   A    
C21   H8    S    
C60   N7    A    
C25   H9    S    
C1    H1    S    
C45   H38   S    
N1    N7    A    
C12   C59   A    
C64   H34   S    
C29   H13   S    
C19   C20   A    
N3    N5    A    
C57   H31   S    
C32   C38   A    
C4    C12   A    
C65   H43   S    
C47   C53   A    
C52   N5    A    
C28   C34   A    
C48   H25   S    
C13   C14   A    
C47   H24   S    
C58   H32   S    
C1    N1    A    
C7    C56   A    
C6    C54   S    
C60   H37   S    
N16   Ni3   S    
C4    H4    S    
C44   C46   A    
C26   H10   S    
C18   H7    S    
C22   C34   S    
N1    Ni1   S    
C59   H36   S    
C8    C41   S    
C8    C63   A    
C5    C7    A    
N11   N14   A    
H39   N9    S    
C5    H46   S    
C50   C51   A    
C25   C26   A    
C64   N12   A    
C52   H35   S    
C56   H12   S    
C13   C24   S    
C16   N2    A    
C60   C61   A    
C51   C53   A    
C56   N10   A    
C43   C44   A    
C37   C38   A    
C28   N3    A    
N13   Ni2   S    
C63   N11   A    
C47   C48   A    
N7    Ni3   S    
C57   C61   S    
N5    Ni1   S    
C33   H18   S    
C54   H30   S    
N6    Ni4   S    
C15   H6    S    
C39   C46   A    
C62   H41   S    
C30   H14   S    
C2    N14   A    
C45   N8    A    
C50   H27   S    
C48   C49   A    
C16   C23   A    
C7    C19   S    
N8    Ni1   S    
C42   C43   A    
C27   H11   S    
C17   H47   S    
N10   Ni2   S    
C32   H17   S    
C11   H3    S    
C15   C17   A    
C54   C55   D    
N2    Ni3   S    
C2    C8    A    
N15   Ni4   S    
C1    C61   A    
N2    N4    A    
C23   C55   S    
C4    N17   A    
C62   H42   S    
C59   N6    A    
N3    Ni4   S    
C34   C52   A    
C43   H22   S    
C32   C33   A    
C12   C44   S    
N6    N17   A    
C11   C13   A    
C57   C58   D    
C40   N4    A    
N4    Ni2   S    
C38   H15   S    
C36   H19   S    
C5    N16   A    
C16   H16   S    
C33   C35   A    
C22   C24   A    
N10   N16   A    
C9    C65   A    
C10   C11   A    
C51   H29   S    
C20   C21   A    
C49   C50   A    
C14   C15   A    
C28   H28   S    
C3    H45   S    
C39   H21   S    
C21   C22   A    
C35   C46   S    
C62   N9    S    
C65   N13   A    
N12   N13   A    
N17   Ni2   S    
C20   C31   S    
