data_mof_unit_1484.cif
_audit_creation_date              2012-12-11T15:14:40-0500
_audit_creation_method            fapswitch 2.2
_symmetry_space_group_name_H-M    P1
_symmetry_Int_Tables_number       1
_space_group_crystal_system       triclinic
_cell_length_a                    22.230749
_cell_length_b                    7.315426
_cell_length_c                    19.449378
_cell_angle_alpha                 90.308913
_cell_angle_beta                  98.623112
_cell_angle_gamma                 89.921246
_cell_volume                      3127.20116349

loop_
_atom_site_label
_atom_site_type_symbol
_atom_type_description
_atom_site_fract_x
_atom_site_fract_y
_atom_site_fract_z
_atom_type_partial_charge
O1    O     O_R   0.448470 0.506130 0.415700 -0.538787
O2    O     O_R   0.551530 0.006130 0.584300 -0.540673
O3    O     O_R   0.436320 0.174490 0.555800 -0.545716
O4    O     O_R   0.563680 0.674490 0.444200 -0.542639
C1    C     C_R   0.422000 0.344135 0.575940 0.752092
C2    C     C_R   0.577692 0.843653 0.423648 0.756881
O5    O     O_R   0.441350 0.176340 0.414480 -0.535179
O6    O     O_R   0.558650 0.676340 0.585520 -0.534584
O7    O     O_R   0.556600 0.007100 0.441970 -0.527081
O8    O     O_R   0.443400 0.507100 0.558030 -0.528792
C3    C     C_R   0.426806 0.344806 0.389879 0.841242
C4    C     C_R   0.573297 0.845259 0.610013 0.844811
O9    O     O_3   0.537810 0.339550 0.509190 -0.395060
O10   O     O_3   0.462190 0.839550 0.490810 -0.394093
V1    V     V_3+5 0.492990 0.064280 0.498300 1.412993
V2    V     V_3+5 0.507010 0.564280 0.501700 1.417524
C5    C     C_R   0.868505 0.992619 0.698816 -0.203966
C6    C     C_R   0.131874 0.496235 0.300241 -0.199723
C7    C     C_R   0.885753 0.941554 0.822508 -0.241468
C8    C     C_R   0.114748 0.443773 0.176738 -0.240555
C9    C     C_R   0.588635 0.830114 0.737766 0.401541
C10   C     C_R   0.411680 0.324416 0.262149 0.403647
C11   C     C_R   0.625443 0.835769 0.802842 -0.239382
C12   C     C_R   0.375116 0.329699 0.196923 -0.238611
C13   C     C_R   0.687730 0.864039 0.808689 -0.190979
C14   C     C_R   0.312946 0.361319 0.190752 -0.191067
C15   C     C_R   0.717614 0.875280 0.749729 0.042451
C16   C     C_R   0.282944 0.376665 0.249540 0.049486
C17   C     C_R   0.680155 0.881224 0.682826 -0.157315
C18   C     C_R   0.320277 0.384054 0.316609 -0.156839
C19   C     C_R   0.782842 0.894752 0.755467 -0.058064
C20   C     C_R   0.217709 0.397593 0.243538 -0.055867
C21   C     C_R   0.807769 0.935825 0.694345 -0.122947
C22   C     C_R   0.192686 0.440140 0.304551 -0.134250
C23   C     C_R   0.771910 0.926975 0.628816 0.356592
C24   C     C_R   0.228593 0.434347 0.369993 0.340364
C25   C     C_R   0.708215 0.916025 0.623344 0.300719
C26   C     C_R   0.292132 0.422851 0.375850 0.310351
C27   C     C_R   0.825239 0.875943 0.818798 0.318208
C28   C     C_R   0.175247 0.377370 0.180291 0.315627
C29   C     C_R   0.905828 0.007952 0.762346 0.328773
C30   C     C_R   0.094869 0.513393 0.236663 0.332490
C31   C     C_R   0.615341 0.854561 0.677391 -0.147945
C32   C     C_R   0.384919 0.353050 0.322369 -0.152015
H1    H     H_    0.710804 0.881155 0.860886 0.194864
H2    H     H_    0.290000 0.376888 0.138477 0.193621
H3    H     H_    0.606069 0.818133 0.850124 0.124354
H4    H     H_    0.394617 0.308793 0.149808 0.124466
C33   C     C_3   0.771351 0.849742 0.305600 -0.296397
C34   C     C_3   0.225486 0.358308 0.690264 -0.308522
C35   C     C_3   0.783103 0.028210 0.267303 0.363183
C36   C     C_3   0.216029 0.533460 0.732353 0.358497
H5    H     H_    0.794115 0.805083 0.357369 0.125867
H6    H     H_    0.202862 0.324642 0.636998 0.135089
C37   C     C_1   0.872701 0.943720 0.117600 -0.170714
C38   C     C_1   0.126465 0.442377 0.881529 -0.174660
C39   C     C_1   0.621023 0.851489 0.374512 -0.185167
C40   C     C_1   0.377589 0.352069 0.623769 -0.188496
C41   C     C_3   0.773283 0.742074 0.236661 -0.172772
C42   C     C_3   0.221938 0.243913 0.756974 -0.175289
C43   C     C_3   0.784936 0.921778 0.199457 0.049879
C44   C     C_3   0.212782 0.420888 0.797946 0.054794
C45   C     C_3   0.703501 0.769697 0.215768 -0.183229
C46   C     C_3   0.292033 0.261956 0.778584 -0.183932
C47   C     C_3   0.701979 0.877498 0.283983 0.069468
C48   C     C_3   0.295112 0.375650 0.712583 0.076718
C49   C     C_3   0.715557 0.949694 0.178154 -0.205968
C50   C     C_3   0.282488 0.439355 0.819681 -0.208882
C51   C     C_3   0.713964 0.055522 0.246910 0.427489
C52   C     C_3   0.285513 0.550902 0.753058 0.432329
C53   C     C_1   0.832819 0.936248 0.154035 -0.008034
C54   C     C_1   0.165635 0.435026 0.844214 -0.009666
C55   C     C_1   0.656951 0.861072 0.333118 -0.042806
C56   C     C_1   0.340708 0.360061 0.664091 -0.027249
H7    H     H_    0.692605 0.993021 0.126143 0.131933
H8    H     H_    0.306014 0.475306 0.872443 0.131894
H9    H     H_    0.670491 0.664674 0.192836 0.122001
H10   H     H_    0.323704 0.152980 0.800453 0.118743
H11   H     H_    0.799006 0.613920 0.231486 0.148584
H12   H     H_    0.194571 0.117812 0.759001 0.152689
O11   O     O_R   0.056650 0.288730 0.942060 -0.535656
O12   O     O_R   0.943350 0.788730 0.057940 -0.532026
O13   O     O_R   0.058660 0.616870 0.085540 -0.547529
O14   O     O_R   0.941340 0.116870 0.914460 -0.551765
C57   C     C_R   0.072675 0.449025 0.110254 0.798806
C58   C     C_R   0.927624 0.948470 0.889385 0.793389
O15   O     O_R   0.063700 0.618520 0.944220 -0.532056
O16   O     O_R   0.936300 0.118520 0.055780 -0.531895
O17   O     O_R   0.948460 0.787610 0.915680 -0.541925
O18   O     O_R   0.051540 0.287610 0.084320 -0.542848
C59   C     C_R   0.079353 0.450156 0.925712 0.696122
C60   C     C_R   0.920542 0.950662 0.074249 0.701079
O19   O     O_3   0.962230 0.453430 0.990860 -0.389074
O20   O     O_3   0.037770 0.953430 0.009140 -0.389736
V3    V     V_3+5 0.007010 0.728750 0.001700 1.395375
V4    V     V_3+5 0.992990 0.228750 0.998300 1.391777
O21   O     O_3   0.964153 0.074875 0.763887 -0.574260
C61   C     C_3   0.964810 0.264103 0.779702 0.131965
H13   H     H_    0.007942 0.293022 0.814217 0.141127
H14   H     H_    0.927267 0.309321 0.808182 0.108429
C62   C     C_3   0.963715 0.379608 0.714382 -0.380870
H15   H     H_    0.005310 0.352433 0.690587 0.197732
H16   H     H_    0.923190 0.344501 0.676005 0.205628
C63   C     C_3   0.960764 0.581926 0.732981 -0.809847
H17   H     H_    0.916835 0.612088 0.751182 0.223500
H18   H     H_    0.963807 0.666580 0.686793 0.238824
H19   H     H_    0.998692 0.619722 0.774518 0.232431
O22   O     O_3   0.037234 0.587092 0.234385 -0.573118
C64   C     C_3   0.040194 0.779339 0.226321 0.142470
H20   H     H_    0.998448 0.821920 0.191624 0.134011
H21   H     H_    0.079258 0.825336 0.200661 0.097785
C65   C     C_3   0.041286 0.878644 0.296082 -0.377752
H22   H     H_    0.999271 0.845710 0.318054 0.200390
H23   H     H_    0.081139 0.834308 0.333543 0.196073
C66   C     C_3   0.045658 0.084966 0.286983 -0.824332
H24   H     H_    0.089340 0.119363 0.268969 0.231663
H25   H     H_    0.044113 0.155266 0.337395 0.235173
H26   H     H_    0.007377 0.135083 0.248345 0.236678
O23   O     O_3   0.674271 0.205970 0.248829 -0.589630
C67   C     C_3   0.700542 0.346604 0.292968 0.081551
H27   H     H_    0.669453 0.465482 0.284623 0.138071
H28   H     H_    0.744391 0.391173 0.278397 0.170448
C68   C     C_3   0.706130 0.298144 0.370184 -0.294395
H29   H     H_    0.660031 0.275155 0.383992 0.193903
H30   H     H_    0.733365 0.172159 0.381896 0.195816
C69   C     C_3   0.737290 0.452876 0.414451 -0.867564
H31   H     H_    0.782981 0.479599 0.400212 0.245187
H32   H     H_    0.742649 0.415801 0.469846 0.220736
H33   H     H_    0.709629 0.578885 0.407548 0.242320
O24   O     O_3   0.327065 0.696820 0.752461 -0.589771
C70   C     C_3   0.302729 0.840917 0.709204 0.087638
H34   H     H_    0.337017 0.951919 0.715202 0.134155
H35   H     H_    0.261519 0.896535 0.727236 0.169412
C71   C     C_3   0.291428 0.791109 0.631514 -0.297731
H36   H     H_    0.335374 0.755658 0.614265 0.187984
H37   H     H_    0.260525 0.672386 0.621223 0.202313
C72   C     C_3   0.262166 0.951107 0.589111 -0.867353
H38   H     H_    0.225234 0.010800 0.614477 0.241014
H39   H     H_    0.241691 0.904206 0.536648 0.220421
H40   H     H_    0.296566 0.057444 0.583883 0.244885
O25   O     O_3   0.798656 0.955500 0.569721 -0.585259
C73   C     C_3   0.805551 0.787050 0.535856 0.075339
H41   H     H_    0.811272 0.817838 0.481540 0.145727
H42   H     H_    0.764312 0.700352 0.532340 0.129105
C74   C     C_3   0.862435 0.685648 0.570660 -0.333753
H43   H     H_    0.901455 0.781612 0.576783 0.204864
H44   H     H_    0.855152 0.637481 0.622811 0.198396
C75   C     C_3   0.878168 0.521665 0.528191 -0.850963
H45   H     H_    0.842787 0.414505 0.526909 0.244813
H46   H     H_    0.922199 0.462485 0.552540 0.240099
H47   H     H_    0.882683 0.564294 0.474506 0.228270
O26   O     O_3   0.201842 0.458789 0.429167 -0.580754
C76   C     C_3   0.179873 0.289324 0.449248 0.061119
H48   H     H_    0.216084 0.223662 0.486556 0.150042
H49   H     H_    0.166030 0.193477 0.404694 0.119600
C77   C     C_3   0.124425 0.324005 0.485146 -0.302735
H50   H     H_    0.137687 0.414051 0.530911 0.204245
H51   H     H_    0.088287 0.393467 0.448889 0.198488
C78   C     C_3   0.099262 0.146057 0.509049 -0.880967
H52   H     H_    0.085882 0.052775 0.464170 0.240565
H53   H     H_    0.059054 0.174419 0.535102 0.239735
H54   H     H_    0.134590 0.078644 0.546320 0.234207
H55   H     H_    0.887064 0.033783 0.652906 0.175982
H56   H     H_    0.113182 0.535975 0.346290 0.172117
O27   O     O_3   0.808682 0.797675 0.877720 -0.591123
C79   C     C_3   0.823131 0.608963 0.879459 0.111364
H57   H     H_    0.840114 0.573119 0.934384 0.156874
H58   H     H_    0.860061 0.570981 0.848940 0.102829
C80   C     C_3   0.766247 0.495312 0.854781 -0.356134
H59   H     H_    0.730417 0.528055 0.887112 0.206303
H60   H     H_    0.748837 0.527309 0.799659 0.208716
C81   C     C_3   0.780234 0.292090 0.859699 -0.800320
H61   H     H_    0.814006 0.257680 0.825097 0.224439
H62   H     H_    0.737894 0.214103 0.842524 0.237897
H63   H     H_    0.798421 0.253361 0.914003 0.236557
O28   O     O_3   0.191657 0.296661 0.121431 -0.591114
C82   C     C_3   0.176716 0.108359 0.119758 0.111269
H64   H     H_    0.157563 0.072705 0.065277 0.158776
H65   H     H_    0.141294 0.071191 0.152412 0.101263
C83   C     C_3   0.233928 0.993648 0.141107 -0.356131
H66   H     H_    0.268366 0.026464 0.107095 0.206143
H67   H     H_    0.253268 0.024891 0.195881 0.208373
C84   C     C_3   0.219579 0.790602 0.135539 -0.797945
H68   H     H_    0.187223 0.756213 0.171673 0.223333
H69   H     H_    0.262091 0.711553 0.150304 0.237389
H70   H     H_    0.199487 0.752952 0.081560 0.236368
O29   O     O_3   0.527119 0.784977 0.730499 -0.581981
C85   C     C_3   0.495209 0.884644 0.776228 0.067350
H71   H     H_    0.454517 0.945908 0.744491 0.142826
H72   H     H_    0.521165 0.001426 0.803282 0.099537
C86   C     C_3   0.473637 0.753950 0.828740 -0.273025
H73   H     H_    0.444285 0.646677 0.800383 0.235690
H74   H     H_    0.513228 0.684747 0.859430 0.174603
C87   C     C_3   0.437998 0.854699 0.878475 -0.809109
H75   H     H_    0.467326 0.958306 0.909077 0.218021
H76   H     H_    0.422181 0.755601 0.914933 0.229410
H77   H     H_    0.397684 0.923520 0.849153 0.242503
O30   O     O_3   0.472955 0.275956 0.269671 -0.582113
C88   C     C_3   0.505636 0.373401 0.224508 0.066955
H78   H     H_    0.546342 0.433950 0.256702 0.146082
H79   H     H_    0.480229 0.490397 0.197314 0.099300
C89   C     C_3   0.527275 0.240654 0.172168 -0.269832
H80   H     H_    0.556883 0.134681 0.200662 0.233195
H81   H     H_    0.487704 0.170121 0.141743 0.175030
C90   C     C_3   0.562597 0.339518 0.122075 -0.810602
H82   H     H_    0.532917 0.440971 0.091074 0.217545
H83   H     H_    0.578772 0.238864 0.086004 0.228088
H84   H     H_    0.602652 0.410689 0.151131 0.245959
O31   O     O_3   0.672716 0.966262 0.561653 -0.587660
C91   C     C_3   0.679953 0.155910 0.549634 0.106764
H85   H     H_    0.647918 0.194144 0.502724 0.153009
H86   H     H_    0.725762 0.183268 0.536543 0.159026
C92   C     C_3   0.667207 0.280604 0.610244 -0.333616
H87   H     H_    0.617978 0.283986 0.613796 0.224899
H88   H     H_    0.691338 0.234595 0.661239 0.187070
C93   C     C_3   0.689683 0.472094 0.601253 -0.838431
H89   H     H_    0.739679 0.470494 0.601847 0.216640
H90   H     H_    0.680153 0.551568 0.646528 0.238049
H91   H     H_    0.666263 0.533955 0.552423 0.252845
O32   O     O_3   0.327500 0.465585 0.438705 -0.584962
C94   C     C_3   0.319716 0.652000 0.456497 0.111355
H92   H     H_    0.353963 0.684730 0.502133 0.154976
H93   H     H_    0.275241 0.673568 0.474097 0.164769
C95   C     C_3   0.328429 0.788220 0.398556 -0.350612
H94   H     H_    0.375641 0.780531 0.386744 0.222402
H95   H     H_    0.296994 0.759128 0.349778 0.180964
C96   C     C_3   0.314882 0.981119 0.420128 -0.783338
H96   H     H_    0.266086 0.994517 0.425269 0.201309
H97   H     H_    0.324573 0.072373 0.378520 0.232205
H98   H     H_    0.343625 0.019838 0.469678 0.254886
O33   O     O_3   0.824474 0.169665 0.290723 -0.588861
C97   C     C_3   0.879584 0.097847 0.325906 0.069915
H99   H     H_    0.917484 0.176754 0.309345 0.153915
H100  H     H_    0.887820 0.951994 0.312935 0.120791
C98   C     C_3   0.881791 0.124496 0.404299 -0.300785
H101  H     H_    0.885936 0.272576 0.416482 0.203006
H102  H     H_    0.839032 0.074994 0.420642 0.202608
C99   C     C_3   0.935411 0.023609 0.445339 -0.850676
H103  H     H_    0.930511 0.873867 0.436559 0.232527
H104  H     H_    0.937153 0.052357 0.501729 0.243239
H105  H     H_    0.978456 0.070174 0.428910 0.239067
O34   O     O_3   0.178058 0.684560 0.712253 -0.589829
C100  C     C_3   0.120181 0.630129 0.678192 0.071386
H106  H     H_    0.086142 0.663921 0.712570 0.158370
H107  H     H_    0.115621 0.481550 0.665752 0.111408
C101  C     C_3   0.105991 0.740289 0.611309 -0.302382
H108  H     H_    0.105085 0.887298 0.625495 0.206438
H109  H     H_    0.142666 0.718311 0.579107 0.204294
C102  C     C_3   0.045007 0.689001 0.568748 -0.849310
H110  H     H_    0.039938 0.538421 0.563473 0.232765
H111  H     H_    0.041635 0.749025 0.515997 0.241712
H112  H     H_    0.007559 0.745450 0.593863 0.236991

loop_
_geom_bond_atom_site_label_1
_geom_bond_atom_site_label_2
_ccdc_geom_bond_type
C87   H76   S    
C45   C47   S    
O17   V3    S    
O27   C79   S    
O15   C59   A    
C15   C17   A    
C98   H102  S    
C80   H59   S    
O1    C3    A    
C93   H91   S    
C70   C71   S    
O2    C4    A    
C95   H94   S    
C71   C72   S    
C65   H23   S    
O21   C61   S    
C47   C55   S    
C68   H29   S    
C92   H87   S    
C81   H61   S    
O5    C3    A    
C72   H39   S    
C99   H105  S    
C102  H110  S    
C62   H15   S    
C83   C84   S    
C89   H81   S    
C1    C40   S    
C85   C86   S    
C46   C50   S    
C10   C12   A    
C85   H72   S    
C77   H50   S    
C23   C25   A    
C12   C14   A    
C94   C95   S    
C6    C30   A    
C78   H52   S    
C8    C28   A    
C61   H13   S    
C33   H5    S    
C68   H30   S    
C87   H77   S    
C100  H106  S    
C48   C56   S    
C99   H104  S    
C52   O24   S    
O12   C60   A    
O22   C64   S    
C18   C26   A    
C42   C44   S    
O14   V4    S    
C41   C43   S    
C39   C55   T    
C65   H22   S    
C29   O21   S    
C5    H55   S    
C62   C63   S    
C9    C31   A    
C6    H56   S    
C78   H53   S    
C38   C59   S    
C10   C32   A    
O16   C60   A    
C83   H67   S    
C16   C18   A    
C66   H25   S    
C89   C90   S    
O15   V3    S    
C81   H62   S    
C88   C89   S    
C34   C36   S    
C98   H101  S    
C75   H47   S    
C9    O29   S    
O30   C88   S    
C14   C16   A    
C76   H49   S    
C67   C68   S    
O3    C1    A    
C66   H26   S    
C43   C53   S    
O5    V1    S    
C87   H75   S    
C88   H78   S    
O6    V2    S    
C17   C31   A    
C79   H58   S    
C80   H60   S    
C2    C39   S    
C18   C32   A    
C100  C101  S    
C5    C21   A    
C2    O7    A    
C63   H18   S    
C63   H17   S    
C74   H44   S    
C67   H28   S    
C74   H43   S    
C45   C49   S    
C92   H88   S    
C72   H40   S    
C101  H109  S    
C102  H111  S    
C73   C74   S    
C89   H80   S    
C35   O33   S    
C86   H73   S    
C12   H4    S    
C80   C81   S    
C26   O32   S    
C16   C20   A    
C11   H3    S    
C93   H89   S    
C65   C66   S    
C100  H107  S    
C99   H103  S    
C84   H70   S    
C41   H11   S    
C28   O28   S    
O11   V4    S    
C24   O26   S    
C68   C69   S    
C71   H37   S    
C69   H33   S    
C33   C35   S    
C90   H82   S    
C15   C19   A    
C51   O23   S    
C97   C98   S    
C85   H71   S    
C49   C51   S    
C46   C48   S    
C27   O27   S    
C38   C54   T    
C84   H68   S    
C86   H74   S    
O16   V4    S    
C94   H92   S    
C33   C47   S    
C36   O34   S    
C84   H69   S    
C6    C22   A    
C43   C49   S    
O34   C100  S    
C96   H96   S    
O6    C4    A    
C82   C83   S    
O13   V3    S    
C8    C57   S    
C96   H98   S    
C97   H100  S    
O31   C91   S    
C78   H54   S    
C44   C54   S    
C3    C32   S    
O1    V2    S    
C34   H6    S    
C75   H45   S    
C76   C77   S    
O2    V1    S    
C34   C48   S    
C25   O31   S    
C7    C27   A    
C23   O25   S    
C75   H46   S    
O4    C2    A    
O28   C82   S    
O13   C57   A    
C37   C60   S    
C82   H64   S    
O19   V4    S    
C91   H86   S    
C9    C11   A    
C79   H57   S    
C98   C99   S    
C73   H42   S    
C64   C65   S    
C50   H8    S    
O4    V2    S    
C70   H34   S    
C91   C92   S    
C95   C96   S    
C13   H1    S    
C74   C75   S    
O3    V1    S    
C67   H27   S    
C40   C56   T    
C88   H79   S    
C45   H9    S    
C92   C93   S    
C101  H108  S    
C42   H12   S    
C19   C21   A    
C69   H32   S    
O12   V3    S    
C96   H97   S    
O10   V1    S    
C46   H10   S    
C10   O30   S    
C77   C78   S    
C93   H90   S    
C70   H35   S    
C58   O17   A    
C95   H95   S    
C8    C30   A    
O23   C67   S    
C81   H63   S    
O18   V4    S    
C71   H36   S    
C4    C31   S    
C61   C62   S    
C72   H38   S    
C41   C45   S    
C33   C41   S    
C62   H16   S    
C44   C50   S    
C42   C46   S    
C34   C42   S    
C57   O18   A    
C77   H51   S    
O24   C70   S    
O7    V1    S    
C86   C87   S    
O29   C85   S    
C94   H93   S    
O8    V2    S    
C64   H20   S    
C35   C43   S    
C48   C52   S    
C69   H31   S    
C47   C51   S    
C64   H21   S    
C24   C26   A    
C97   H99   S    
C21   C23   A    
C82   H65   S    
O32   C94   S    
C22   C24   A    
C20   C28   A    
O20   V3    S    
C61   H14   S    
C5    C29   A    
C7    C58   S    
C102  H112  S    
C36   C52   S    
C14   H2    S    
O11   C59   A    
C7    C29   A    
C1    O8    A    
C11   C13   A    
C49   H7    S    
O26   C76   S    
C79   C80   S    
C50   C52   S    
C91   H85   S    
O9    V2    S    
C17   C25   A    
O33   C97   S    
C19   C27   A    
C73   H41   S    
O14   C58   A    
C36   C44   S    
C90   H84   S    
C35   C51   S    
C76   H48   S    
O25   C73   S    
C90   H83   S    
C30   O22   S    
C101  C102  S    
C63   H19   S    
C37   C53   T    
C83   H66   S    
C66   H24   S    
C20   C22   A    
C13   C15   A    
