data_mof_unit_336.cif
_audit_creation_date              2012-12-10T17:35:39-0500
_audit_creation_method            fapswitch 2.2
_symmetry_space_group_name_H-M    P1
_symmetry_Int_Tables_number       1
_space_group_crystal_system       triclinic
_cell_length_a                    10.723067
_cell_length_b                    12.314104
_cell_length_c                    13.25058
_cell_angle_alpha                 116.529091
_cell_angle_beta                  77.382528
_cell_angle_gamma                 101.465902
_cell_volume                      1517.34000367

loop_
_atom_site_label
_atom_site_type_symbol
_atom_type_description
_atom_site_fract_x
_atom_site_fract_y
_atom_site_fract_z
_atom_type_partial_charge
C1    C     C_R   0.516812 0.854746 0.286739 0.834359
C2    C     C_3   0.122003 0.999248 0.498636 -0.124483
C3    C     C_3   0.044185 0.023226 0.618929 0.523756
C4    C     C_3   0.067601 0.874701 0.408659 0.511077
C5    C     C_R   0.342804 0.276922 0.023734 -0.258073
C6    C     C_R   0.463506 0.228385 0.834976 -0.331876
C7    C     C_R   0.653478 0.806860 0.099940 0.542117
C8    C     C_R   0.714862 0.718939 0.003284 -0.291275
C9    C     C_R   0.668857 0.595913 0.968986 0.612402
C10   C     C_R   0.549396 0.559219 0.023094 -0.013536
C11   C     C_R   0.489718 0.648168 0.124935 -0.094221
C12   C     C_R   0.740083 0.999184 0.498652 0.835319
C13   C     C_R   0.490642 0.436186 0.983316 0.003681
C14   C     C_R   0.391598 0.400092 0.056369 -0.039630
C15   C     C_R   0.335435 0.488351 0.156945 -0.130738
C16   C     C_R   0.377434 0.611079 0.185966 -0.093197
C17   C     C_R   0.517672 0.350999 0.869724 0.546957
C18   C     C_R   0.381191 0.190561 0.914481 0.564082
C19   C     C_R   0.546505 0.771456 0.166054 -0.239320
C20   C     C_R   0.706154 0.348171 0.329921 -0.267124
C21   C     C_R   0.324953 0.758533 0.644437 0.183740
C22   C     C_R   0.286674 0.661246 0.675241 -0.211654
C23   C     C_R   0.482111 0.145298 0.713360 0.883411
C24   C     C_R   0.352266 0.558076 0.620627 -0.182934
C25   C     C_R   0.457740 0.550902 0.533911 0.003473
C26   C     C_R   0.493368 0.653076 0.505186 0.281967
C27   C     C_R   0.529220 0.446879 0.474880 -0.026404
C28   C     C_R   0.634035 0.447568 0.388783 0.159349
C29   C     C_R   0.666767 0.547508 0.361917 -0.245787
C30   C     C_R   0.598289 0.647759 0.418822 -0.175366
C31   C     C_R   0.502094 0.341458 0.497159 0.080618
C32   C     C_R   0.674791 0.247913 0.356229 0.135748
C33   C     C_R   0.260107 0.999801 0.499434 0.806503
C34   C     C_3   0.961644 0.100858 0.464511 0.473961
C35   C     C_3   0.104076 0.101879 0.466924 -0.623173
C36   C     C_3   0.900580 0.023744 0.618149 -0.512432
C37   C     C_3   0.922807 0.873799 0.410974 -0.394325
C38   C     C_3   0.878353 0.999311 0.497727 -0.106355
Cu1   Cu    Cu3+1 0.529690 0.098270 0.475420 1.017653
Cu2   Cu    Cu3+1 0.470310 0.901730 0.524580 0.998786
H1    H     H_    0.931344 0.191936 0.526032 0.128162
H2    H     H_    0.804610 0.745660 0.959420 0.215622
H3    H     H_    0.321959 0.676253 0.258216 0.184540
H4    H     H_    0.746866 0.548612 0.296133 0.162113
H5    H     H_    0.786475 0.348160 0.264065 0.163304
H6    H     H_    0.631805 0.719386 0.392033 0.198511
H7    H     H_    0.160762 0.089174 0.382059 0.250191
H8    H     H_    0.140505 0.192829 0.530278 0.165173
H9    H     H_    0.081776 0.113503 0.682310 0.065472
H10   H     H_    0.866644 0.800243 0.434796 0.213931
N1    N     N_R   0.574690 0.246280 0.438200 -0.200941
N2    N     N_R   0.426100 0.754320 0.561190 -0.229161
O1    O     O_R   0.537340 0.972510 0.318130 -0.522601
O2    O     O_R   0.487200 0.806530 0.359650 -0.624736
O3    O     O_R   0.707380 0.082980 0.479220 -0.542682
O4    O     O_R   0.657240 0.917000 0.520740 -0.622526
O5    O     O_R   0.512800 0.193470 0.640350 -0.533804
O6    O     O_R   0.462660 0.027490 0.681870 -0.544026
O7    O     O_R   0.342760 0.083000 0.479260 -0.627268
O8    O     O_R   0.292620 0.917020 0.520780 -0.494533
F1    F     F_    0.085093 0.777814 0.428768 -0.618207
H11   H     H_    0.841362 0.952978 0.644494 0.254877
F2    F     F_    0.057002 0.935214 0.653135 -0.590730
F3    F     F_    0.327120 0.072896 0.883620 -0.634194
H12   H     H_    0.253852 0.462893 0.209911 0.159889
H13   H     H_    0.270448 0.248342 0.081039 0.194690
F4    F     F_    0.580907 0.390439 0.789368 -0.599886
F5    F     F_    0.709307 0.924409 0.136409 -0.625827
F6    F     F_    0.749879 0.514441 0.892542 -0.606055
F7    F     F_    0.945677 0.081955 0.356434 -0.634338
H14   H     H_    0.730186 0.170997 0.311253 0.213457
H15   H     H_    0.424123 0.332908 0.560912 0.126793
H16   H     H_    0.273425 0.838134 0.687251 0.209528
H17   H     H_    0.318457 0.485564 0.647926 0.145389
H18   H     H_    0.205824 0.665812 0.741707 0.177414
H19   H     H_    0.869366 0.113754 0.681602 0.143812
H20   H     H_    0.904381 0.852524 0.324218 0.173712
H21   H     H_    0.119825 0.861010 0.322200 0.067878

loop_
_geom_bond_atom_site_label_1
_geom_bond_atom_site_label_2
_ccdc_geom_bond_type
C2    C35   S    
C23   O6    A    
Cu1   N1    S    
Cu2   O8    S    
C35   H7    S    
C3    H9    S    
C7    C8    A    
C11   C19   A    
C37   C38   S    
C28   C29   A    
C9    F6    S    
C15   C16   A    
C15   H12   S    
C21   H16   S    
C34   C35   S    
C1    O1    A    
C36   H19   S    
C7    F5    S    
Cu1   O3    S    
C8    C9    A    
Cu2   O4    S    
C9    C10   A    
C34   F7    S    
C20   H5    S    
C33   O7    A    
C21   C22   A    
C34   H1    S    
C22   H18   S    
C36   H11   S    
C35   H8    S    
C32   H14   S    
C6    C18   A    
C17   F4    S    
Cu2   O6    S    
C27   C31   A    
C18   F3    S    
C24   C25   A    
C31   N1    A    
Cu1   Cu2   S    
C5    C18   A    
C20   C28   A    
C25   C26   A    
Cu2   N2    S    
C1    C19   S    
C37   H20   S    
C4    F1    S    
C2    C4    S    
C1    O2    A    
C32   N1    A    
C4    H21   S    
C29   C30   A    
C26   N2    A    
C11   C16   A    
Cu1   O7    S    
C16   H3    S    
C5    C14   A    
C12   O4    A    
C2    C33   S    
C31   H15   S    
C26   C30   A    
C33   O8    A    
C7    C19   A    
C29   H4    S    
C22   C24   A    
C20   C32   A    
C23   O5    A    
C6    C17   A    
C34   C38   S    
C30   H6    S    
C8    H2    S    
C5    H13   S    
C10   C13   A    
C3    F2    S    
C25   C27   A    
Cu2   O2    S    
C13   C17   A    
C36   C38   S    
C2    C3    S    
C37   H10   S    
C24   H17   S    
Cu1   O1    S    
C3    C36   S    
C6    C23   S    
C12   C38   S    
C12   O3    A    
C10   C11   A    
C4    C37   S    
C27   C28   A    
C14   C15   A    
C13   C14   A    
C21   N2    A    
Cu1   O5    S    
