data_mof_unit_1817.cif
_audit_creation_date              2012-12-10T17:51:29-0500
_audit_creation_method            fapswitch 2.2
_symmetry_space_group_name_H-M    P1
_symmetry_Int_Tables_number       1
_space_group_crystal_system       triclinic
_cell_length_a                    9.962223
_cell_length_b                    10.75815
_cell_length_c                    17.099844
_cell_angle_alpha                 97.289561
_cell_angle_beta                  83.551229
_cell_angle_gamma                 87.971233
_cell_volume                      1804.06916027

loop_
_atom_site_label
_atom_site_type_symbol
_atom_type_description
_atom_site_fract_x
_atom_site_fract_y
_atom_site_fract_z
_atom_type_partial_charge
C1    C     C_R   0.498706 0.738766 0.494057 0.899172
C2    C     C_R   0.343451 0.504997 0.783292 -0.228613
C3    C     C_R   0.460766 0.465444 0.136075 0.096187
C4    C     C_R   0.438175 0.472651 0.217603 -0.160735
C5    C     C_R   0.661127 0.550473 0.227852 -0.261163
C6    C     C_R   0.681623 0.551359 0.146128 0.509274
C7    C     C_R   0.573457 0.523573 0.100771 -0.105884
C8    C     C_2   0.464280 0.554169 0.983344 -0.306893
C9    C     C_2   0.577886 0.555776 0.018839 0.448668
C10   C     C_R   0.538539 0.513203 0.263759 -0.134162
C11   C     C_R   0.248357 0.897333 0.468182 -0.115454
C12   C     C_R   0.480100 0.491142 0.651226 0.854824
C13   C     C_R   0.149940 0.964074 0.436461 -0.122411
C14   C     C_R   0.184772 0.066187 0.397923 -0.142705
C15   C     C_R   0.313046 0.111860 0.401370 0.169587
C16   C     C_R   0.401981 0.060811 0.448710 0.041803
C17   C     C_R   0.381383 0.940265 0.468463 0.028772
C18   C     C_R   0.498787 0.868810 0.480183 -0.243107
C19   C     C_R   0.625662 0.922971 0.471708 0.155156
C20   C     C_R   0.629532 0.051647 0.486562 0.149367
C21   C     C_R   0.513862 0.123194 0.475258 -0.201137
C22   C     C_R   0.825668 0.675162 0.602537 -0.195376
C23   C     C_R   0.504100 0.258840 0.493793 0.931538
C24   C     C_R   0.872194 0.781395 0.640934 -0.349565
C25   C     C_R   0.009676 0.795547 0.640874 0.410804
C26   C     C_R   0.102815 0.693586 0.606483 0.361248
C27   C     C_R   0.056828 0.591121 0.552776 -0.000795
C28   C     C_R   0.912304 0.586660 0.552353 0.094069
C29   C     C_R   0.943193 0.420313 0.447589 0.232376
C30   C     C_R   0.085105 0.419052 0.448884 -0.120051
C31   C     C_R   0.520651 0.504469 0.348154 0.939240
C32   C     C_R   0.466996 0.477518 0.735060 -0.035965
C33   C     C_R   0.582865 0.446201 0.768814 -0.236157
C34   C     C_R   0.580184 0.461802 0.850189 -0.105270
C35   C     C_R   0.464256 0.517170 0.898133 0.212111
C36   C     C_R   0.343186 0.529922 0.864958 -0.180057
H1    H     H_    0.676930 0.414343 0.732448 0.172345
H2    H     H_    0.215208 0.813826 0.490273 0.201456
H3    H     H_    0.050200 0.929788 0.435673 0.206061
H4    H     H_    0.115240 0.104921 0.362074 0.187731
H5    H     H_    0.718882 0.671835 0.608492 0.233866
H6    H     H_    0.799217 0.855364 0.668494 0.181248
H7    H     H_    0.345940 0.437387 0.244132 0.204506
H8    H     H_    0.149562 0.353831 0.406550 0.168862
H9    H     H_    0.742892 0.575586 0.262655 0.208046
H10   H     H_    0.249941 0.563007 0.901765 0.138926
H11   H     H_    0.250051 0.519029 0.757967 0.154398
H12   H     H_    0.366522 0.565030 0.019180 0.156517
H13   H     H_    0.670628 0.434444 0.874341 0.178724
N1    N     N_R   0.857140 0.501200 0.500750 -0.111976
N2    N     N_R   0.142740 0.501280 0.500770 -0.102865
O1    O     O_R   0.385310 0.683220 0.500000 -0.573901
O2    O     O_R   0.614640 0.683250 0.500010 -0.616708
O3    O     O_R   0.371780 0.500010 0.615800 -0.568433
O4    O     O_R   0.601110 0.500030 0.615800 -0.646809
O5    O     O_R   0.385360 0.316750 0.499990 -0.614927
O6    O     O_R   0.614690 0.316780 0.500000 -0.564047
O7    O     O_R   0.398890 0.499970 0.384200 -0.620649
O8    O     O_R   0.628220 0.499990 0.384200 -0.590132
Zn1   Zn    Zn3+2 0.346870 0.499980 0.499990 1.002725
Zn2   Zn    Zn3+2 0.653130 0.500020 0.500010 1.003579
O9    O     O_3   0.809613 0.574566 0.112101 -0.628884
C37   C     C_3   0.874305 0.460535 0.072120 0.131580
H14   H     H_    0.956189 0.484694 0.027758 0.172046
H15   H     H_    0.805387 0.401728 0.037725 0.158946
C38   C     C_3   0.938150 0.383733 0.129434 -0.386952
H16   H     H_    0.024509 0.433635 0.152227 0.253055
H17   H     H_    0.863151 0.372137 0.180666 0.248945
C39   C     C_3   0.986879 0.253082 0.088284 -0.852699
H18   H     H_    0.899313 0.198464 0.071887 0.257821
H19   H     H_    0.040884 0.202552 0.129136 0.296851
H20   H     H_    0.056456 0.259627 0.033665 0.273508
I1    I     I_    0.801895 0.822951 0.406443 -0.339124
I2    I     I_    0.392437 0.202572 0.306040 -0.358424
I3    I     I_    0.805153 0.121421 0.535304 -0.375666
I4    I     I_    0.870943 0.299207 0.356051 -0.325468
O10   O     O_3   0.056241 0.913886 0.662814 -0.635476
C40   C     C_3   0.997126 0.970584 0.739112 0.043085
H21   H     H_    0.080668 0.993490 0.775258 0.168920
H22   H     H_    0.931405 0.908925 0.772730 0.119748
C41   C     C_3   0.919686 0.093329 0.732053 -0.281030
H23   H     H_    0.981258 0.146875 0.690820 0.259785
H24   H     H_    0.823184 0.072179 0.707719 0.226435
C42   C     C_3   0.888284 0.175302 0.812176 -0.980703
H25   H     H_    0.823627 0.126221 0.854310 0.275778
H26   H     H_    0.833579 0.263508 0.804040 0.263883
H27   H     H_    0.983241 0.199651 0.837631 0.269297
O11   O     O_3   0.238096 0.698304 0.618658 -0.592679
C43   C     C_3   0.267403 0.761420 0.692851 0.158186
H28   H     H_    0.335468 0.699215 0.717739 0.135437
H29   H     H_    0.179476 0.780014 0.739372 0.101157
C44   C     C_3   0.350500 0.876889 0.681706 -0.325402
H30   H     H_    0.445119 0.846729 0.642426 0.196688
H31   H     H_    0.295161 0.946836 0.653422 0.267488
C45   C     C_3   0.391202 0.938766 0.760431 -0.965542
H32   H     H_    0.300820 0.969510 0.803408 0.266095
H33   H     H_    0.450290 0.022011 0.750146 0.276249
H34   H     H_    0.455251 0.871933 0.786446 0.263205
O12   O     O_3   0.698359 0.588927 0.979499 -0.661890
C46   C     C_3   0.701116 0.721311 0.983592 0.162453
H35   H     H_    0.802159 0.748565 0.999452 0.185017
H36   H     H_    0.625163 0.773847 0.030369 0.132672
C47   C     C_3   0.683180 0.761972 0.902544 -0.388859
H37   H     H_    0.758649 0.709127 0.856261 0.229412
H38   H     H_    0.580373 0.741228 0.887078 0.230994
C48   C     C_3   0.700984 0.902199 0.902898 -0.979382
H39   H     H_    0.624594 0.956991 0.947618 0.289942
H40   H     H_    0.687204 0.928412 0.843436 0.267651
H41   H     H_    0.804026 0.926015 0.916841 0.261157
I5    I     I_    0.344847 0.330953 0.074003 -0.442548

loop_
_geom_bond_atom_site_label_1
_geom_bond_atom_site_label_2
_ccdc_geom_bond_type
C38   H17   S    
C30   N2    A    
C37   H15   S    
C16   C21   A    
C11   H2    S    
C24   H6    S    
C45   H32   S    
C42   H27   S    
C41   H23   S    
C45   H34   S    
C23   O5    A    
C29   I4    S    
O3    Zn1   S    
O10   C40   S    
C26   C27   A    
O9    C37   S    
C25   O10   S    
C31   O7    A    
C42   H26   S    
C18   C19   A    
C3    C7    A    
C5    C6    A    
C40   H22   S    
C38   C39   S    
C48   H39   S    
C3    I5    S    
O7    Zn1   S    
C15   C16   A    
C2    C32   A    
C34   C35   A    
C31   O8    A    
C39   H19   S    
C1    O2    A    
C44   H30   S    
O1    Zn1   S    
O2    Zn2   S    
C10   C31   S    
C19   C20   A    
C8    C9    D    
C36   H10   S    
C43   H29   S    
O11   C43   S    
C38   H16   S    
C37   C38   S    
C9    O12   S    
C22   C28   A    
C13   C14   A    
C12   C32   S    
C30   H8    S    
C28   N1    A    
C44   H31   S    
C41   H24   S    
C27   N2    A    
C33   C34   A    
C29   N1    A    
O8    Zn2   S    
C19   I1    S    
C42   H25   S    
C40   H21   S    
C16   C17   A    
C25   C26   A    
C5    H9    S    
C46   C47   S    
C33   H1    S    
O5    Zn1   S    
C20   I3    S    
C35   C36   A    
C39   H20   S    
C8    H12   S    
C29   C30   A    
O12   C46   S    
C46   H36   S    
C17   C18   A    
C1    C18   S    
C47   H38   S    
C24   C25   A    
C43   C44   S    
C21   C23   S    
C22   C24   A    
C4    C10   A    
C3    C4    A    
C47   H37   S    
C41   C42   S    
C2    C36   A    
C23   O6    A    
C11   C17   A    
C34   H13   S    
C45   H33   S    
O6    Zn2   S    
C6    C7    A    
C4    H7    S    
C2    H11   S    
C32   C33   A    
C6    O9    S    
C5    C10   A    
C11   C13   A    
C40   C41   S    
C48   H40   S    
O4    Zn2   S    
C46   H35   S    
C47   C48   S    
C44   C45   S    
C39   H18   S    
C1    O1    A    
C13   H3    S    
C12   O4    A    
C14   H4    S    
C37   H14   S    
C22   H5    S    
C7    C9    S    
C15   I2    S    
C20   C21   A    
C26   O11   S    
C27   C28   A    
N1    Zn2   S    
C14   C15   A    
N2    Zn1   S    
C43   H28   S    
C8    C35   S    
C12   O3    A    
C48   H41   S    
