data_mof_unit_4259.cif
_audit_creation_date              2013-03-05T15:47:47-0500
_audit_creation_method            fapswitch 2.2
_symmetry_space_group_name_H-M    P1
_symmetry_Int_Tables_number       1
_space_group_crystal_system       triclinic
_cell_length_a                    10.816789
_cell_length_b                    13.080495
_cell_length_c                    11.690354
_cell_angle_alpha                 103.518222
_cell_angle_beta                  90.966024
_cell_angle_gamma                 91.01338
_cell_volume                      1607.6048549

loop_
_atom_site_label
_atom_site_type_symbol
_atom_site_description
_atom_site_fract_x
_atom_site_fract_y
_atom_site_fract_z
_atom_type_partial_charge
O1    O     O_R   0.506570 0.354460 0.582000 -0.635432
O2    O     O_R   0.493430 0.645540 0.418000 -0.635566
O3    O     O_R   0.490940 0.341410 0.386200 -0.486732
O4    O     O_R   0.509060 0.658590 0.613800 -0.482651
C1    C     C_R   0.503586 0.297471 0.473782 0.845005
C2    C     C_R   0.496034 0.702376 0.526121 0.886942
O5    O     O_R   0.327470 0.506520 0.597900 -0.566603
O6    O     O_R   0.672530 0.493480 0.402100 -0.594645
O7    O     O_R   0.311840 0.493460 0.402100 -0.527653
O8    O     O_R   0.688160 0.506540 0.597900 -0.514696
C3    C     C_R   0.261997 0.511411 0.505994 0.855804
C4    C     C_R   0.738256 0.489295 0.494279 0.824993
Cu1   Cu    Cu3+1 0.509250 0.507730 0.615930 1.072959
Cu2   Cu    Cu3+1 0.490750 0.492270 0.384070 1.055530
C5    C     C_R   0.103537 0.501789 0.721974 0.360504
C6    C     C_R   0.897398 0.501292 0.280088 0.303046
C7    C     C_R   0.056154 0.433186 0.788436 0.106421
C8    C     C_R   0.942168 0.572944 0.216150 0.115646
C9    C     C_R   0.955689 0.365777 0.744400 0.127467
C10   C     C_R   0.042543 0.640238 0.260797 0.143749
C11   C     C_R   0.893559 0.375395 0.640307 0.100089
C12   C     C_R   0.106233 0.628219 0.363164 0.109184
C13   C     C_R   0.941086 0.445998 0.575667 0.081754
C14   C     C_R   0.059369 0.556195 0.426330 0.074214
C15   C     C_R   0.060224 0.490538 0.604741 -0.148764
C16   C     C_R   0.940543 0.511383 0.396930 -0.128321
C17   C     C_R   0.874298 0.472518 0.482330 -0.078190
C18   C     C_R   0.126302 0.528850 0.518802 -0.048746
C19   C     C_R   0.489901 0.818850 0.546420 -0.238206
C20   C     C_R   0.507018 0.180639 0.453242 -0.186680
C21   C     C_R   0.493697 0.997228 0.340020 0.077713
C22   C     C_R   0.496134 0.001790 0.660609 0.096557
C23   C     C_R   0.508895 0.105636 0.341193 0.395203
C24   C     C_R   0.485732 0.893403 0.658082 0.451420
C25   C     C_R   0.504200 0.143150 0.556414 -0.311570
C26   C     C_R   0.490370 0.856764 0.443666 -0.284603
C27   C     C_R   0.498906 0.036480 0.554738 0.003290
C28   C     C_R   0.493036 0.963650 0.446055 0.094374
H1    H     H_    0.491086 0.801515 0.358968 0.210025
H2    H     H_    0.505237 0.198833 0.640585 0.172844
N1    N     N_R   0.523180 0.519350 0.790130 -0.224591
N2    N     N_R   0.476820 0.480650 0.209870 -0.221911
C29   C     C_R   0.411677 0.383922 0.013242 -0.325458
C30   C     C_R   0.589111 0.615454 0.986725 -0.300669
C31   C     C_R   0.404292 0.401320 0.136290 0.667623
C32   C     C_R   0.595321 0.598857 0.863841 0.664879
C33   C     C_R   0.537166 0.551683 0.160415 0.008986
C34   C     C_R   0.463859 0.447631 0.839459 0.003583
C35   C     C_R   0.530946 0.542610 0.037159 -0.007152
C36   C     C_R   0.470432 0.456458 0.962713 0.007638
H3    H     H_    0.410318 0.384049 0.783498 0.123943
H4    H     H_    0.590465 0.615355 0.216476 0.129786
H5    H     H_    0.361201 0.319136 0.955907 0.168654
H6    H     H_    0.638995 0.680606 0.043931 0.193452
N3    N     N_3   0.084444 0.714376 0.196086 -0.519050
H7    H     H_    0.174521 0.696075 0.168627 0.233588
H8    H     H_    0.085348 0.789634 0.251677 0.223695
N4    N     N_3   0.911994 0.294029 0.811361 -0.476507
H9    H     H_    0.821745 0.313444 0.837377 0.239658
H10   H     H_    0.910996 0.217883 0.757820 0.226010
S1    S     S_3+6 0.166810 0.625132 0.799571 0.043788
O9    O     O_2   0.281997 0.609310 0.865746 -0.313937
O10   O     O_2   0.193958 0.695405 0.717690 -0.240168
O11   O     O_3   0.063157 0.684127 0.897544 -0.482972
H11   H     H_    0.104993 0.750027 0.941221 0.381404
S2    S     S_3+6 0.842010 0.376289 0.199226 0.080097
O12   O     O_2   0.718690 0.386990 0.143478 -0.294493
O13   O     O_2   0.930513 0.334869 0.102470 -0.169456
O14   O     O_3   0.833786 0.288119 0.283462 -0.458477
H12   H     H_    0.757590 0.303526 0.329095 0.358348
N5    N     N_3   0.107655 0.431773 0.901783 -0.467899
H13   H     H_    0.097969 0.505363 0.958907 0.291210
H14   H     H_    0.201695 0.417280 0.891653 0.220243
N6    N     N_3   0.887463 0.578104 0.105245 -0.475554
H15   H     H_    0.897175 0.506467 0.044575 0.285730
H16   H     H_    0.793471 0.590558 0.118316 0.213684
N7    N     N_3   0.788491 0.308736 0.595473 -0.609138
H17   H     H_    0.816236 0.230562 0.576622 0.224506
H18   H     H_    0.722275 0.318261 0.660910 0.234413
N8    N     N_3   0.212119 0.693812 0.407918 -0.577699
H19   H     H_    0.277374 0.684888 0.341667 0.233901
H20   H     H_    0.185065 0.772177 0.428704 0.228720
S3    S     S_3+6 0.462078 0.864964 0.799004 0.081870
O15   O     O_2   0.426644 0.753947 0.797660 -0.218721
O16   O     O_2   0.578095 0.894938 0.872588 -0.210566
O17   O     O_3   0.347512 0.941066 0.864392 -0.499573
H21   H     H_    0.336552 0.921806 0.940730 0.385153
S4    S     S_3+6 0.535419 0.134860 0.200498 0.048620
O18   O     O_2   0.572414 0.245743 0.203498 -0.235547
O19   O     O_2   0.637292 0.066948 0.140996 -0.238117
O20   O     O_3   0.406050 0.105105 0.116884 -0.496854
H22   H     H_    0.428446 0.117344 0.039273 0.402051
N9    N     N_3   0.475631 0.918944 0.231416 -0.595987
H23   H     H_    0.401089 0.938306 0.183292 0.281275
H24   H     H_    0.556140 0.910228 0.182613 0.293981
N10   N     N_3   0.504082 0.076212 0.772890 -0.490695
H25   H     H_    0.586699 0.120059 0.778859 0.225861
H26   H     H_    0.428557 0.126032 0.781222 0.227349
S5    S     S_3+6 0.727483 0.663900 0.820653 0.071903
O21   O     O_2   0.829590 0.586246 0.798552 -0.297787
O22   O     O_2   0.709429 0.707430 0.714173 -0.266738
O23   O     O_3   0.774798 0.764421 0.931852 -0.494023
H27   H     H_    0.846678 0.796866 0.901278 0.409369
S6    S     S_3+6 0.268976 0.340137 0.179623 0.076824
O24   O     O_2   0.171737 0.422147 0.203385 -0.317725
O25   O     O_2   0.221753 0.253143 0.079524 -0.236946
O26   O     O_3   0.283915 0.288304 0.297230 -0.491920
H28   H     H_    0.198231 0.274788 0.319456 0.368859

loop_
_geom_bond_atom_site_label_1
_geom_bond_atom_site_label_2
_geom_bond_distance
_ccdc_geom_bond_type
C30   C35   1.380340 A    
S2    O13   1.502590 D    
N3    H7    1.045259 S    
N9    H23   1.043698 S    
C32   S5    1.790138 S    
S6    O25   1.503955 D    
C33   C35   1.418213 A    
N7    H17   1.044980 S    
C15   C18   1.420649 A    
O5    C3    1.291545 A    
C19   C26   1.402694 A    
C16   C17   1.420268 A    
N6    H16   1.040680 S    
C20   C25   1.404754 A    
O1    C1    1.309235 A    
C9    C11   1.412539 A    
C23   S4    1.799923 S    
C14   C16   1.406415 A    
O14   H12   0.987393 S    
C5    C15   1.414583 A    
S2    O14   1.684653 S    
N4    H10   1.044936 S    
O4    Cu1   1.979327 S    
S1    O10   1.502905 D    
C29   H5    1.082243 S    
C34   H3    1.082085 S    
S3    O15   1.491754 D    
N10   H26   1.045651 S    
S5    O23   1.683843 S    
N1    C32   1.400960 A    
C21   C23   1.421480 A    
C13   C17   1.411412 A    
Cu2   N2    2.009257 S    
C34   C36   1.418797 A    
S2    O12   1.497864 D    
C8    N6    1.432525 S    
Cu1   Cu2   2.674304 S    
O2    C2    1.307622 A    
C10   N3    1.434264 S    
Cu1   N1    2.009257 S    
S6    O24   1.498225 D    
C30   C32   1.404739 A    
N7    H18   1.044410 S    
C9    N4    1.434285 S    
C6    C16   1.411741 A    
N6    H15   1.042787 S    
C4    C17   1.495701 S    
O23   H27   0.990453 S    
O4    C2    1.292660 A    
O20   H22   0.990686 S    
N5    H14   1.041672 S    
O17   H21   0.990727 S    
N4    H9    1.045295 S    
C21   N9    1.440636 S    
C19   C24   1.437162 A    
N2    C31   1.401172 A    
C22   C24   1.413583 A    
S1    O11   1.680796 S    
O7    Cu2   1.950148 S    
C27   C28   1.398257 A    
C31   S6    1.792374 S    
O7    C3    1.309272 A    
S5    O21   1.498320 D    
S4    O20   1.679848 S    
O6    C4    1.293362 A    
N10   H25   1.045692 S    
C2    C19   1.488942 S    
C5    S1    1.774853 S    
C6    C8    1.412550 A    
C22   C27   1.414894 A    
C29   C31   1.406719 A    
O3    Cu2   1.979330 S    
O8    C4    1.307911 A    
N8    H20   1.044982 S    
C22   N10   1.440084 S    
S4    O19   1.502933 D    
C7    N5    1.432966 S    
N3    H8    1.044926 S    
C12   C14   1.418035 A    
O1    Cu1   1.950224 S    
C24   S3    1.793109 S    
O26   H28   0.990736 S    
C25   C27   1.391001 A    
C1    C20   1.491721 S    
C5    C7    1.412342 A    
O6    Cu2   1.973394 S    
C20   C23   1.442062 A    
S3    O16   1.502356 D    
C26   H1    1.081040 S    
C14   C18   1.408643 A    
C10   C12   1.412584 A    
N8    H19   1.044410 S    
O3    C1    1.292483 A    
O8    Cu1   1.950148 S    
C29   C36   1.380738 A    
C33   H4    1.081968 S    
C21   C28   1.408641 A    
O11   H11   0.990555 S    
C11   C13   1.418023 A    
C25   H2    1.078497 S    
C12   N8    1.434173 S    
N5    H13   1.043509 S    
C3    C18   1.494040 S    
C26   C28   1.391641 A    
C7    C9    1.399452 A    
N1    C34   1.366918 A    
C8    C10   1.399417 A    
N2    C33   1.366030 A    
C13   C15   1.407752 A    
S1    O9    1.498383 D    
O2    Cu2   1.950221 S    
C30   H6    1.081563 S    
O5    Cu1   1.973393 S    
S3    O17   1.682497 S    
C6    S2    1.774748 S    
S4    O18   1.490050 D    
N9    H24   1.042461 S    
C35   C36   1.397137 A    
C11   N7    1.434504 S    
S5    O22   1.496312 D    
S6    O26   1.675778 S    
