data_mof_unit_4583.cif
_audit_creation_date              2012-12-10T18:58:43-0500
_audit_creation_method            fapswitch 2.2
_symmetry_space_group_name_H-M    P1
_symmetry_Int_Tables_number       1
_space_group_crystal_system       triclinic
_cell_length_a                    13.034596
_cell_length_b                    10.779007
_cell_length_c                    9.618644
_cell_angle_alpha                 91.109544
_cell_angle_beta                  96.786044
_cell_angle_gamma                 90.945471
_cell_volume                      1341.45997679

loop_
_atom_site_label
_atom_site_type_symbol
_atom_type_description
_atom_site_fract_x
_atom_site_fract_y
_atom_site_fract_z
_atom_type_partial_charge
C1    C     C_R   0.497793 0.262746 0.498849 0.849259
C2    C     C_R   0.027844 0.513012 0.558711 0.088472
C3    C     C_R   0.970198 0.479264 0.428820 0.007121
C4    C     C_R   0.862667 0.457197 0.424987 0.117889
C5    C     C_R   0.869880 0.531641 0.666261 -0.305837
C6    C     C_R   0.977334 0.538633 0.677176 0.172028
C7    C     C_R   0.553424 0.067470 0.601330 0.018058
C8    C     C_R   0.490853 0.129200 0.498975 -0.135051
C9    C     C_R   0.415421 0.061398 0.409377 0.195607
C10   C     C_R   0.417620 0.929984 0.408830 0.046224
C11   C     C_R   0.491514 0.870284 0.502622 -0.110637
C12   C     C_R   0.300517 0.499389 0.472328 0.843764
C13   C     C_R   0.553517 0.940111 0.604066 0.033252
C14   C     C_3   0.668164 0.939157 0.646250 -0.044387
C15   C     C_3   0.667169 0.080411 0.642596 -0.489860
C16   C     C_R   0.505539 0.608766 0.076191 0.184623
C17   C     C_R   0.477185 0.394708 0.066326 0.251992
C18   C     C_R   0.479424 0.395016 0.918938 -0.135774
C19   C     C_R   0.505344 0.608611 0.930205 0.152044
C20   C     C_3   0.583274 0.713340 0.938701 -0.084504
C21   C     C_3   0.581226 0.715711 0.098069 -0.077121
C22   C     C_R   0.499281 0.737201 0.500941 0.864669
C23   C     C_R   0.699221 0.496279 0.526544 0.828549
C24   C     C_R   0.812330 0.493021 0.540711 -0.085826
C25   C     C_R   0.187054 0.496871 0.452406 -0.117910
C26   C     C_R   0.021548 0.469147 0.307196 0.205055
C27   C     C_R   0.130237 0.474402 0.319636 0.094049
C28   C     C_R   0.135298 0.519704 0.568889 -0.289002
Cu1   Cu    Cu3+1 0.499990 0.499980 0.640670 0.930223
Cu2   Cu    Cu3+1 0.500010 0.500020 0.359330 1.002899
H1    H     H_    0.685454 0.125126 0.747906 0.184890
H2    H     H_    0.708292 0.121929 0.559224 0.192749
H3    H     H_    0.462947 0.309529 0.859498 0.150604
H4    H     H_    0.552286 0.799036 0.888011 0.128852
H5    H     H_    0.546981 0.801476 0.137813 0.117621
H6    H     H_    0.831753 0.556666 0.756391 0.164390
H7    H     H_    0.179630 0.542282 0.668892 0.208708
H8    H     H_    0.690060 0.902928 0.752664 0.169176
N1    N     N_R   0.500660 0.500930 0.148010 -0.165929
N2    N     N_R   0.500660 0.500890 0.852110 -0.191352
O1    O     O_R   0.500000 0.319640 0.618810 -0.603460
O2    O     O_R   0.500010 0.319680 0.381230 -0.524672
O3    O     O_R   0.348990 0.499960 0.599490 -0.599886
O4    O     O_R   0.349000 0.500000 0.361910 -0.521449
O5    O     O_R   0.499990 0.680320 0.618770 -0.599265
O6    O     O_R   0.500000 0.680360 0.381190 -0.579266
O7    O     O_R   0.651000 0.500000 0.638090 -0.604459
O8    O     O_R   0.651010 0.500040 0.400510 -0.556160
N3    N     N_3   0.805334 0.385516 0.313056 -0.569386
H9    H     H_    0.787076 0.440640 0.225906 0.284559
H10   H     H_    0.847781 0.308595 0.287498 0.218049
N4    N     N_3   0.724740 0.881839 0.539525 -0.610886
H11   H     H_    0.704054 0.922173 0.442310 0.226037
H12   H     H_    0.803426 0.900915 0.567674 0.228582
N5    N     N_3   0.446000 0.282505 0.126396 -0.504819
H13   H     H_    0.372106 0.257804 0.078387 0.192736
H14   H     H_    0.496540 0.212754 0.103162 0.186522
N6    N     N_3   0.683255 0.677998 0.896111 -0.579287
H15   H     H_    0.679643 0.687950 0.788066 0.252095
H16   H     H_    0.697829 0.584796 0.918142 0.253497
N7    N     N_3   0.679488 0.684021 0.177643 -0.537116
H17   H     H_    0.672160 0.698749 0.283452 0.250396
H18   H     H_    0.734121 0.750875 0.156127 0.222137
N8    N     N_2   0.964103 0.468233 0.171777 -0.456080
H19   H     H_    0.992617 0.413704 0.096651 0.241496
C29   C     C_3   0.934173 0.590325 0.123800 -0.724673
H20   H     H_    0.881242 0.581316 0.024933 0.234842
H21   H     H_    0.003273 0.646346 0.105111 0.222653
H22   H     H_    0.893400 0.639619 0.202824 0.250451
N9    N     N_3   0.035075 0.575099 0.807981 -0.625218
H23   H     H_    0.021196 0.508563 0.881233 0.221550
H24   H     H_    0.007563 0.660259 0.840174 0.221481
N10   N     N_3   0.182820 0.458887 0.197443 -0.553669
H25   H     H_    0.159657 0.527676 0.125989 0.230052
H26   H     H_    0.163456 0.371805 0.151242 0.197597
N11   N     N_2   0.336920 0.124814 0.324453 -0.410181
H27   H     H_    0.312718 0.082261 0.229122 0.240774
C30   C     C_3   0.251386 0.162038 0.397901 -0.682708
H28   H     H_    0.194515 0.212305 0.325972 0.222503
H29   H     H_    0.278767 0.224617 0.488202 0.223911
H30   H     H_    0.212089 0.079277 0.436035 0.211077
N12   N     N_3   0.345507 0.856702 0.315612 -0.585018
H31   H     H_    0.356633 0.876887 0.212552 0.203611
H32   H     H_    0.270469 0.880477 0.332316 0.221475

loop_
_geom_bond_atom_site_label_1
_geom_bond_atom_site_label_2
_ccdc_geom_bond_type
C29   H21   S    
N5    H13   S    
C16   C21   S    
C1    C8    S    
N10   H25   S    
C19   C20   S    
C7    C8    A    
C25   C28   A    
C26   C27   A    
Cu1   O7    S    
Cu2   O8    S    
N11   C30   S    
C12   O3    A    
C5    C6    A    
C4    C24   A    
C30   H29   S    
C29   H22   S    
N6    H16   S    
C5    H6    S    
C17   N1    A    
N7    H18   S    
C18   N2    A    
C26   N8    S    
C14   N4    S    
C8    C9    A    
N3    H10   S    
C23   C24   S    
N9    H23   S    
C9    N11   S    
C9    C10   A    
C17   N5    S    
C21   N7    S    
C20   H4    S    
C7    C15   S    
C29   H20   S    
C13   C14   S    
Cu1   O3    S    
N10   H26   S    
Cu2   O4    S    
C2    C6    A    
N4    H12   S    
C23   O7    A    
C15   H2    S    
N11   H27   S    
C10   C11   A    
C30   H28   S    
N6    H15   S    
C10   N12   S    
Cu1   O5    S    
N8    C29   S    
Cu1   Cu2   S    
C14   H8    S    
C17   C18   A    
C1    O1    A    
C22   O6    A    
N12   H31   S    
N12   H32   S    
N5    H14   S    
C20   N6    S    
C3    C4    A    
N4    H11   S    
C6    N9    S    
C23   O8    A    
Cu1   O1    S    
Cu2   O6    S    
C3    C26   A    
N9    H24   S    
C15   H1    S    
C21   H5    S    
C25   C27   A    
C12   C25   S    
C11   C22   S    
C4    N3    S    
N8    H19   S    
C2    C3    A    
C12   O4    A    
C11   C13   A    
C30   H30   S    
C5    C24   A    
C28   H7    S    
C16   C19   A    
Cu1   N2    S    
Cu2   N1    S    
N7    H17   S    
C18   H3    S    
C19   N2    A    
C16   N1    A    
C1    O2    A    
C7    C13   A    
C22   O5    A    
C20   C21   S    
N3    H9    S    
C14   C15   S    
Cu2   O2    S    
C2    C28   A    
C27   N10   S    
