data_mof_unit_3234.cif
_audit_creation_date              2012-12-11T14:23:10-0500
_audit_creation_method            fapswitch 2.2
_symmetry_space_group_name_H-M    P1
_symmetry_Int_Tables_number       1
_space_group_crystal_system       triclinic
_cell_length_a                    11.049472
_cell_length_b                    11.04389
_cell_length_c                    18.636179
_cell_angle_alpha                 90.298741
_cell_angle_beta                  89.734745
_cell_angle_gamma                 59.333116
_cell_volume                      1956.01310515

loop_
_atom_site_label
_atom_site_type_symbol
_atom_type_description
_atom_site_fract_x
_atom_site_fract_y
_atom_site_fract_z
_atom_type_partial_charge
C1    C     C_R   0.240085 0.644293 0.610920 0.552894
C2    C     C_R   0.564625 0.171825 0.714364 -0.156954
C3    C     C_R   0.569968 0.176919 0.787011 -0.168748
C4    C     C_R   0.656299 0.625173 0.599377 0.571527
C5    C     C_R   0.926861 0.130399 0.812133 -0.095256
C6    C     C_R   0.040291 0.108960 0.769660 -0.146024
C7    C     C_R   0.036967 0.095803 0.695616 -0.136963
C8    C     C_R   0.919348 0.105846 0.663259 -0.082270
C9    C     C_R   0.673762 0.160978 0.672060 -0.002812
C10   C     C_R   0.199520 0.655348 0.838793 -0.008373
C11   C     C_R   0.210594 0.538354 0.801482 0.017245
C12   C     C_3   0.628771 0.633422 0.804703 -0.213775
C13   C     C_R   0.202082 0.541761 0.725460 0.019598
C14   C     C_R   0.220291 0.752564 0.727832 -0.156511
C15   C     C_R   0.217947 0.753753 0.801545 -0.159585
C16   C     C_R   0.631054 0.223394 0.601016 0.546049
C17   C     C_R   0.223794 0.421159 0.838458 -0.092080
C18   C     C_R   0.213524 0.316569 0.802358 -0.151053
C19   C     C_R   0.192065 0.325589 0.728796 -0.160178
C20   C     C_R   0.185155 0.436984 0.690615 -0.102052
C21   C     C_R   0.207728 0.651478 0.688155 -0.002005
C22   C     C_R   0.708840 0.693957 0.181857 -0.009751
C23   C     C_3   0.726798 0.694870 0.807189 0.029661
C24   C     C_R   0.796496 0.560441 0.214008 0.048809
C25   C     C_R   0.739349 0.519177 0.268547 0.032653
C26   C     C_R   0.552312 0.759868 0.283945 -0.141269
C27   C     C_R   0.586734 0.792705 0.217784 -0.156207
C28   C     C_R   0.275611 0.626508 0.391553 0.548900
C29   C     C_R   0.930265 0.458505 0.187069 -0.086710
C30   C     C_R   0.974228 0.317394 0.191903 -0.132514
C31   C     C_R   0.903014 0.276172 0.236902 -0.121997
C32   C     C_R   0.789994 0.375314 0.277752 -0.088266
C33   C     C_R   0.630934 0.622982 0.310681 -0.010324
C34   C     C_3   0.680916 0.657161 0.673493 0.082589
C35   C     C_R   0.689441 0.065975 0.192025 -0.012880
C36   C     C_R   0.566868 0.100900 0.233164 0.005292
C37   C     C_R   0.581457 0.078965 0.308057 0.068974
C38   C     C_R   0.804017 0.064489 0.304338 -0.181838
C39   C     C_R   0.812701 0.031411 0.230651 -0.161029
C40   C     C_R   0.617001 0.591054 0.385192 0.532959
C41   C     C_R   0.429385 0.167907 0.205966 -0.128658
C42   C     C_R   0.317415 0.196735 0.251391 -0.175154
C43   C     C_R   0.339928 0.145285 0.321011 -0.112620
C44   C     C_R   0.475401 0.071779 0.347851 0.056078
C45   C     C_3   0.840967 0.572607 0.690396 -0.230273
C46   C     C_R   0.678360 0.107487 0.341104 -0.000217
C47   C     C_R   0.206692 0.640778 0.166801 -0.003603
C48   C     C_R   0.252903 0.725405 0.198312 0.035851
C49   C     C_R   0.233024 0.748314 0.272559 0.025273
C50   C     C_R   0.231091 0.529933 0.281150 -0.148530
C51   C     C_R   0.210020 0.533595 0.207338 -0.157357
C52   C     C_R   0.625475 0.213562 0.400783 0.518260
C53   C     C_R   0.285726 0.810886 0.156427 -0.059152
C54   C     C_R   0.257055 0.940047 0.183411 -0.112825
C55   C     C_R   0.204915 0.978128 0.252919 -0.166357
C56   C     C_3   0.597719 0.615518 0.726107 -0.021655
C57   C     C_R   0.197395 0.882962 0.298192 -0.122049
C58   C     C_R   0.236550 0.640563 0.315424 -0.006823
C59   C     C_R   0.702693 0.101938 0.895932 0.542837
C60   C     C_R   0.756234 0.711228 0.882841 0.563070
C61   C     C_R   0.123375 0.702413 0.907509 0.530635
C62   C     C_R   0.699846 0.045794 0.112297 0.546001
C63   C     C_R   0.732675 0.715767 0.106524 0.546626
C64   C     C_3   0.656300 0.837183 0.766067 -0.244306
C65   C     C_R   0.109605 0.700250 0.105872 0.525102
C66   C     C_3   0.629586 0.814922 0.686554 -0.276578
C67   C     C_R   0.691400 0.152923 0.822172 -0.018338
C68   C     C_3   0.866544 0.593577 0.768701 -0.238979
C69   C     C_3   0.496363 0.004464 0.421653 -0.263719
C70   C     C_3   0.649056 0.895033 0.439472 -0.398842
C71   C     C_R   0.807172 0.137635 0.780876 0.011536
C72   C     C_R   0.800634 0.133585 0.704634 0.020519
Cr1   Cr    Cr6+3 0.392940 0.397950 0.502230 0.988640
Cr2   Cr    Cr6+3 0.398400 0.708500 0.501260 0.974614
Cr3   Cr    Cr6+3 0.708640 0.393530 0.496460 0.998040
Cr4   Cr    Cr6+3 0.937880 0.938320 0.007620 0.995282
Cr5   Cr    Cr6+3 0.625560 0.937220 0.994510 0.985630
Cr6   Cr    Cr6+3 0.938080 0.625010 0.001190 0.979282
H1    H     H_    0.726319 0.882027 0.767853 0.131543
H2    H     H_    0.236688 0.830229 0.701925 0.140623
H3    H     H_    0.554540 0.914196 0.792067 0.138175
H4    H     H_    0.245444 0.407832 0.895347 0.131874
H5    H     H_    0.220555 0.838776 0.829280 0.139724
H6    H     H_    0.224536 0.227694 0.831889 0.100845
H7    H     H_    0.182085 0.245489 0.700773 0.105998
H8    H     H_    0.159208 0.441715 0.634665 0.136085
H9    H     H_    0.463324 0.839930 0.313460 0.159914
H10   H     H_    0.992010 0.486093 0.154118 0.151487
H11   H     H_    0.518558 0.893976 0.194402 0.150778
H12   H     H_    0.920164 0.489356 0.795407 0.162049
H13   H     H_    0.062828 0.240505 0.160342 0.099850
H14   H     H_    0.939400 0.167230 0.240968 0.122404
H15   H     H_    0.515360 0.881183 0.674802 0.113053
H16   H     H_    0.735877 0.341201 0.312069 0.148659
H17   H     H_    0.890734 0.063638 0.331439 0.115746
H18   H     H_    0.403387 0.210692 0.152765 0.155753
H19   H     H_    0.912243 0.991242 0.202831 0.163062
H20   H     H_    0.212389 0.259498 0.232767 0.107810
H21   H     H_    0.251565 0.164476 0.354652 0.095942
H22   H     H_    0.235827 0.445178 0.311996 0.162310
H23   H     H_    0.887705 0.457830 0.680379 0.155582
H24   H     H_    0.315013 0.786366 0.100348 0.129377
H25   H     H_    0.192479 0.456503 0.182040 0.107473
H26   H     H_    0.686340 0.849294 0.650172 0.112307
H27   H     H_    0.268085 0.012846 0.149306 0.107261
H28   H     H_    0.165911 0.082793 0.272070 0.117314
H29   H     H_    0.150765 0.923540 0.350114 0.146213
H30   H     H_    0.935982 0.638638 0.771325 0.132715
H31   H     H_    0.897207 0.608626 0.654684 0.107114
H32   H     H_    0.678074 0.531183 0.833454 0.141584
H33   H     H_    0.527810 0.705126 0.833051 0.117579
H34   H     H_    0.468808 0.185344 0.691517 0.159864
H35   H     H_    0.484168 0.688920 0.716795 0.150231
H36   H     H_    0.728949 0.401166 0.727781 0.244864
H37   H     H_    0.558603 0.455602 0.744636 0.232069
H38   H     H_    0.650938 0.832581 0.486382 0.156057
H39   H     H_    0.701551 0.822202 0.393416 0.172961
H40   H     H_    0.709153 0.946606 0.454343 0.132928
H41   H     H_    0.450737 0.085103 0.464972 0.163224
H42   H     H_    0.434199 0.951405 0.423745 0.144981
H43   H     H_    0.933254 0.146510 0.868754 0.146607
H44   H     H_    0.480790 0.187031 0.815890 0.159091
H45   H     H_    0.133007 0.098425 0.794560 0.095032
H46   H     H_    0.127101 0.074826 0.663073 0.096495
H47   H     H_    0.923489 0.089038 0.605868 0.125463
N1    N     N_3   0.626092 0.472711 0.712346 -0.594703
O1    O     O_R   0.507340 0.255690 0.581430 -0.535081
O2    O     O_R   0.837290 0.593240 0.915240 -0.516258
O3    O     O_R   0.065320 0.635310 0.931580 -0.523452
O4    O     O_R   0.280360 0.527380 0.578910 -0.500497
O5    O     O_R   0.068470 0.828620 0.091850 -0.531010
O6    O     O_R   0.799150 0.057200 0.079350 -0.484148
O7    O     O_R   0.585220 0.080180 0.076770 -0.537066
O8    O     O_R   0.627170 0.809480 0.067050 -0.504673
O9    O     O_R   0.816200 0.596410 0.076500 -0.509530
O10   O     O_R   0.045770 0.638240 0.081070 -0.541412
O11   O     O_3   0.833840 0.833520 0.001110 -0.293128
O12   O     O_R   0.524510 0.695820 0.424050 -0.532044
O13   O     O_R   0.260600 0.739610 0.584580 -0.524885
O14   O     O_R   0.532370 0.695050 0.573830 -0.508767
O15   O     O_R   0.744850 0.503430 0.576380 -0.503726
O16   O     O_R   0.699080 0.276500 0.571950 -0.488604
O17   O     O_R   0.498860 0.256520 0.419860 -0.523811
O18   O     O_R   0.272490 0.528150 0.429140 -0.498738
O19   O     O_R   0.252110 0.740440 0.423010 -0.542065
O20   O     O_R   0.736370 0.504260 0.414810 -0.514008
O21   O     O_R   0.691220 0.277270 0.422180 -0.538693
O22   O     O_3   0.499990 0.499990 0.499980 -0.258391
O23   O     O_R   0.089570 0.825450 0.930590 -0.522856
O24   O     O_R   0.818700 0.054260 0.929860 -0.500526
O25   O     O_R   0.606310 0.077010 0.915520 -0.535167
O26   O     O_R   0.646730 0.806540 0.917560 -0.501805

loop_
_geom_bond_atom_site_label_1
_geom_bond_atom_site_label_2
_ccdc_geom_bond_type
C32   H16   S    
C1    C21   S    
C5    H43   S    
Cr4   O6    S    
C41   C42   A    
Cr2   O19   S    
C16   O16   A    
C19   C20   A    
C9    C72   A    
C7    H46   S    
Cr6   O2    S    
Cr5   O25   S    
C12   H32   S    
C7    C8    A    
C53   C54   A    
C34   C56   S    
Cr2   O12   S    
C12   C23   S    
C2    H34   S    
C26   C27   A    
H37   N1    S    
C62   O7    A    
Cr2   O22   S    
C36   C37   A    
Cr6   O3    S    
C43   H21   S    
C18   C19   A    
C10   C15   A    
C42   H20   S    
C30   C31   A    
H36   N1    S    
Cr4   O5    S    
C45   H31   S    
C39   H19   S    
C41   H18   S    
C70   H39   S    
C51   H25   S    
C46   C52   S    
C49   C57   A    
C17   H4    S    
C60   O26   A    
C24   C29   A    
C29   H10   S    
Cr3   O15   S    
C59   C67   S    
C22   C63   S    
Cr1   O4    S    
C35   C36   A    
C26   H9    S    
C20   H8    S    
C38   H17   S    
C47   C48   A    
C68   H12   S    
C56   H35   S    
C28   O18   A    
C14   H2    S    
Cr6   O9    S    
C1    O13   A    
C3    H44   S    
C61   O3    A    
C25   C32   A    
C34   C66   S    
C36   C41   A    
C23   C60   S    
Cr5   O7    S    
C6    H45   S    
Cr5   O26   S    
C65   O5    A    
C50   C51   A    
Cr3   O20   S    
C48   C53   A    
C4    C34   S    
C8    C72   A    
C52   O17   A    
Cr1   O22   S    
C50   C58   A    
C63   O8    A    
C66   H26   S    
C60   O2    A    
C38   C39   A    
C24   C25   A    
C1    O4    A    
C4    O15   A    
C47   C51   A    
C55   H28   S    
Cr3   O21   S    
Cr4   O11   S    
Cr2   O14   S    
C69   H41   S    
C49   C58   A    
C40   O12   A    
C64   C66   S    
C23   C68   S    
C35   C39   A    
C43   C44   A    
C29   C30   A    
Cr3   O16   S    
C62   O6    A    
C59   O25   A    
C4    O14   A    
C26   C33   A    
C18   H6    S    
C31   C32   A    
Cr4   O24   S    
C53   H24   S    
C45   C68   S    
C17   C18   A    
C28   O19   A    
C13   C21   A    
C44   C69   S    
C34   C45   S    
C12   C56   S    
C45   H23   S    
C66   H15   S    
C48   C49   A    
C57   H29   S    
C52   O21   A    
C56   N1    S    
C22   C27   A    
C55   C57   A    
C64   H1    S    
C22   C24   A    
C10   C61   S    
C42   C43   A    
Cr6   O11   S    
C14   C21   A    
C63   O9    A    
Cr1   O17   S    
C59   O24   A    
C54   C55   A    
C11   C17   A    
C13   C20   A    
C9    C16   S    
C3    C67   A    
Cr5   O11   S    
C30   H13   S    
C19   H7    S    
C15   H5    S    
C6    C7    A    
C28   C58   S    
Cr3   O22   S    
Cr2   O13   S    
C69   H42   S    
C50   H22   S    
C40   O20   A    
C70   H38   S    
C37   C44   A    
C2    C3    A    
C23   C64   S    
C71   C72   A    
C5    C71   A    
Cr1   O1    S    
C11   C13   A    
C5    C6    A    
C61   O23   A    
Cr4   O23   S    
C54   H27   S    
C27   H11   S    
C35   C62   S    
C67   C71   A    
C69   C70   S    
C16   O1    A    
C64   H3    S    
C38   C46   A    
C65   O10   A    
C10   C11   A    
C8    H47   S    
C70   H40   S    
C31   H14   S    
Cr5   O8    S    
C33   C40   S    
C14   C15   A    
C68   H30   S    
C37   C46   A    
C2    C9    A    
Cr6   O10   S    
C47   C65   S    
C12   H33   S    
C25   C33   A    
Cr1   O18   S    
