data_mof_unit_475.cif
_audit_creation_date              2012-12-10T17:03:37-0500
_audit_creation_method            fapswitch 2.2
_symmetry_space_group_name_H-M    P1
_symmetry_Int_Tables_number       1
_space_group_crystal_system       triclinic
_cell_length_a                    10.065757
_cell_length_b                    10.714173
_cell_length_c                    13.062404
_cell_angle_alpha                 90.100256
_cell_angle_beta                  69.28127
_cell_angle_gamma                 91.218004
_cell_volume                      1317.30377403

loop_
_atom_site_label
_atom_site_type_symbol
_atom_type_description
_atom_site_fract_x
_atom_site_fract_y
_atom_site_fract_z
_atom_type_partial_charge
C1    C     C_R   0.500068 0.737123 0.503771 0.947185
C2    C     C_R   0.363162 0.488601 0.825938 -0.122922
C3    C     C_2   0.618489 0.068758 0.474149 -0.396474
C4    C     C_R   0.419438 0.497155 0.705282 0.851298
C5    C     C_2   0.509541 0.133281 0.468688 0.438981
C6    C     C_2   0.614981 0.935425 0.465296 0.686540
C7    C     C_2   0.498567 0.867795 0.523635 -0.062860
C8    C     C_2   0.060482 0.404166 0.525791 0.710208
C9    C     C_2   0.923570 0.400375 0.503741 -0.089569
C10   C     C_R   0.502051 0.263161 0.492539 0.816159
C11   C     C_R   0.580262 0.498226 0.294857 0.907264
C12   C     C_R   0.432565 0.478168 0.985531 0.079306
C13   C     C_R   0.774228 0.375096 0.010233 0.626089
C14   C     C_R   0.631663 0.480756 0.175796 -0.157812
C15   C     C_R   0.234517 0.547114 0.888626 0.195746
C16   C     C_R   0.203594 0.563433 0.000530 -0.125153
C17   C     C_R   0.302541 0.533744 0.047785 -0.200231
C18   C     C_3   0.866404 0.386407 0.166408 -0.730821
C19   C     C_3   0.375491 0.915358 0.620213 -0.865146
C20   C     C_3   0.870853 0.612451 0.554791 -0.408324
C21   C     C_3   0.787315 0.242983 0.806457 -0.688441
C22   C     C_3   0.129681 0.594295 0.839645 -0.809829
C23   C     C_R   0.449691 0.436763 0.879819 0.003593
C24   C     C_3   0.522205 0.247182 0.757326 -0.878612
C25   C     C_R   0.543821 0.459887 0.026033 -0.016469
C26   C     C_R   0.664258 0.388621 0.966312 -0.075009
C27   C     C_R   0.666356 0.327645 0.868840 0.112128
C28   C     C_R   0.551215 0.343806 0.832005 0.202775
C29   C     C_R   0.538048 0.513565 0.124729 -0.247052
C30   C     C_R   0.755956 0.416171 0.116615 0.045514
F1    F     F_    0.404631 0.078617 0.439561 -0.621409
F2    F     F_    0.730282 0.881602 0.390548 -0.648803
F3    F     F_    0.092488 0.303994 0.575464 -0.672070
F4    F     F_    0.138912 0.570495 0.418034 -0.605508
F5    F     F_    0.897020 0.317452 0.953466 -0.691322
H1    H     H_    0.881027 0.309415 0.493277 0.136416
H2    H     H_    0.399044 0.006676 0.650850 0.241251
H3    H     H_    0.279375 0.922131 0.597710 0.312116
H4    H     H_    0.765786 0.646062 0.607265 0.204203
H5    H     H_    0.928190 0.599526 0.612461 0.127894
H6    H     H_    0.921662 0.687253 0.494065 0.255887
H7    H     H_    0.777163 0.199548 0.732755 0.213798
H8    H     H_    0.888275 0.298259 0.776301 0.291233
H9    H     H_    0.794778 0.165508 0.860366 0.267150
H10   H     H_    0.036137 0.636652 0.902345 0.226819
H11   H     H_    0.180825 0.667161 0.776980 0.227503
H12   H     H_    0.455872 0.577526 0.167527 0.190869
H13   H     H_    0.089357 0.515676 0.802500 0.274902
H14   H     H_    0.521996 0.152375 0.791645 0.238957
H15   H     H_    0.605714 0.252893 0.675553 0.253883
H16   H     H_    0.416831 0.256922 0.749324 0.233683
H17   H     H_    0.271723 0.551730 0.134229 0.182846
H18   H     H_    0.105158 0.605317 0.051041 0.161832
H19   H     H_    0.709311 0.112595 0.487451 0.152351
H20   H     H_    0.819250 0.323557 0.238262 0.236430
H21   H     H_    0.959824 0.338884 0.108630 0.281440
H22   H     H_    0.906464 0.474008 0.191891 0.239202
H23   H     H_    0.351470 0.848819 0.689873 0.208600
N1    N     N_2   0.148270 0.498670 0.498870 0.087935
N2    N     N_2   0.852610 0.498640 0.498840 -0.069005
O1    O     O_R   0.386950 0.680940 0.500020 -0.574048
O2    O     O_R   0.613110 0.680900 0.499980 -0.596093
O3    O     O_R   0.330780 0.500000 0.653640 -0.606791
O4    O     O_R   0.556930 0.499960 0.653610 -0.615654
O5    O     O_R   0.386890 0.319100 0.500020 -0.508359
O6    O     O_R   0.613050 0.319060 0.499980 -0.681184
O7    O     O_R   0.443070 0.500040 0.346390 -0.564163
O8    O     O_R   0.669220 0.500000 0.346360 -0.596589
Zn1   Zn    Zn3+2 0.349000 0.500030 0.500020 1.097543
Zn2   Zn    Zn3+2 0.651000 0.499970 0.499980 0.958191

loop_
_geom_bond_atom_site_label_1
_geom_bond_atom_site_label_2
_ccdc_geom_bond_type
C12   C17   A    
C26   C27   A    
C9    H1    S    
C2    C4    S    
C6    C7    D    
C18   C30   S    
C19   H3    S    
O4    Zn2   S    
C20   N2    S    
C21   H9    S    
C4    O4    A    
C18   H22   S    
C6    F2    S    
C4    O3    A    
C18   H21   S    
C12   C25   A    
C3    C5    D    
C9    N2    D    
C1    O2    A    
C3    C6    S    
C24   H16   S    
C20   H6    S    
C21   C27   S    
C14   C30   A    
C5    C10   S    
C8    N1    D    
C11   C14   S    
C1    C7    S    
C23   C28   A    
C25   C29   A    
C2    C15   A    
O7    Zn1   S    
C12   C23   A    
N2    Zn2   S    
O6    Zn2   S    
C18   H20   S    
N1    Zn1   S    
O5    Zn1   S    
C17   H17   S    
O3    Zn1   S    
C22   H11   S    
C29   H12   S    
C22   H13   S    
C13   F5    S    
C7    C19   S    
C8    F3    S    
C10   O6    A    
C19   H23   S    
C24   H15   S    
F4    N1    S    
C20   H5    S    
C3    H19   S    
C13   C26   A    
C14   C29   A    
C15   C16   A    
C24   C28   S    
C13   C30   A    
C2    C23   A    
C22   H10   S    
C11   O8    A    
O2    Zn2   S    
O8    Zn2   S    
C10   O5    A    
O1    Zn1   S    
C24   H14   S    
C20   H4    S    
C16   H18   S    
C8    C9    S    
C19   H2    S    
C5    F1    S    
C25   C26   A    
C21   H8    S    
C15   C22   S    
C21   H7    S    
C11   O7    A    
C16   C17   A    
C27   C28   A    
C1    O1    A    
