data_mof_unit_64.cif
_audit_creation_date              2012-12-11T14:01:22-0500
_audit_creation_method            fapswitch 2.2
_symmetry_space_group_name_H-M    P1
_symmetry_Int_Tables_number       1
_space_group_crystal_system       triclinic
_cell_length_a                    19.390141
_cell_length_b                    10.95156
_cell_length_c                    18.665957
_cell_angle_alpha                 89.743025
_cell_angle_beta                  89.673174
_cell_angle_gamma                 90.371549
_cell_volume                      3963.57040702

loop_
_atom_site_label
_atom_site_type_symbol
_atom_type_description
_atom_site_fract_x
_atom_site_fract_y
_atom_site_fract_z
_atom_type_partial_charge
C1    C     C_R   0.272303 0.045313 0.851873 0.547897
C2    C     C_R   0.726166 0.040613 0.145998 0.531707
C3    C     C_R   0.772045 0.545327 0.851742 0.541919
C4    C     C_R   0.226157 0.540579 0.145980 0.527860
C5    C     C_R   0.472495 0.062496 0.089150 0.194068
C6    C     C_R   0.491583 0.072775 0.938947 0.150179
C7    C     C_R   0.972873 0.562897 0.089713 0.189734
C8    C     C_R   0.991180 0.572811 0.939185 0.151624
C9    C     C_R   0.981613 0.674311 0.054068 0.307652
C10   C     C_R   0.983399 0.679542 0.979875 0.300358
C11   C     C_R   0.481828 0.173984 0.053972 0.304665
C12   C     C_R   0.484144 0.179576 0.979771 0.294700
C13   C     C_2   0.247052 0.562578 0.914922 0.247521
C14   C     C_2   0.746255 0.584339 0.076603 0.267743
C15   C     C_2   0.746932 0.062300 0.914784 0.248998
C16   C     C_2   0.245408 0.081629 0.077310 0.281107
C17   C     C_2   0.246358 0.583182 0.075525 -0.090232
C18   C     C_2   0.746955 0.603019 0.916550 -0.104217
C19   C     C_2   0.746404 0.083278 0.075567 -0.089140
C20   C     C_2   0.248280 0.104610 0.916623 -0.100483
C21   C     C_2   0.287194 0.514349 0.034816 -0.135873
C22   C     C_2   0.698504 0.549208 0.956947 -0.186222
C23   C     C_2   0.786865 0.013986 0.034731 -0.136218
C24   C     C_2   0.198035 0.056170 0.956489 -0.192385
C25   C     C_2   0.299293 0.548309 0.960868 -0.168403
C26   C     C_2   0.691252 0.582718 0.032349 -0.147973
C27   C     C_2   0.799061 0.048156 0.960855 -0.168361
C28   C     C_2   0.191758 0.091634 0.031582 -0.147104
C29   C     C_2   0.516983 0.837448 0.587355 -0.125820
C30   C     C_2   0.543419 0.828048 0.434082 -0.133487
C31   C     C_2   0.017973 0.337390 0.587856 -0.129103
C32   C     C_2   0.046320 0.329037 0.434556 -0.110511
C33   C     C_2   0.564550 0.741954 0.479651 -0.153612
C34   C     C_2   0.539624 0.737753 0.553355 -0.154475
C35   C     C_2   0.065764 0.241254 0.479915 -0.136424
C36   C     C_2   0.040977 0.237737 0.553900 -0.138188
C37   C     C_2   0.254276 0.617336 0.568217 -0.055220
C38   C     C_2   0.750700 0.560296 0.415801 -0.028056
C39   C     C_2   0.748179 0.064098 0.583797 -0.043548
C40   C     C_2   0.250743 0.061477 0.416149 -0.028760
C41   C     C_2   0.256959 0.613417 0.409896 0.230691
C42   C     C_2   0.762252 0.579602 0.573918 0.258594
C43   C     C_2   0.740611 0.081236 0.424860 0.263383
C44   C     C_2   0.262569 0.081200 0.574106 0.288090
C45   C     C_R   0.466437 0.823195 0.857096 0.581305
C46   C     C_R   0.527192 0.823158 0.148658 0.560452
C47   C     C_R   0.966281 0.323222 0.857213 0.578084
C48   C     C_R   0.027615 0.323048 0.148354 0.565279
C49   C     C_2   0.212754 0.676192 0.450391 -0.135079
C50   C     C_2   0.805358 0.524703 0.527242 -0.100720
C51   C     C_2   0.692937 0.038206 0.471497 -0.099095
C52   C     C_2   0.306823 0.028983 0.527459 -0.063590
C53   C     C_2   0.225580 0.703023 0.524987 0.248185
C54   C     C_2   0.809619 0.563303 0.452056 0.268522
C55   C     C_2   0.690520 0.076456 0.546141 0.252000
C56   C     C_2   0.309852 0.065620 0.451961 0.257361
C57   C     C_R   0.260452 0.633474 0.849955 0.543289
C58   C     C_R   0.737671 0.639540 0.147166 0.542596
C59   C     C_R   0.760432 0.133432 0.849928 0.541569
C60   C     C_R   0.238116 0.137300 0.147985 0.547790
C61   C     C_R   0.273320 0.046670 0.648288 0.544139
C62   C     C_R   0.727372 0.046924 0.351173 0.519527
C63   C     C_R   0.773473 0.545920 0.648082 0.533516
C64   C     C_R   0.228691 0.549332 0.349265 0.555689
C65   C     C_R   0.472617 0.824495 0.649618 0.553208
C66   C     C_R   0.562254 0.819500 0.359725 0.558210
C67   C     C_R   0.972832 0.324470 0.649722 0.553436
C68   C     C_R   0.063124 0.319490 0.359551 0.567779
C69   C     C_R   0.262457 0.645165 0.643260 0.546827
C70   C     C_R   0.739444 0.633363 0.352260 0.558716
C71   C     C_R   0.760369 0.134217 0.647781 0.563865
C72   C     C_R   0.239442 0.133443 0.352267 0.556344
C73   C     C_R   0.484463 0.837672 0.084782 -0.052696
C74   C     C_R   0.481752 0.836522 0.935105 -0.050535
C75   C     C_R   0.984330 0.337750 0.084955 -0.053401
C76   C     C_R   0.981319 0.336697 0.935347 -0.056228
C77   C     C_R   0.479300 0.951497 0.049304 -0.077420
C78   C     C_R   0.484173 0.953755 0.972429 -0.072449
C79   C     C_R   0.979407 0.451740 0.049697 -0.081289
C80   C     C_R   0.984032 0.453915 0.972731 -0.081661
C81   C     C_R   0.474982 0.727114 0.976241 0.239514
C82   C     C_R   0.466543 0.731037 0.049627 0.259999
C83   C     C_R   0.973982 0.227492 0.976506 0.239151
C84   C     C_R   0.965526 0.231397 0.049895 0.258979
Cr1   Cr    Cr6+3 0.230530 0.836340 0.748870 1.004463
Cr2   Cr    Cr6+3 0.769470 0.836340 0.251130 0.992939
Cr3   Cr    Cr6+3 0.730530 0.336340 0.748870 1.012597
Cr4   Cr    Cr6+3 0.269470 0.336340 0.251130 1.010842
Cr5   Cr    Cr6+3 0.387420 0.989430 0.750820 0.997165
Cr6   Cr    Cr6+3 0.612580 0.989430 0.249180 1.030696
Cr7   Cr    Cr6+3 0.887420 0.489430 0.750820 0.983374
Cr8   Cr    Cr6+3 0.112580 0.489430 0.249180 1.032162
Cr9   Cr    Cr6+3 0.385640 0.677860 0.749230 1.017945
Cr10  Cr    Cr6+3 0.614360 0.677860 0.250770 1.020090
Cr11  Cr    Cr6+3 0.885640 0.177860 0.749230 1.010524
Cr12  Cr    Cr6+3 0.114360 0.177860 0.250770 1.016342
H1    H     H_    0.161968 0.699336 0.430594 0.101306
H2    H     H_    0.842815 0.458105 0.545731 0.098143
H3    H     H_    0.650255 0.982210 0.453190 0.091235
H4    H     H_    0.345654 0.965010 0.546056 0.093233
H5    H     H_    0.270421 0.528733 0.548649 0.100802
H6    H     H_    0.705242 0.517189 0.439733 0.076442
H7    H     H_    0.792195 0.016597 0.560831 0.102531
H8    H     H_    0.205361 0.019602 0.440701 0.091775
H9    H     H_    0.310738 0.431906 0.055145 0.125866
H10   H     H_    0.669375 0.471136 0.937645 0.144264
H11   H     H_    0.810006 0.931035 0.054899 0.128156
H12   H     H_    0.167505 0.979645 0.937435 0.139902
H13   H     H_    0.351030 0.574394 0.946326 0.184521
H14   H     H_    0.640331 0.607370 0.051661 0.125879
H15   H     H_    0.850715 0.074944 0.946536 0.184563
H16   H     H_    0.142991 0.130009 0.049050 0.118650
H17   H     H_    0.221614 0.663718 0.053453 0.131844
H18   H     H_    0.776359 0.679561 0.937577 0.122909
H19   H     H_    0.722135 0.164440 0.053698 0.132303
H20   H     H_    0.279462 0.178741 0.937937 0.115646
H21   H     H_    0.594759 0.665339 0.460464 0.169082
H22   H     H_    0.535087 0.647787 0.577754 0.163566
H23   H     H_    0.093986 0.162621 0.460274 0.160306
H24   H     H_    0.036074 0.147790 0.578265 0.152830
H25   H     H_    0.511398 0.903856 0.450633 0.107340
H26   H     H_    0.525401 0.928501 0.565772 0.124724
H27   H     H_    0.016460 0.407112 0.451606 0.104186
H28   H     H_    0.026802 0.428571 0.566644 0.080274
O1    O     O_R   0.215090 0.709860 0.828130 -0.531624
O2    O     O_R   0.784910 0.709860 0.171870 -0.534868
O3    O     O_R   0.715090 0.209860 0.828130 -0.530730
O4    O     O_R   0.284910 0.209860 0.171870 -0.537521
O5    O     O_R   0.445660 0.919250 0.676780 -0.498739
O6    O     O_R   0.554340 0.919250 0.323220 -0.502729
O7    O     O_R   0.945660 0.419250 0.676780 -0.506612
O8    O     O_R   0.054340 0.419250 0.323220 -0.496008
O9    O     O_R   0.456260 0.718170 0.670000 -0.515583
O10   O     O_R   0.543740 0.718170 0.330000 -0.523230
O11   O     O_R   0.956260 0.218170 0.670000 -0.513611
O12   O     O_R   0.043740 0.218170 0.330000 -0.523731
O13   O     O_R   0.320940 0.626760 0.674370 -0.504893
O14   O     O_R   0.679060 0.626760 0.325630 -0.537412
O15   O     O_R   0.820940 0.126760 0.674370 -0.517683
O16   O     O_R   0.179060 0.126760 0.325630 -0.542088
O17   O     O_3   0.334530 0.834540 0.749640 -0.251156
O18   O     O_3   0.665470 0.834540 0.250360 -0.277287
O19   O     O_3   0.834530 0.334540 0.749640 -0.252297
O20   O     O_3   0.165470 0.334540 0.250360 -0.282630
O21   O     O_R   0.236990 0.958390 0.823710 -0.503488
O22   O     O_R   0.763010 0.958390 0.176290 -0.529412
O23   O     O_R   0.736990 0.458390 0.823710 -0.500834
O24   O     O_R   0.263010 0.458390 0.176290 -0.532478
O25   O     O_R   0.332380 0.074750 0.830850 -0.544761
O26   O     O_R   0.667620 0.074750 0.169150 -0.486472
O27   O     O_R   0.832380 0.574750 0.830850 -0.545537
O28   O     O_R   0.167620 0.574750 0.169150 -0.488773
O29   O     O_R   0.445800 0.917770 0.825070 -0.489247
O30   O     O_R   0.554200 0.917770 0.174930 -0.467002
O31   O     O_R   0.945800 0.417770 0.825070 -0.491829
O32   O     O_R   0.054200 0.417770 0.174930 -0.459737
O33   O     O_R   0.456410 0.716580 0.829970 -0.476144
O34   O     O_R   0.543590 0.716580 0.170030 -0.482595
O35   O     O_R   0.956410 0.216580 0.829970 -0.475400
O36   O     O_R   0.043590 0.216580 0.170030 -0.484173
O37   O     O_R   0.321080 0.625290 0.822650 -0.528902
O38   O     O_R   0.678920 0.625290 0.177350 -0.517957
O39   O     O_R   0.821080 0.125290 0.822650 -0.531142
O40   O     O_R   0.178920 0.125290 0.177350 -0.519093
O41   O     O_R   0.214930 0.711450 0.668160 -0.481910
O42   O     O_R   0.785070 0.711450 0.331840 -0.452281
O43   O     O_R   0.714930 0.211450 0.668160 -0.453759
O44   O     O_R   0.285070 0.211450 0.331840 -0.447362
O45   O     O_R   0.236850 0.959870 0.675420 -0.474254
O46   O     O_R   0.763150 0.959870 0.324580 -0.506225
O47   O     O_R   0.736850 0.459870 0.675420 -0.502176
O48   O     O_R   0.263150 0.459870 0.324580 -0.461942
O49   O     O_R   0.332230 0.076350 0.670880 -0.554665
O50   O     O_R   0.667770 0.076350 0.329120 -0.543478
O51   O     O_R   0.832230 0.576350 0.670880 -0.545439
O52   O     O_R   0.167770 0.576350 0.329120 -0.562641
O53   O     O_3   0.470311 0.613842 0.944448 -0.552058
C85   C     C_3   0.537068 0.567781 0.934144 -0.062826
H29   H     H_    0.575120 0.639230 0.917257 0.073446
H30   H     H_    0.535649 0.499649 0.890430 0.163410
H31   H     H_    0.553553 0.520182 0.983667 0.185168
O54   O     O_3   0.451174 0.623722 0.086483 -0.540908
C86   C     C_3   0.400189 0.644744 0.139741 -0.117914
H32   H     H_    0.357765 0.702460 0.119903 0.074619
H33   H     H_    0.421679 0.685721 0.188969 0.134124
H34   H     H_    0.377621 0.556539 0.156440 0.136997
O55   O     O_3   0.969662 0.114164 0.944751 -0.551336
C87   C     C_3   0.036597 0.068574 0.935336 -0.062743
H35   H     H_    0.073780 0.139529 0.915843 0.074457
H36   H     H_    0.035351 0.996736 0.893733 0.165767
H37   H     H_    0.054009 0.026037 0.986131 0.184637
O56   O     O_3   0.951184 0.123481 0.086618 -0.539876
C88   C     C_3   0.900433 0.142589 0.140338 -0.120327
H38   H     H_    0.857089 0.198524 0.121062 0.078219
H39   H     H_    0.922057 0.183122 0.189589 0.132313
H40   H     H_    0.878613 0.053763 0.156876 0.133719
O57   O     O_3   0.208896 0.818282 0.550634 -0.547642
C89   C     C_3   0.137361 0.839545 0.544430 -0.101384
H41   H     H_    0.105776 0.758573 0.560740 0.100372
H42   H     H_    0.124234 0.868964 0.489209 0.091286
H43   H     H_    0.123314 0.915540 0.580681 0.153184
O58   O     O_3   0.870750 0.600400 0.418188 -0.555482
C90   C     C_3   0.920135 0.643294 0.467436 -0.106748
H44   H     H_    0.940673 0.567290 0.500417 0.098105
H45   H     H_    0.898560 0.716386 0.502075 0.135764
H46   H     H_    0.964123 0.683397 0.436994 0.133547
O59   O     O_3   0.630079 0.116793 0.578992 -0.556838
C91   C     C_3   0.590494 0.187697 0.531459 -0.110967
H47   H     H_    0.567213 0.129816 0.489227 0.094678
H48   H     H_    0.621723 0.262999 0.507097 0.138458
H49   H     H_    0.547672 0.229850 0.562042 0.130029
O60   O     O_3   0.370767 0.100023 0.416982 -0.555182
C92   C     C_3   0.417883 0.155097 0.464338 -0.104578
H50   H     H_    0.441030 0.085866 0.500457 0.092575
H51   H     H_    0.393371 0.229461 0.495822 0.143939
H52   H     H_    0.460150 0.197036 0.432200 0.136735
O61   O     O_3   0.323582 0.588066 0.431822 -0.578010
C93   C     C_3   0.365685 0.690156 0.415914 -0.104688
H53   H     H_    0.349791 0.771603 0.447239 0.127026
H54   H     H_    0.365684 0.711351 0.357489 0.113328
H55   H     H_    0.419386 0.668307 0.431179 0.169004
O62   O     O_3   0.718590 0.673123 0.551521 -0.607972
C94   C     C_3   0.700173 0.750849 0.608516 -0.127274
H56   H     H_    0.746586 0.789602 0.635137 0.112358
H57   H     H_    0.666312 0.702474 0.647833 0.123443
H58   H     H_    0.670811 0.828664 0.586554 0.159460
O63   O     O_3   0.793960 0.158257 0.447509 -0.601153
C95   C     C_3   0.832165 0.208264 0.389786 -0.113748
H59   H     H_    0.798611 0.262491 0.353606 0.105368
H60   H     H_    0.859698 0.135729 0.359739 0.133931
H61   H     H_    0.871744 0.271390 0.411587 0.159959
O64   O     O_3   0.216808 0.171360 0.551751 -0.610095
C96   C     C_3   0.204693 0.257787 0.606193 -0.134810
H62   H     H_    0.253824 0.294789 0.628118 0.114833
H63   H     H_    0.172031 0.217713 0.649563 0.116726
H64   H     H_    0.176566 0.336121 0.582790 0.143687
N1    N     N_2   0.458337 0.066018 0.164956 -0.466437
H65   H     H_    0.472618 0.142116 0.193707 0.272047
C97   C     C_3   0.404824 0.991435 0.197924 -0.260284
H66   H     H_    0.364076 0.050405 0.220492 0.178454
H67   H     H_    0.427139 0.938254 0.242793 0.155616
H68   H     H_    0.381485 0.926985 0.159946 0.141339
N2    N     N_2   0.510027 0.089797 0.865518 -0.483754
H69   H     H_    0.470463 0.124601 0.835190 0.273918
C98   C     C_3   0.573816 0.152404 0.848957 -0.196669
H70   H     H_    0.564081 0.233089 0.814128 0.115907
H71   H     H_    0.607343 0.088559 0.819028 0.190698
H72   H     H_    0.599921 0.185917 0.897909 0.226467
N3    N     N_2   0.961075 0.566536 0.166099 -0.461336
H73   H     H_    0.972946 0.646546 0.192225 0.269617
C99   C     C_3   0.904056 0.500239 0.198845 -0.263977
H74   H     H_    0.903245 0.517662 0.257432 0.165845
H75   H     H_    0.908199 0.400847 0.191745 0.109231
H76   H     H_    0.854980 0.530169 0.176628 0.190911
N4    N     N_2   0.009757 0.589869 0.865802 -0.483587
H77   H     H_    0.970263 0.624857 0.835443 0.273041
C100  C     C_3   0.073618 0.652426 0.849445 -0.203561
H78   H     H_    0.064011 0.733105 0.814571 0.108350
H79   H     H_    0.107223 0.588550 0.819642 0.183723
H80   H     H_    0.099592 0.685951 0.898474 0.228989
O65   O     O_3   0.999179 0.777311 0.092361 -0.560505
C101  C     C_3   0.939242 0.841279 0.110604 -0.098488
H81   H     H_    0.893474 0.781862 0.120058 0.139742
H82   H     H_    0.927957 0.907732 0.067704 0.207327
H83   H     H_    0.949456 0.890867 0.161074 0.144287
O66   O     O_3   0.984153 0.792609 0.946714 -0.577333
C102  C     C_3   0.916481 0.818785 0.923801 -0.127593
H84   H     H_    0.898455 0.754866 0.882197 0.122656
H85   H     H_    0.916095 0.910617 0.898990 0.175178
H86   H     H_    0.878997 0.817449 0.968982 0.105893
O67   O     O_3   0.498912 0.276579 0.092916 -0.559328
C103  C     C_3   0.438807 0.340720 0.110418 -0.096533
H87   H     H_    0.392804 0.281428 0.118759 0.137892
H88   H     H_    0.428392 0.407827 0.067629 0.206194
H89   H     H_    0.448179 0.389896 0.161217 0.146483
O68   O     O_3   0.485133 0.292770 0.946735 -0.577513
C104  C     C_3   0.417564 0.319260 0.923576 -0.127035
H90   H     H_    0.399355 0.255008 0.882228 0.121609
H91   H     H_    0.417424 0.410794 0.898384 0.176338
H92   H     H_    0.380032 0.318799 0.968698 0.100149
O69   O     O_3   0.180431 0.528444 0.933284 -0.585826
C105  C     C_3   0.173718 0.401338 0.923582 -0.127759
H93   H     H_    0.204527 0.350350 0.963622 0.124010
H94   H     H_    0.188041 0.373705 0.868112 0.096719
H95   H     H_    0.119221 0.375092 0.932290 0.145635
O70   O     O_3   0.811519 0.552864 0.052725 -0.600156
C106  C     C_3   0.813731 0.426045 0.038393 -0.125998
H96   H     H_    0.763019 0.377517 0.037712 0.109792
H97   H     H_    0.844946 0.382169 0.079862 0.110513
H98   H     H_    0.838890 0.411625 0.985657 0.151827
O71   O     O_3   0.680299 0.027734 0.932833 -0.585865
C107  C     C_3   0.673950 0.900463 0.923567 -0.127842
H99   H     H_    0.690487 0.871623 0.868961 0.096901
H100  H     H_    0.619147 0.874447 0.929935 0.144449
H101  H     H_    0.703024 0.850280 0.965331 0.125924
O72   O     O_3   0.307483 0.030447 0.056578 -0.586009
C108  C     C_3   0.297929 0.902741 0.050651 -0.129212
H102  H     H_    0.279440 0.862291 0.102147 0.091166
H103  H     H_    0.347619 0.861184 0.036119 0.132549
H104  H     H_    0.262212 0.876589 0.007176 0.139381

loop_
_geom_bond_atom_site_label_1
_geom_bond_atom_site_label_2
_ccdc_geom_bond_type
Cr12  O16   S    
C16   C28   D    
C37   H5    S    
C90   H44   S    
C38   C70   S    
C33   H21   S    
Cr4   O48   S    
C37   C69   S    
Cr2   O2    S    
C72   O44   A    
C108  H102  S    
Cr1   O1    S    
O71   C107  S    
C32   H27   S    
Cr5   O49   S    
C85   H31   S    
Cr6   O26   S    
C13   C25   D    
C12   O68   S    
C101  H83   S    
C95   H60   S    
C85   H29   S    
C93   H53   S    
C94   H58   S    
C17   H17   S    
C99   H74   S    
Cr12  O12   S    
C47   O35   A    
C92   H50   S    
C28   H16   S    
C3    O23   A    
C48   O36   A    
C69   O41   A    
N3    H73   S    
C50   C54   S    
C81   O53   S    
Cr3   O23   S    
C2    O26   A    
C7    N3    S    
C87   H37   S    
Cr11  O35   S    
C107  H99   S    
Cr8   O8    S    
Cr1   O21   S    
C47   C76   S    
C56   O60   S    
Cr9   O9    S    
C86   H33   S    
C6    C12   A    
O65   C101  S    
C102  H86   S    
C49   C53   S    
C75   C84   A    
C99   H75   S    
Cr7   O7    S    
C59   O3    A    
N2    H69   S    
C62   O50   A    
N1    C97   S    
Cr5   O5    S    
C105  H94   S    
C3    C18   S    
C87   H36   S    
C100  H78   S    
C16   C60   S    
C41   C49   D    
C68   O8    A    
C103  H89   S    
O54   C86   S    
C60   O40   A    
C66   O10   A    
C68   O12   A    
C15   C27   D    
C39   C55   D    
C97   H66   S    
C91   H47   S    
Cr4   O44   S    
C9    O65   S    
Cr8   O28   S    
C106  H97   S    
C1    O25   A    
C89   H41   S    
C24   H12   S    
C23   C27   S    
C64   O52   A    
C10   O66   S    
C96   H62   S    
Cr10  O38   S    
C88   H38   S    
C98   H72   S    
C25   H13   S    
C32   C68   S    
C37   C53   D    
N4    C100  S    
C44   C52   D    
Cr5   O25   S    
C48   O32   A    
C23   H11   S    
Cr10  O34   S    
C40   C56   D    
C104  H90   S    
C71   O43   A    
C69   O13   A    
C65   O9    A    
C108  H103  S    
C48   C75   S    
C83   O55   S    
O57   C89   S    
C45   O29   A    
C11   O67   S    
C62   O46   A    
Cr2   O22   S    
C76   C83   A    
Cr3   O3    S    
C95   H59   S    
C43   O63   S    
C81   C82   A    
Cr7   O19   S    
C92   H51   S    
C103  H88   S    
C51   H3    S    
C63   O51   A    
C14   C58   S    
C90   H46   S    
Cr3   O43   S    
C50   H2    S    
N3    C99   S    
O58   C90   S    
Cr7   O51   S    
O59   C91   S    
Cr10  O18   S    
C32   C35   D    
C20   C24   D    
C60   O4    A    
C13   C57   S    
C61   O49   A    
C94   H56   S    
C97   H67   S    
C86   H34   S    
Cr1   O17   S    
C20   H20   S    
C63   O47   A    
C103  H87   S    
C99   H76   S    
C71   O15   A    
N2    C98   S    
O69   C105  S    
C77   C78   A    
C34   H22   S    
C52   H4    S    
Cr1   O45   S    
Cr5   O29   S    
Cr12  O40   S    
C24   C28   S    
C45   C74   S    
C100  H79   S    
C35   C36   S    
C64   O48   A    
C36   H24   S    
C19   C23   D    
C86   H32   S    
Cr7   O31   S    
C67   O11   A    
Cr11  O39   S    
C65   O5    A    
C40   H8    S    
C46   O34   A    
C90   H45   S    
C93   H54   S    
O63   C95   S    
C38   C54   D    
C30   H25   S    
C19   H19   S    
C11   C12   A    
C88   H40   S    
Cr3   O47   S    
C29   H26   S    
C89   H43   S    
C88   H39   S    
Cr11  O11   S    
C105  H93   S    
C106  H98   S    
C45   O33   A    
C85   H30   S    
Cr8   O32   S    
C30   C66   S    
C13   O69   S    
C14   C26   D    
C4    O28   A    
Cr9   O33   S    
C5    C11   A    
C96   H63   S    
Cr6   O18   S    
C5    N1    S    
C42   C50   D    
C29   C65   S    
C26   H14   S    
C46   O30   A    
C91   H48   S    
O72   C108  S    
Cr12  O36   S    
C16   O72   S    
Cr9   O37   S    
C58   O2    A    
C98   H71   S    
C106  H96   S    
C22   C26   S    
Cr10  O14   S    
C108  H104  S    
C6    N2    S    
C83   C84   A    
C61   O45   A    
C1    O21   A    
C4    C17   S    
C74   C81   A    
C5    C77   A    
N4    H77   S    
C58   O38   A    
C73   C82   A    
Cr9   O17   S    
C18   H18   S    
Cr2   O18   S    
C93   H55   S    
C7    C79   A    
C9    C10   A    
C92   H52   S    
C6    C78   A    
C7    C9    A    
C21   C25   S    
C82   O54   S    
C1    C20   S    
C39   C71   S    
C40   C72   S    
C30   C33   D    
C2    C19   S    
C18   C22   D    
C15   C59   S    
Cr8   O52   S    
C107  H101  S    
C67   O7    A    
Cr11  O19   S    
C76   C80   A    
C98   H70   S    
C3    O27   A    
C27   H15   S    
C31   H28   S    
C101  H82   S    
C102  H84   S    
C94   H57   S    
C39   H7    S    
C101  H81   S    
C44   C61   S    
C2    O22   A    
C55   O59   S    
Cr6   O50   S    
C8    N4    S    
Cr11  O15   S    
Cr6   O30   S    
Cr2   O42   S    
C100  H80   S    
C53   O57   S    
O56   C88   S    
C104  H91   S    
C44   O64   S    
Cr1   O41   S    
O55   C87   S    
Cr4   O4    S    
C22   H10   S    
C75   C79   A    
C57   O1    A    
Cr7   O27   S    
O68   C104  S    
Cr4   O24   S    
C70   O14   A    
C43   C51   D    
C35   H23   S    
O70   C106  S    
C47   O31   A    
Cr2   O46   S    
C14   O70   S    
C91   H49   S    
Cr5   O17   S    
N1    H65   S    
C29   C34   D    
O61   C93   S    
C15   O71   S    
O64   C96   S    
Cr10  O10   S    
C33   C34   S    
C84   O56   S    
C97   H68   S    
C51   C55   S    
C95   H61   S    
C38   H6    S    
O62   C94   S    
Cr8   O20   S    
C96   H64   S    
C17   C21   D    
C70   O42   A    
Cr9   O13   S    
O66   C102  S    
C31   C67   S    
C49   H1    S    
C79   C80   A    
Cr6   O6    S    
C52   C56   S    
C72   O16   A    
C57   O37   A    
O60   C92   S    
C105  H95   S    
C8    C10   A    
O53   C85   S    
C74   C78   A    
C104  H92   S    
C8    C80   A    
C59   O39   A    
C73   C77   A    
C31   C36   D    
C87   H35   S    
C107  H100  S    
C89   H42   S    
C41   C64   S    
Cr3   O19   S    
C42   O62   S    
C102  H85   S    
C42   C63   S    
Cr4   O20   S    
C46   C73   S    
C21   H9    S    
O67   C103  S    
C43   C62   S    
C54   O58   S    
C41   O61   S    
C66   O6    A    
Cr12  O20   S    
C4    O24   A    
