data_mof_unit_2360.cif
_audit_creation_date              2012-12-10T17:45:35-0500
_audit_creation_method            fapswitch 2.2
_symmetry_space_group_name_H-M    P1
_symmetry_Int_Tables_number       1
_space_group_crystal_system       triclinic
_cell_length_a                    11.537795
_cell_length_b                    10.775007
_cell_length_c                    10.029245
_cell_angle_alpha                 88.374952
_cell_angle_beta                  90.841655
_cell_angle_gamma                 90.042343
_cell_volume                      1246.19795881

loop_
_atom_site_label
_atom_site_type_symbol
_atom_type_description
_atom_site_fract_x
_atom_site_fract_y
_atom_site_fract_z
_atom_type_partial_charge
C1    C     C_R   0.507156 0.260625 0.501820 0.914736
C2    C     C_R   0.521104 0.871559 0.493846 -0.181438
C3    C     C_R   0.316281 0.391520 0.140057 -0.170779
C4    C     C_R   0.282310 0.500839 0.499158 0.884534
C5    C     C_R   0.212149 0.363781 0.075326 0.129755
C6    C     C_R   0.209704 0.363590 0.936094 0.126484
C7    C     C_R   0.314634 0.381933 0.867976 0.253640
C8    C     C_R   0.407387 0.447671 0.929482 -0.050498
C9    C     C_R   0.407202 0.450794 0.072487 -0.038876
C10   C     C_R   0.595929 0.531608 0.070757 0.454910
C11   C     C_R   0.592483 0.541762 0.927335 0.447860
C12   C     C_R   0.698814 0.041376 0.809920 0.427340
C13   C     C_R   0.505613 0.739196 0.498202 0.900420
C14   C     C_R   0.717460 0.505564 0.500358 0.897138
C15   C     C_1   0.161620 0.506177 0.497507 -0.180553
C16   C     C_1   0.059356 0.511201 0.497627 0.001901
C17   C     C_1   0.940486 0.514730 0.498881 -0.031508
C18   C     C_1   0.838125 0.513089 0.500206 -0.211284
C19   C     C_R   0.654174 0.114888 0.703074 0.111145
C20   C     C_3   0.086076 0.195117 0.861109 -0.833114
C21   C     C_3   0.392605 0.180381 0.830653 -0.760392
C22   C     C_3   0.783957 0.550584 0.860944 -0.202011
C23   C     C_R   0.716600 0.914986 0.789798 0.183887
C24   C     C_3   0.812495 0.237566 0.622576 -0.823665
C25   C     C_3   0.816201 0.130731 0.968123 -0.394248
C26   C     C_3   0.905934 0.827111 0.828150 -0.828026
C27   C     C_3   0.435417 0.901418 0.174813 -0.236115
C28   C     C_3   0.750727 0.424403 0.152810 -0.280582
C29   C     C_3   0.125246 0.216659 0.233159 -0.809902
C30   C     C_R   0.667636 0.861208 0.676986 -0.209798
C31   C     C_R   0.591689 0.929570 0.590644 -0.088317
C32   C     C_R   0.589336 0.059548 0.598592 -0.000681
C33   C     C_R   0.520451 0.127652 0.502946 -0.135322
C34   C     C_R   0.458693 0.067914 0.402795 -0.321473
C35   C     C_R   0.459891 0.940743 0.395616 0.515202
H1    H     H_    0.404045 0.120120 0.332414 0.168352
H2    H     H_    0.398891 0.108809 0.753876 0.231873
H3    H     H_    0.340134 0.141589 0.913981 0.218958
H4    H     H_    0.833295 0.583785 0.773278 0.178824
H5    H     H_    0.777807 0.449006 0.851554 0.107172
H6    H     H_    0.835505 0.576350 0.950044 0.197969
H7    H     H_    0.695163 0.287058 0.769803 0.249002
H8    H     H_    0.867533 0.311096 0.665906 0.235584
H9    H     H_    0.800806 0.255345 0.513727 0.244588
H10   H     H_    0.859395 0.147901 0.637090 0.229599
H11   H     H_    0.838244 0.215212 0.908490 0.178987
H12   H     H_    0.687446 0.765140 0.659563 0.214274
H13   H     H_    0.882528 0.058033 0.957135 0.183621
H14   H     H_    0.818701 0.156234 0.074468 0.200067
H15   H     H_    0.787567 0.867317 0.975861 0.263990
H16   H     H_    0.956753 0.767266 0.899396 0.240091
H17   H     H_    0.950668 0.917882 0.816411 0.228232
H18   H     H_    0.903787 0.782674 0.729582 0.246337
H19   H     H_    0.386014 0.843300 0.104244 0.182970
H20   H     H_    0.527845 0.871807 0.171729 0.177739
H21   H     H_    0.426352 0.999668 0.139274 0.152419
H22   H     H_    0.772729 0.382944 0.057237 0.107486
H23   H     H_    0.328137 0.355976 0.239390 0.215970
H24   H     H_    0.692645 0.357789 0.206315 0.194137
H25   H     H_    0.832503 0.431960 0.211590 0.187911
H26   H     H_    0.076777 0.400105 0.199048 0.232769
H27   H     H_    0.038133 0.183726 0.263713 0.242011
H28   H     H_    0.176544 0.236829 0.324630 0.228468
H29   H     H_    0.168156 0.141535 0.178411 0.255730
H30   H     H_    0.035062 0.375380 0.893435 0.224162
H31   H     H_    0.159094 0.144513 0.818230 0.253200
H32   H     H_    0.010296 0.178056 0.795550 0.231527
H33   H     H_    0.068924 0.156226 0.962298 0.262638
H34   H     H_    0.275143 0.275967 0.704126 0.232220
H35   H     H_    0.480621 0.201184 0.870222 0.265613
N1    N     N_R   0.498930 0.498800 0.142780 -0.163470
N2    N     N_R   0.498900 0.498720 0.857170 -0.162554
N3    N     N_2   0.107671 0.327475 0.865184 -0.300726
N4    N     N_2   0.340418 0.292553 0.772642 -0.236061
N5    N     N_2   0.700049 0.235575 0.685460 -0.267582
N6    N     N_2   0.789433 0.843017 0.877255 -0.247267
N7    N     N_2   0.112648 0.327485 0.149111 -0.307558
O1    O     O_R   0.500000 0.316780 0.614690 -0.579705
O2    O     O_3   0.703901 0.088485 0.937186 -0.634024
O3    O     O_3   0.388864 0.883201 0.303326 -0.604681
O4    O     O_3   0.700766 0.544518 0.136190 -0.580338
O5    O     O_R   0.499990 0.316750 0.385360 -0.659567
O6    O     O_R   0.334450 0.500030 0.614670 -0.611345
O7    O     O_R   0.334440 0.500000 0.385330 -0.624557
O8    O     O_R   0.500010 0.683250 0.614640 -0.602634
O9    O     O_R   0.500000 0.683220 0.385310 -0.564192
O10   O     O_R   0.665560 0.500000 0.614670 -0.590536
O11   O     O_R   0.665550 0.499970 0.385330 -0.572499
O12   O     O_3   0.675030 0.610023 0.858256 -0.574141
Zn1   Zn    Zn3+2 0.500010 0.500020 0.653130 0.982770
Zn2   Zn    Zn3+2 0.499990 0.499980 0.346870 0.975805

loop_
_geom_bond_atom_site_label_1
_geom_bond_atom_site_label_2
_ccdc_geom_bond_type
C2    C35   A    
C29   H28   S    
C29   N7    S    
C14   C18   S    
C20   H32   S    
C23   N6    S    
C27   H19   S    
C1    C33   S    
C7    C8    A    
C28   H22   S    
O1    Zn1   S    
C12   C23   A    
H7    N5    S    
C24   H10   S    
C20   H31   S    
C14   O10   A    
H15   N6    S    
O9    Zn2   S    
C5    C6    A    
C27   H20   S    
C22   H6    S    
C15   C16   T    
C12   O2    S    
C35   O3    S    
H30   N3    S    
C34   C35   A    
C2    C13   S    
C21   H3    S    
H26   N7    S    
C8    C9    A    
C13   O9    A    
C26   N6    S    
O7    Zn2   S    
C10   N1    A    
C29   H29   S    
C25   O2    S    
C1    O1    A    
C19   C32   A    
C33   C34   A    
C7    N4    S    
C28   H25   S    
C8    N2    A    
C23   C30   A    
C30   H12   S    
C27   O3    S    
C11   N2    A    
C16   C17   S    
C1    O5    A    
C21   N4    S    
O5    Zn2   S    
C2    C31   A    
C3    C9    A    
C26   H17   S    
N2    Zn1   S    
C11   O12   S    
C31   C32   A    
C4    O7    A    
O11   Zn2   S    
C22   H5    S    
C17   C18   T    
C21   H2    S    
H34   N4    S    
C25   H13   S    
C24   H9    S    
C5    N7    S    
C26   H18   S    
C6    N3    S    
C28   H24   S    
O6    Zn1   S    
C29   H27   S    
C28   O4    S    
C27   H21   S    
C20   H33   S    
C9    N1    A    
C3    C5    A    
O8    Zn1   S    
C24   N5    S    
C6    C7    A    
C10   O4    S    
C21   H35   S    
C32   C33   A    
C4    C15   S    
C19   N5    S    
C14   O11   A    
C26   H16   S    
C30   C31   A    
C4    O6    A    
C22   H4    S    
C12   C19   A    
C22   O12   S    
C20   N3    S    
C34   H1    S    
C25   H14   S    
C10   C11   A    
C3    H23   S    
N1    Zn2   S    
O10   Zn1   S    
C13   O8    A    
C24   H8    S    
C25   H11   S    
