data_mof_unit_2579.cif
_audit_creation_date              2013-03-05T15:52:28-0500
_audit_creation_method            fapswitch 2.2
_symmetry_space_group_name_H-M    P1
_symmetry_Int_Tables_number       1
_space_group_crystal_system       triclinic
_cell_length_a                    27.724379
_cell_length_b                    10.845152
_cell_length_c                    9.616474
_cell_angle_alpha                 89.165829
_cell_angle_beta                  90.693156
_cell_angle_gamma                 92.843786
_cell_volume                      2887.38017645

loop_
_atom_site_label
_atom_site_type_symbol
_atom_site_description
_atom_site_fract_x
_atom_site_fract_y
_atom_site_fract_z
_atom_type_partial_charge
O1    O     O_R   0.500000 0.319640 0.618810 -0.598459
O2    O     O_R   0.500000 0.319660 0.381240 -0.544436
C1    C     C_R   0.501618 0.261929 0.502240 0.823169
O3    O     O_R   0.430260 0.500010 0.618770 -0.583524
O4    O     O_R   0.430270 0.500030 0.381200 -0.538644
C2    C     C_R   0.407679 0.499968 0.499302 0.819935
Cu1   Cu    Cu3+1 0.500000 0.499990 0.640660 0.944691
Cu2   Cu    Cu3+1 0.500000 0.500010 0.359340 0.983262
O5    O     O_R   0.500000 0.680340 0.618760 -0.608587
O6    O     O_R   0.500000 0.680360 0.381190 -0.592855
O7    O     O_R   0.569730 0.499970 0.618800 -0.587455
O8    O     O_R   0.569740 0.499990 0.381230 -0.586347
C3    C     C_R   0.493888 0.735804 0.498863 0.821566
C4    C     C_R   0.592180 0.501723 0.500741 0.844524
C5    C     C_R   0.177176 0.463659 0.608876 0.617209
O9    O     O_2   0.201589 0.425372 0.722644 -0.500630
N1    N     N_R   0.201827 0.502044 0.492683 -0.456387
C6    C     C_R   0.178052 0.531653 0.372021 0.571007
C7    C     C_R   0.281215 0.585512 0.581142 0.332656
C8    C     C_R   0.331557 0.582177 0.584054 -0.239999
C9    C     C_R   0.327696 0.422679 0.409632 -0.171045
C10   C     C_R   0.277471 0.422832 0.409440 -0.127655
C11   C     C_R   0.253787 0.504018 0.494656 0.273260
C12   C     C_R   0.101229 0.497616 0.489451 -0.073501
C13   C     C_R   0.126664 0.463477 0.610410 -0.057951
C14   C     C_R   0.101229 0.421873 0.727727 -0.151206
C15   C     C_R   0.126875 0.523945 0.365046 -0.027631
C16   C     C_R   0.354939 0.501442 0.497777 -0.085950
H1    H     H_    0.345178 0.359106 0.343369 0.205336
H2    H     H_    0.256792 0.359611 0.342855 0.174332
H3    H     H_    0.120248 0.383890 0.816326 0.210739
C17   C     C_R   0.644780 0.511869 0.502563 -0.091257
C18   C     C_R   0.974547 0.492492 0.622262 0.066132
C19   C     C_R   0.973923 0.548178 0.372016 -0.002944
C20   C     C_R   0.948961 0.521332 0.498024 0.046019
C21   C     C_R   0.949362 0.494064 0.748868 -0.113212
C22   C     C_R   0.899354 0.497337 0.751473 -0.113558
C23   C     C_R   0.873049 0.509406 0.627671 -0.024231
C24   C     C_R   0.897933 0.527640 0.501538 -0.047750
C25   C     C_R   0.871782 0.554555 0.379643 -0.074303
C26   C     C_R   0.821138 0.552928 0.383522 0.565217
N2    N     N_R   0.797607 0.529265 0.505997 -0.466966
C27   C     C_R   0.822417 0.509646 0.627462 0.551069
C28   C     C_R   0.720509 0.411380 0.500462 -0.122548
C29   C     C_R   0.670310 0.404237 0.498422 -0.255632
C30   C     C_R   0.669536 0.628277 0.508999 0.187881
C31   C     C_R   0.720497 0.636004 0.512445 0.160103
C32   C     C_R   0.745823 0.526071 0.507144 0.311842
O10   O     O_2   0.798155 0.490575 0.747359 -0.510600
C33   C     C_R   0.024853 0.473492 0.617770 0.002315
C34   C     C_R   0.050086 0.502666 0.492541 0.043351
C35   C     C_R   0.024530 0.531906 0.368772 0.032188
C36   C     C_R   0.051066 0.420022 0.730146 0.214087
H4    H     H_    0.651286 0.314646 0.493372 0.158978
H5    H     H_    0.739990 0.327416 0.496315 0.161551
H6    H     H_    0.881534 0.493267 0.851260 0.198142
H7    H     H_    0.967971 0.498435 0.847790 0.201271
O11   O     O_2   0.204148 0.570016 0.260775 -0.514549
C37   C     C_R   0.100248 0.534899 0.238823 0.139056
H8    H     H_    0.352502 0.644691 0.650951 0.167478
C38   C     C_R   0.946996 0.596512 0.257423 0.220114
C39   C     C_R   0.896687 0.590612 0.259378 -0.141450
O12   O     O_2   0.795577 0.575296 0.266230 -0.510277
C40   C     C_R   0.049812 0.531580 0.243031 -0.098886
H9    H     H_    0.877135 0.623511 0.168992 0.214496
H10   H     H_    0.030315 0.522880 0.145851 0.195627
H11   H     H_    0.497182 0.118126 0.283420 0.191421
C41   C     C_R   0.503235 0.105371 0.769074 -0.141123
H12   H     H_    0.523082 0.191524 0.787670 0.169431
C42   C     C_R   0.487129 0.040016 0.887044 -0.137161
H13   H     H_    0.492187 0.080201 0.988869 0.153063
C43   C     C_R   0.463502 0.924781 0.873015 -0.119800
H14   H     H_    0.448274 0.875429 0.961424 0.149023
C44   C     C_R   0.460448 0.869787 0.743951 -0.123625
H15   H     H_    0.441130 0.780861 0.737214 0.154068
C45   C     C_R   0.480485 0.930249 0.625546 0.063334
C46   C     C_R   0.495287 0.056264 0.634118 0.103326
C47   C     C_R   0.500471 0.126179 0.507735 -0.163540
C48   C     C_R   0.495606 0.065893 0.380348 -0.164593
C49   C     C_R   0.486641 0.939156 0.373944 0.175102
C50   C     C_R   0.484862 0.868822 0.498206 -0.120572
C51   C     C_R   0.563865 0.665476 0.143510 -0.117651
H16   H     H_    0.566630 0.673513 0.253118 0.229667
C52   C     C_R   0.595052 0.746577 0.071176 -0.195778
H17   H     H_    0.619315 0.810141 0.127103 0.187916
C53   C     C_R   0.595225 0.746178 0.927853 -0.173520
H18   H     H_    0.619713 0.809214 0.871600 0.188347
C54   C     C_R   0.564213 0.664682 0.855999 -0.094571
H19   H     H_    0.567633 0.670915 0.746440 0.228519
C55   C     C_R   0.531452 0.581196 0.925200 0.173764
C56   C     C_R   0.531368 0.581372 0.074648 0.142021
N3    N     N_R   0.500460 0.501210 0.147910 -0.221157
C57   C     C_R   0.470083 0.422157 0.072207 0.338228
H20   H     H_    0.446056 0.359389 0.868910 0.180347
C58   C     C_R   0.470295 0.422710 0.925061 -0.093845
N4    N     N_R   0.500480 0.501290 0.852040 -0.227660
Br1   Br    Br    0.251512 0.705898 0.691646 -0.416930
C59   C     C_3   0.123492 0.543066 0.097352 -0.648102
H21   H     H_    0.096317 0.540163 0.011557 0.214056
H22   H     H_    0.144809 0.631824 0.085650 0.277069
H23   H     H_    0.146851 0.464035 0.083392 0.250979
Br2   Br    Br    0.973478 0.702102 0.110757 -0.498385
Br3   Br    Br    0.633536 0.776262 0.511281 -0.618162
C60   C     C_3   0.747022 0.760627 0.522345 -0.708369
H24   H     H_    0.735652 0.808004 0.617246 0.249138
H25   H     H_    0.786771 0.754592 0.528809 0.220753
H26   H     H_    0.738498 0.817763 0.429352 0.255446
C61   C     C_3   0.473150 0.886730 0.234258 -0.828469
H27   H     H_    0.449006 0.802380 0.242672 0.251941
H28   H     H_    0.451739 0.954359 0.175657 0.227233
H29   H     H_    0.506129 0.868818 0.175298 0.240551
Br4   Br    Br    0.425367 0.305701 0.158059 -0.542217
Br5   Br    Br    0.023227 0.313403 0.873741 -0.497692

loop_
_geom_bond_atom_site_label_1
_geom_bond_atom_site_label_2
_geom_bond_distance
_ccdc_geom_bond_type
C26   N2    1.368128 A    
C20   C24   1.420587 A    
C58   N4    1.358569 A    
C12   C15   1.417327 A    
C60   H25   1.108149 S    
C7    Br1   1.918396 S    
Cu1   Cu2   2.705303 S    
C46   C47   1.428028 A    
Cu1   O7    1.947154 S    
Cu1   N4    2.032863 S    
C37   C40   1.398058 A    
N1    C11   1.439544 S    
C44   C45   1.411554 A    
C21   C22   1.389190 A    
C52   C53   1.378398 A    
C23   C24   1.409285 A    
C49   C50   1.408323 A    
O7    C4    1.300763 A    
C53   C54   1.387766 A    
C5    C13   1.400562 A    
C5    O9    1.350626 S    
C3    C50   1.476234 S    
C18   C21   1.411557 A    
C25   C39   1.395207 A    
C61   H27   1.108980 S    
Cu1   O5    1.964178 S    
C19   C20   1.422005 A    
C17   C29   1.396122 A    
O5    C3    1.305793 A    
C19   C35   1.423528 A    
C22   H6    1.083938 S    
C52   H17   1.083054 S    
C6    O11   1.347935 S    
C2    C16   1.462947 S    
C7    C8    1.397902 A    
C41   H12   1.076663 S    
C42   H13   1.082344 S    
Cu2   N3    2.033254 S    
C8    H8    1.084111 S    
C12   C34   1.422355 A    
C14   H3    1.083563 S    
C57   C58   1.415029 A    
O1    Cu1   1.970216 S    
C9    C10   1.392503 A    
C38   C39   1.393406 A    
O3    Cu1   1.942403 S    
C60   H24   1.110377 S    
C36   Br5   1.931408 S    
C33   C34   1.423757 A    
C33   C36   1.427179 A    
C44   H15   1.082064 S    
C34   C35   1.417778 A    
H11   C48   1.083871 S    
C12   C13   1.407448 A    
O3    C2    1.301692 A    
C21   H7    1.077203 S    
C35   C40   1.405099 A    
C4    C17   1.456901 S    
C24   C25   1.405492 A    
C47   C48   1.398892 A    
C27   O10   1.350052 S    
C8    C16   1.402053 A    
C18   C33   1.421185 A    
C9    H1    1.081548 S    
C19   C38   1.431284 A    
C51   C56   1.415572 A    
O1    C1    1.294139 A    
C40   H10   1.076902 S    
C7    C11   1.410842 A    
C22   C23   1.396539 A    
C31   C32   1.415175 A    
Cu2   O8    1.942398 S    
N1    C6    1.369548 A    
N2    C32   1.434553 S    
C45   C46   1.410586 A    
C43   C44   1.384676 A    
C25   C26   1.404246 A    
C9    C16   1.400083 A    
C54   C55   1.415299 A    
C29   H4    1.083753 S    
C59   H21   1.110267 S    
C59   H22   1.109286 S    
N2    C27   1.367709 A    
C26   O12   1.350196 S    
C14   C36   1.390333 A    
C56   N3    1.381769 A    
C28   C29   1.389940 A    
C41   C46   1.420579 A    
C5    N1    1.365872 A    
C30   C31   1.411219 A    
C31   C60   1.509960 S    
C10   H2    1.083367 S    
C39   H9    1.084161 S    
C53   H18   1.083037 S    
C17   C30   1.408543 A    
Cu2   O6    1.970216 S    
O2    Cu2   1.964178 S    
C6    C15   1.417980 A    
O8    C4    1.300154 A    
C43   H14   1.077277 S    
O6    C3    1.305895 A    
C45   C50   1.411893 A    
O4    Cu2   1.947157 S    
C55   N4    1.382971 A    
C59   H23   1.110219 S    
C30   Br3   1.932063 S    
C49   C61   1.502188 S    
C51   C52   1.387921 A    
C61   H29   1.108420 S    
C38   Br2   1.932410 S    
C13   C14   1.395180 A    
C23   C27   1.403830 A    
C15   C37   1.419592 A    
C28   H5    1.083008 S    
C55   C56   1.437213 A    
O4    C2    1.303567 A    
N3    C57   1.380572 A    
C18   C20   1.420914 A    
C61   H28   1.109476 S    
O2    C1    1.314644 A    
H20   C58   1.082138 S    
C57   Br4   1.911195 S    
C48   C49   1.386711 A    
C54   H19   1.059845 S    
C41   C42   1.395064 A    
C51   H16   1.060449 S    
C37   C59   1.511951 S    
C10   C11   1.403334 A    
C42   C43   1.389500 A    
C1    C47   1.471178 S    
C60   H26   1.110318 S    
C28   C32   1.399444 A    
