data_mof_unit_4008.cif
_audit_creation_date              2012-12-10T20:30:08-0500
_audit_creation_method            fapswitch 2.2
_symmetry_space_group_name_H-M    P1
_symmetry_Int_Tables_number       1
_space_group_crystal_system       triclinic
_cell_length_a                    9.894227
_cell_length_b                    10.754395
_cell_length_c                    13.062593
_cell_angle_alpha                 90.075742
_cell_angle_beta                  69.366539
_cell_angle_gamma                 89.608017
_cell_volume                      1300.74356148

loop_
_atom_site_label
_atom_site_type_symbol
_atom_type_description
_atom_site_fract_x
_atom_site_fract_y
_atom_site_fract_z
_atom_type_partial_charge
C1    C     C_R   0.499871 0.739749 0.500004 0.928201
C2    C     C_R   0.427921 0.479765 0.987324 0.069638
C3    C     C_R   0.451953 0.441173 0.879290 0.115181
C4    C     C_R   0.537046 0.456362 0.031443 -0.052367
C5    C     C_R   0.650787 0.371379 0.978300 0.131176
C6    C     C_R   0.659748 0.317949 0.878733 -0.162822
C7    C     C_R   0.562957 0.353964 0.828693 -0.148921
C8    C     C_R   0.539850 0.518541 0.124695 0.515099
C9    C     C_R   0.739932 0.390061 0.128112 -0.255244
C10   C     C_R   0.366611 0.494179 0.823821 -0.129621
C11   C     C_R   0.369628 0.936977 0.550064 -0.030066
C12   C     C_R   0.419458 0.496221 0.704635 0.836506
C13   C     C_R   0.498584 0.871240 0.509388 -0.140532
C14   C     C_R   0.629340 0.933450 0.488460 -0.262157
C15   C     C_R   0.631145 0.062193 0.493009 0.496369
C16   C     C_R   0.499073 0.128349 0.516285 -0.257801
C17   C     C_R   0.368832 0.063624 0.556774 -0.098717
C18   C     C_3   0.223043 0.071611 0.542964 1.000077
C19   C     C_3   0.231337 0.929834 0.528675 -0.494965
C20   C     C_R   0.884412 0.517151 0.594765 -0.029381
C21   C     C_R   0.971369 0.471368 0.407949 0.650248
C22   C     C_R   0.114915 0.471930 0.407897 -0.157546
C23   C     C_R   0.499662 0.260065 0.502901 0.886719
C24   C     C_R   0.026124 0.513274 0.595471 -0.060873
C25   C     C_3   0.996938 0.617139 0.675445 0.320456
C26   C     C_3   0.847622 0.629108 0.667314 0.918661
C27   C     C_R   0.580713 0.498434 0.295406 0.930889
C28   C     C_R   0.753393 0.340828 0.026109 -0.171575
C29   C     C_R   0.630119 0.476586 0.178335 -0.159035
C30   C     C_R   0.242989 0.563602 0.881825 -0.160382
C31   C     C_R   0.203414 0.580118 0.993982 -0.142310
C32   C     C_R   0.295517 0.539650 0.046736 -0.103816
H1    H     H_    0.810042 0.356280 0.169795 0.230726
H2    H     H_    0.146805 0.881970 0.595628 0.201689
H3    H     H_    0.246474 0.892563 0.446122 0.186425
H4    H     H_    0.203032 0.450657 0.332904 0.182662
H5    H     H_    0.068989 0.697155 0.645766 0.075975
H6    H     H_    0.744196 0.251285 0.837864 0.132118
H7    H     H_    0.839211 0.274533 0.987282 0.157132
H8    H     H_    0.180505 0.609338 0.839861 0.229956
H9    H     H_    0.259939 0.553809 0.134076 0.209735
H10   H     H_    0.104841 0.629794 0.039212 0.177205
H11   H     H_    0.574999 0.312305 0.750492 0.132799
H12   H     H_    0.731494 0.883592 0.461406 0.216079
N1    N     N_R   0.856940 0.500860 0.500710 -0.148994
N2    N     N_R   0.142580 0.500820 0.500710 -0.145558
O1    O     O_R   0.385310 0.683210 0.499990 -0.611835
O2    O     O_R   0.614650 0.683240 0.500000 -0.580450
O3    O     O_R   0.328390 0.499940 0.653610 -0.605598
O4    O     O_R   0.557730 0.499980 0.653620 -0.580026
O5    O     O_R   0.385350 0.316760 0.500000 -0.608870
O6    O     O_R   0.614690 0.316790 0.500010 -0.566950
O7    O     O_R   0.442270 0.500020 0.346380 -0.592308
O8    O     O_R   0.671610 0.500060 0.346390 -0.557430
Zn1   Zn    Zn3+2 0.346870 0.499980 0.499990 0.976673
Zn2   Zn    Zn3+2 0.653130 0.500020 0.500010 1.054384
O9    O     O_3   0.763127 0.121858 0.457662 -0.587183
C33   C     C_3   0.823136 0.115075 0.540761 -0.163420
H13   H     H_    0.745961 0.148417 0.620959 0.120435
H14   H     H_    0.918405 0.176748 0.518317 0.221117
H15   H     H_    0.860619 0.018987 0.548471 0.190517
O10   O     O_3   0.107926 0.100018 0.641973 -0.666452
C34   C     C_3   0.117593 0.222171 0.677367 -0.210834
H16   H     H_    0.117042 0.290073 0.614249 0.219310
H17   H     H_    0.214267 0.233707 0.701013 0.151741
H18   H     H_    0.021233 0.241776 0.751054 0.174208
O11   O     O_3   0.214271 0.144053 0.453657 -0.620845
C35   C     C_3   0.307047 0.105065 0.348773 -0.325234
H19   H     H_    0.251203 0.036142 0.314623 0.189658
H20   H     H_    0.412182 0.066767 0.347196 0.154007
H21   H     H_    0.331109 0.186903 0.293792 0.199469
F1    F     F_    0.948620 0.443740 0.314202 -0.666592
F2    F     F_    0.990481 0.573402 0.776488 -0.675979
O12   O     O_3   0.732675 0.606219 0.766486 -0.589365
C36   C     C_3   0.693940 0.717014 0.828198 -0.150957
H22   H     H_    0.636833 0.781856 0.790689 0.177369
H23   H     H_    0.789096 0.763169 0.837914 0.164711
H24   H     H_    0.618179 0.694155 0.911177 0.185299
F3    F     F_    0.829917 0.734324 0.611395 -0.738458
F4    F     F_    0.456666 0.620991 0.165073 -0.699153

loop_
_geom_bond_atom_site_label_1
_geom_bond_atom_site_label_2
_ccdc_geom_bond_type
C34   H17   S    
C31   H10   S    
C27   C29   S    
C4    C8    A    
C12   O3    A    
C23   O6    A    
C27   O8    A    
C11   C19   S    
C8    C29   A    
O1    Zn1   S    
C3    C7    A    
C5    C6    A    
C16   C17   A    
C33   H14   S    
C15   C16   A    
C2    C32   A    
C18   C19   S    
C25   H5    S    
C20   C24   A    
N1    Zn2   S    
C35   H19   S    
N2    Zn1   S    
C32   H9    S    
C6    H6    S    
C7    H11   S    
O5    Zn1   S    
C20   N1    A    
C9    C29   A    
C33   H15   S    
C34   H18   S    
C21   C22   A    
C9    H1    S    
C15   O9    S    
C25   C26   S    
C21   N1    A    
O7    Zn1   S    
O8    Zn2   S    
O12   C36   S    
C21   F1    S    
O11   C35   S    
C24   C25   S    
C1    O1    A    
C28   H7    S    
C33   H13   S    
O3    Zn1   S    
O4    Zn2   S    
C2    C4    A    
C36   H22   S    
O10   C34   S    
C5    C28   A    
C10   C30   A    
C23   O5    A    
C31   C32   A    
C17   C18   S    
C30   H8    S    
C36   H23   S    
C10   C12   S    
C22   N2    A    
C16   C23   S    
C1    C13   S    
C14   H12   S    
O2    Zn2   S    
C11   C17   A    
C18   O10   S    
C4    C5    A    
C19   H2    S    
C12   O4    A    
C27   O7    A    
C1    O2    A    
C6    C7    A    
C22   H4    S    
C26   F3    S    
C24   N2    A    
C2    C3    A    
C18   O11   S    
C3    C10   A    
C19   H3    S    
C11   C13   A    
O9    C33   S    
C30   C31   A    
C20   C26   S    
C35   H21   S    
C26   O12   S    
C25   F2    S    
C36   H24   S    
C34   H16   S    
C35   H20   S    
C8    F4    S    
C14   C15   A    
C13   C14   A    
O6    Zn2   S    
C9    C28   A    
