data_mof_unit_2663.cif
_audit_creation_date              2012-12-10T20:27:13-0500
_audit_creation_method            fapswitch 2.2
_symmetry_space_group_name_H-M    P1
_symmetry_Int_Tables_number       1
_space_group_crystal_system       triclinic
_cell_length_a                    10.733164
_cell_length_b                    10.671375
_cell_length_c                    9.87737
_cell_angle_alpha                 90.264531
_cell_angle_beta                  103.569689
_cell_angle_gamma                 90.252008
_cell_volume                      1099.72043127

loop_
_atom_site_label
_atom_site_type_symbol
_atom_type_description
_atom_site_fract_x
_atom_site_fract_y
_atom_site_fract_z
_atom_type_partial_charge
C1    C     C_R   0.493121 0.260212 0.498018 0.892623
C2    C     C_R   0.588986 0.566218 0.094923 -0.128549
C3    C     C_R   0.589005 0.566211 0.951051 -0.135115
C4    C     C_R   0.258961 0.505211 0.442060 0.926176
C5    C     C_R   0.416992 0.424668 0.907314 0.229128
C6    C     C_3   0.274400 0.431035 0.866441 -0.509875
C7    C     C_3   0.274669 0.429472 0.019784 -0.524420
C8    C     C_R   0.498979 0.739725 0.500143 0.886549
C9    C     C_R   0.741289 0.504990 0.557689 0.940027
C10   C     C_2   0.122120 0.521402 0.408479 -0.376368
C11   C     C_2   0.067576 0.562789 0.507682 -0.153424
C12   C     C_R   0.476421 0.128011 0.496308 -0.137940
C13   C     C_2   0.878066 0.525638 0.589073 -0.383556
C14   C     C_2   0.931084 0.557793 0.484927 -0.152931
C15   C     C_R   0.530497 0.064977 0.618888 0.103675
C16   C     C_3   0.313793 0.122381 0.256572 -0.400882
C17   C     C_3   0.197525 0.178428 0.298364 -0.851319
C18   C     C_R   0.402582 0.060920 0.380181 0.155628
C19   C     C_R   0.410570 0.930513 0.382431 -0.265653
C20   C     C_R   0.484957 0.870960 0.499409 -0.132512
C21   C     C_R   0.533654 0.937683 0.620984 0.139606
C22   C     C_3   0.664360 0.934786 0.715951 -0.496873
C23   C     C_3   0.660881 0.076918 0.713784 -0.472407
C24   C     C_R   0.417214 0.424368 0.049918 0.205025
H1    H     H_    0.874791 0.568196 0.378592 0.181337
H2    H     H_    0.935132 0.513972 0.694804 0.153287
H3    H     H_    0.065919 0.496675 0.305095 0.150064
H4    H     H_    0.360573 0.875620 0.293363 0.161569
H5    H     H_    0.663106 0.894824 0.819373 0.203474
H6    H     H_    0.737589 0.894474 0.665384 0.196852
H7    H     H_    0.657585 0.119156 0.815974 0.208685
H8    H     H_    0.227495 0.250218 0.381092 0.251459
H9    H     H_    0.133302 0.222774 0.206810 0.237672
H10   H     H_    0.142955 0.103649 0.337493 0.257686
H11   H     H_    0.364853 0.194141 0.209400 0.225759
H12   H     H_    0.732133 0.119651 0.661979 0.196069
H13   H     H_    0.277697 0.052542 0.172456 0.194079
H14   H     H_    0.659052 0.622000 0.167223 0.140397
H15   H     H_    0.659078 0.621950 0.914966 0.142782
H16   H     H_    0.240078 0.521365 0.816760 0.208929
H17   H     H_    0.230714 0.345746 0.809134 0.204514
H18   H     H_    0.238901 0.517905 0.056711 0.220893
H19   H     H_    0.231966 0.342584 0.050958 0.202282
H20   H     H_    0.123365 0.588825 0.610384 0.175766
N1    N     N_R   0.499160 0.499140 0.142600 -0.104060
N2    N     N_R   0.499160 0.499180 0.856960 -0.106883
O1    O     O_R   0.500020 0.316790 0.614700 -0.612538
O2    O     O_R   0.500000 0.316760 0.385350 -0.617556
O3    O     O_R   0.317820 0.500020 0.571850 -0.614331
O4    O     O_R   0.317800 0.499980 0.342510 -0.615404
O5    O     O_R   0.500000 0.683240 0.614650 -0.616012
O6    O     O_R   0.499980 0.683210 0.385300 -0.622154
O7    O     O_R   0.682200 0.500020 0.657490 -0.618401
O8    O     O_R   0.682180 0.499980 0.428150 -0.615380
Zn1   Zn    Zn3+2 0.500010 0.500020 0.653140 0.938189
Zn2   Zn    Zn3+2 0.499990 0.499980 0.346860 0.934361

loop_
_geom_bond_atom_site_label_1
_geom_bond_atom_site_label_2
_ccdc_geom_bond_type
N2    Zn1   S    
C10   H3    S    
C1    O2    A    
C6    C7    S    
C22   H5    S    
C7    H19   S    
C5    N2    A    
C2    H14   S    
C3    N2    A    
C19   C20   A    
C12   C15   A    
C16   H13   S    
C15   C23   S    
C2    C3    A    
C4    O3    A    
C3    H15   S    
C11   H20   S    
C16   H11   S    
O3    Zn1   S    
C21   C22   S    
C20   C21   A    
C19   H4    S    
C5    C24   A    
C8    O5    A    
C8    C20   S    
C1    C12   S    
C17   H9    S    
C24   N1    A    
O1    Zn1   S    
C23   H12   S    
O5    Zn1   S    
O7    Zn1   S    
C2    N1    A    
C5    C6    S    
C11   C14   S    
O8    Zn2   S    
C13   H2    S    
C9    O7    A    
C10   C11   D    
C4    C10   S    
C7    C24   S    
C15   C21   A    
C6    H16   S    
C14   H1    S    
C16   C18   S    
C18   C19   A    
C17   H10   S    
C7    H18   S    
C12   C18   A    
O2    Zn2   S    
C17   H8    S    
C8    O6    A    
C22   C23   S    
C1    O1    A    
C9    C13   S    
C9    O8    A    
C22   H6    S    
C13   C14   D    
O4    Zn2   S    
O6    Zn2   S    
N1    Zn2   S    
C4    O4    A    
C16   C17   S    
C6    H17   S    
C23   H7    S    
