data_mof_unit_1548.cif
_audit_creation_date              2012-12-10T18:09:45-0500
_audit_creation_method            fapswitch 2.2
_symmetry_space_group_name_H-M    P1
_symmetry_Int_Tables_number       1
_space_group_crystal_system       triclinic
_cell_length_a                    10.634548
_cell_length_b                    12.601425
_cell_length_c                    13.117806
_cell_angle_alpha                 82.303062
_cell_angle_beta                  90.500008
_cell_angle_gamma                 102.275638
_cell_volume                      1701.89994883

loop_
_atom_site_label
_atom_site_type_symbol
_atom_type_description
_atom_site_fract_x
_atom_site_fract_y
_atom_site_fract_z
_atom_type_partial_charge
C1    C     C_R   0.489568 0.438804 0.691258 0.844786
C2    C     C_3   0.121112 0.498781 0.501731 0.153586
C3    C     C_3   0.095297 0.594494 0.422748 -0.413501
C4    C     C_3   0.073452 0.506790 0.612704 0.101790
C5    C     C_R   0.692256 0.700424 0.066803 -0.207068
C6    C     C_R   0.543818 0.597237 0.200440 -0.052967
C7    C     C_R   0.396044 0.300985 0.836919 -0.203302
C8    C     C_R   0.366951 0.273318 0.941278 -0.154697
C9    C     C_R   0.416657 0.346683 0.009301 -0.193109
C10   C     C_R   0.502352 0.447375 0.973895 0.084720
C11   C     C_R   0.546886 0.466426 0.870996 0.095994
C12   C     C_R   0.741785 0.500270 0.499756 0.832048
C13   C     C_R   0.545534 0.529814 0.036982 0.081368
C14   C     C_R   0.646554 0.620748 0.002379 0.183881
C15   C     C_R   0.702179 0.629319 0.905092 -0.262280
C16   C     C_R   0.653158 0.552864 0.840122 -0.214163
C17   C     C_R   0.489668 0.524833 0.133385 -0.256280
C18   C     C_R   0.642543 0.687550 0.166731 -0.215738
C19   C     C_R   0.482465 0.399232 0.801007 -0.119237
C20   C     C_R   0.327480 0.091463 0.341380 -0.294856
C21   C     C_R   0.652126 0.799640 0.629993 0.030554
C22   C     C_R   0.682885 0.904030 0.658468 -0.256981
C23   C     C_R   0.515816 0.561098 0.308834 0.855080
C24   C     C_R   0.625153 0.985460 0.608885 -0.182884
C25   C     C_R   0.536365 0.962648 0.529582 0.009978
C26   C     C_R   0.508635 0.854888 0.503515 0.203804
C27   C     C_R   0.474679 0.042043 0.475362 -0.063218
C28   C     C_R   0.389730 0.013339 0.394004 0.149508
C29   C     C_R   0.367592 0.907040 0.367175 0.142505
C30   C     C_R   0.423943 0.828883 0.423971 -0.288831
C31   C     C_R   0.494268 0.149911 0.498344 -0.035552
C32   C     C_R   0.351068 0.196219 0.368183 -0.008123
C33   C     C_R   0.258045 0.499242 0.500739 0.827312
C34   C     C_3   0.900815 0.390142 0.468960 -0.391931
C35   C     C_3   0.043752 0.390266 0.468171 -0.468427
C36   C     C_3   0.951581 0.596252 0.423669 -0.397845
C37   C     C_3   0.928889 0.510803 0.610752 -0.427292
C38   C     C_3   0.878169 0.499519 0.500798 0.144634
H1    H     H_    0.862355 0.379223 0.390896 0.189954
H2    H     H_    0.938675 0.675852 0.445044 0.179732
H3    H     H_    0.152762 0.674271 0.439451 0.185136
H4    H     H_    0.685776 0.744036 0.218955 0.157609
H5    H     H_    0.782289 0.695982 0.878581 0.136613
H6    H     H_    0.770046 0.769576 0.041545 0.134413
H7    H     H_    0.407072 0.461692 0.160660 0.136532
H8    H     H_    0.347616 0.247443 0.784007 0.155603
H9    H     H_    0.388967 0.321248 0.089210 0.128864
H10   H     H_    0.301185 0.196948 0.969049 0.139654
H11   H     H_    0.849932 0.319007 0.523813 0.178234
H12   H     H_    0.700043 0.561112 0.765762 0.147494
H13   H     H_    0.304848 0.257659 0.327645 0.125332
H14   H     H_    0.261031 0.072342 0.280138 0.172888
H15   H     H_    0.557305 0.179583 0.557686 0.122066
H16   H     H_    0.697265 0.736247 0.667617 0.125100
H17   H     H_    0.652948 0.065062 0.633746 0.130867
H18   H     H_    0.751396 0.921855 0.718638 0.142411
H19   H     H_    0.401818 0.748584 0.402360 0.216265
H20   H     H_    0.060747 0.318105 0.521182 0.182606
H21   H     H_    0.074600 0.381169 0.389409 0.187820
H22   H     H_    0.913024 0.589982 0.344993 0.163102
H23   H     H_    0.125435 0.584301 0.344172 0.148483
H24   H     H_    0.909546 0.586561 0.635628 0.184195
H25   H     H_    0.874458 0.441895 0.666104 0.126657
H26   H     H_    0.080194 0.428043 0.660495 0.077312
N1    N     N_R   0.433240 0.222190 0.444680 -0.098080
N2    N     N_R   0.566070 0.776970 0.554790 -0.119141
O1    O     O_R   0.468120 0.366740 0.627160 -0.616938
O2    O     O_R   0.510770 0.544830 0.662520 -0.606706
O3    O     O_R   0.663880 0.410950 0.482330 -0.624690
O4    O     O_R   0.706530 0.589040 0.517700 -0.635315
O5    O     O_R   0.489230 0.455170 0.337480 -0.609394
O6    O     O_R   0.531880 0.633260 0.372840 -0.637941
O7    O     O_R   0.293470 0.410960 0.482300 -0.632299
O8    O     O_R   0.336120 0.589050 0.517670 -0.608158
Zn1   Zn    Zn3+2 0.471520 0.381090 0.476390 0.925502
Zn2   Zn    Zn3+2 0.528480 0.618910 0.523610 0.925686
N3    N     N_2   0.155407 0.594246 0.661368 -0.276714
H27   H     H_    0.193885 0.568625 0.730471 0.221990
C39   C     C_3   0.131084 0.703933 0.653917 -0.750568
H28   H     H_    0.223300 0.762961 0.661420 0.243625
H29   H     H_    0.064864 0.708519 0.717412 0.213975
H30   H     H_    0.088959 0.728762 0.579543 0.238668
N4    N     N_2   0.289719 0.878135 0.282011 -0.315325
H31   H     H_    0.236538 0.798815 0.292623 0.217271
C40   C     C_3   0.358874 0.903364 0.184287 -0.798040
H32   H     H_    0.290601 0.884148 0.121480 0.236089
H33   H     H_    0.433401 0.853482 0.183607 0.247939
H34   H     H_    0.405517 0.991810 0.169500 0.250358

loop_
_geom_bond_atom_site_label_1
_geom_bond_atom_site_label_2
_ccdc_geom_bond_type
C2    C35   S    
C12   O3    A    
C21   N2    A    
O6    Zn2   S    
C37   H24   S    
C7    C8    A    
N3    H27   S    
C24   H17   S    
C11   C19   A    
C29   C30   A    
O8    Zn2   S    
C35   H20   S    
C28   C29   A    
C17   H7    S    
C29   N4    S    
C18   H4    S    
C21   H16   S    
C15   C16   A    
C30   H19   S    
C1    O2    A    
C35   H21   S    
C34   C35   S    
C8    C9    A    
C9    C10   A    
N3    C39   S    
C13   C14   A    
O7    Zn1   S    
C37   H25   S    
C3    H23   S    
C6    C18   A    
C1    C19   S    
C40   H33   S    
C27   C31   A    
C34   H1    S    
C26   N2    A    
C7    H8    S    
C23   O5    A    
C36   H2    S    
C24   C25   A    
C39   H29   S    
C22   H18   S    
C5    C18   A    
C20   C28   A    
C25   C26   A    
C40   H32   S    
C2    C4    S    
C8    H10   S    
C32   H13   S    
C37   C38   S    
C11   C16   A    
N4    H31   S    
N2    Zn2   S    
C31   H15   S    
C5    C14   A    
C2    C33   S    
C33   O7    A    
N4    C40   S    
C5    H6    S    
C9    H9    S    
C7    C19   A    
O4    Zn2   S    
C22   C24   A    
O2    Zn2   S    
C20   C32   A    
C40   H34   S    
C31   N1    A    
C6    C17   A    
C12   O4    A    
C3    H3    S    
C34   H11   S    
C34   C38   S    
C23   O6    A    
C16   H12   S    
C36   H22   S    
C10   C13   A    
C39   H30   S    
C26   C30   A    
C25   C27   A    
C4    H26   S    
N1    Zn1   S    
C13   C17   A    
C36   C38   S    
C2    C3    S    
C15   H5    S    
C4    N3    S    
C20   H14   S    
O5    Zn1   S    
C3    C36   S    
C6    C23   S    
C1    O1    A    
O3    Zn1   S    
C12   C38   S    
C10   C11   A    
C39   H28   S    
C33   O8    A    
O1    Zn1   S    
C4    C37   S    
C27   C28   A    
C14   C15   A    
C21   C22   A    
C32   N1    A    
