data_mof_unit_2127.cif
_audit_creation_date              2012-12-10T17:58:17-0500
_audit_creation_method            fapswitch 2.2
_symmetry_space_group_name_H-M    P1
_symmetry_Int_Tables_number       1
_space_group_crystal_system       triclinic
_cell_length_a                    9.693588
_cell_length_b                    10.822764
_cell_length_c                    15.764416
_cell_angle_alpha                 89.92152
_cell_angle_beta                  71.418421
_cell_angle_gamma                 90.011195
_cell_volume                      1567.65078016

loop_
_atom_site_label
_atom_site_type_symbol
_atom_type_description
_atom_site_fract_x
_atom_site_fract_y
_atom_site_fract_z
_atom_type_partial_charge
C1    C     C_R   0.999933 0.262609 0.500047 0.781424
C2    C     C_R   0.000068 0.737387 0.499951 0.776117
C3    C     C_R   0.581041 0.609671 0.091274 -0.269733
C4    C     C_R   0.419094 0.610047 0.908668 -0.274001
C5    C     C_R   0.725827 0.585016 0.045156 0.214614
C6    C     C_R   0.274311 0.585182 0.954828 0.210991
C7    C     C_R   0.874812 0.063877 0.499699 -0.187638
C8    C     C_R   0.125192 0.936098 0.500292 -0.188098
C9    C     C_R   0.874876 0.936025 0.499624 -0.188266
C10   C     C_R   0.125125 0.063949 0.500372 -0.187478
C11   C     C_R   0.000057 0.871526 0.499939 -0.015001
C12   C     C_R   0.999945 0.128455 0.500056 -0.016760
C13   C     C_R   0.542017 0.432766 0.561295 -0.035088
C14   C     C_R   0.457981 0.567251 0.438696 -0.029207
C15   C     C_R   0.394471 0.432749 0.561251 -0.025197
C16   C     C_R   0.605531 0.567267 0.438741 -0.028192
C17   C     C_R   0.914938 0.502333 0.671380 0.793309
C18   C     C_R   0.085061 0.502382 0.328634 0.794646
C19   C     C_R   0.861757 0.514019 0.768758 -0.045244
C20   C     C_R   0.138295 0.514064 0.231263 -0.046462
C21   C     C_R   0.895595 0.488815 0.912081 -0.136568
C22   C     C_R   0.104803 0.488311 0.087945 -0.136881
C23   C     C_R   0.943633 0.469837 0.820270 -0.225971
C24   C     C_R   0.056759 0.469280 0.179792 -0.227758
C25   C     C_R   0.725350 0.567016 0.810818 -0.238252
C26   C     C_R   0.274550 0.567494 0.189165 -0.234689
C27   C     C_R   0.672220 0.580178 0.904725 0.049210
C28   C     C_R   0.327893 0.580312 0.095223 0.050226
C29   C     C_R   0.767099 0.553621 0.954018 0.114552
C30   C     C_R   0.233097 0.553551 0.045967 0.116089
C31   C     C_R   0.523940 0.603438 0.952321 0.025841
C32   C     C_R   0.476239 0.603419 0.047597 0.026089
Cu1   Cu    Cu3+1 0.140660 0.500020 0.500000 0.940339
Cu2   Cu    Cu3+1 0.859340 0.499980 0.500000 0.937845
H1    H     H_    0.336535 0.597602 0.231141 0.140404
H2    H     H_    0.663039 0.596469 0.768833 0.148673
H3    H     H_    0.956219 0.419446 0.210506 0.146482
H4    H     H_    0.044417 0.420447 0.789626 0.138640
H5    H     H_    0.956351 0.447201 0.949864 0.153529
H6    H     H_    0.044350 0.446282 0.050177 0.153063
H7    H     H_    0.553706 0.625879 0.162115 0.139781
H8    H     H_    0.446350 0.627043 0.837888 0.145329
H9    H     H_    0.776846 0.111798 0.499460 0.151091
H10   H     H_    0.223159 0.888174 0.500528 0.150730
H11   H     H_    0.776964 0.888044 0.499313 0.150414
H12   H     H_    0.223037 0.111928 0.500686 0.151032
H13   H     H_    0.570726 0.378268 0.610749 0.118220
H14   H     H_    0.429290 0.621733 0.389218 0.108415
H15   H     H_    0.314555 0.378143 0.610666 0.113398
H16   H     H_    0.685444 0.621859 0.389303 0.118889
N1    N     N_R   0.352080 0.500030 0.499980 -0.155998
N2    N     N_R   0.647920 0.499970 0.500020 -0.158040
O1    O     O_R   0.118740 0.319660 0.500000 -0.584866
O2    O     O_R   0.881260 0.680340 0.500000 -0.587261
O3    O     O_R   0.881170 0.319630 0.500010 -0.584653
O4    O     O_R   0.118830 0.680370 0.499990 -0.586392
O5    O     O_R   0.055570 0.500030 0.629830 -0.582369
O6    O     O_R   0.944430 0.499970 0.370170 -0.583197
O7    O     O_R   0.818000 0.500000 0.629840 -0.587759
O8    O     O_R   0.182000 0.500000 0.370160 -0.584963
N3    N     N_2   0.828569 0.592487 0.091614 -0.427432
H17   H     H_    0.799570 0.537178 0.147857 0.241657
C33   C     C_3   0.858313 0.717653 0.113299 -0.657171
H18   H     H_    0.763822 0.755460 0.167304 0.202059
H19   H     H_    0.881003 0.778371 0.053598 0.231726
H20   H     H_    0.954513 0.718326 0.136983 0.238110
N4    N     N_2   0.171290 0.593831 0.908638 -0.428722
H21   H     H_    0.201145 0.541303 0.851123 0.242085
C34   C     C_3   0.138929 0.719697 0.890004 -0.644401
H22   H     H_    0.043366 0.720725 0.865706 0.237992
H23   H     H_    0.233067 0.760963 0.837463 0.206839
H24   H     H_    0.113979 0.777165 0.951303 0.229861

loop_
_geom_bond_atom_site_label_1
_geom_bond_atom_site_label_2
_ccdc_geom_bond_type
C10   H12   S    
C34   H24   S    
C19   C23   A    
C33   H19   S    
C9    H11   S    
C15   N1    A    
Cu1   N1    S    
C23   H4    S    
C16   N2    A    
Cu1   O5    S    
Cu2   N2    S    
C31   C32   A    
C21   H5    S    
C13   C15   A    
N3    C33   S    
C22   H6    S    
C13   H13   S    
N3    H17   S    
Cu1   O4    S    
C28   C30   A    
C24   H3    S    
C1    O3    A    
C33   H20   S    
C5    N3    S    
Cu2   O3    S    
C2    O4    A    
C26   C28   A    
C9    C11   A    
C8    H10   S    
Cu2   O7    S    
C1    C12   S    
C4    H8    S    
C17   O7    A    
C8    C11   A    
C2    C11   S    
C10   C12   A    
C22   C24   A    
C18   O8    A    
C6    N4    S    
C17   C19   S    
C16   H16   S    
Cu2   O2    S    
Cu1   O8    S    
C18   C20   S    
C34   H22   S    
C15   H15   S    
C21   C23   A    
Cu1   O1    S    
C3    C32   A    
C19   C25   A    
C14   C16   A    
C7    C12   A    
C4    C31   A    
C27   C29   A    
C25   H2    S    
C27   C31   A    
N4    H21   S    
C13   N2    A    
C5    C29   A    
C20   C24   A    
C26   H1    S    
C28   C32   A    
Cu1   Cu2   S    
Cu2   O6    S    
C4    C6    A    
C2    O2    A    
C17   O5    A    
C7    H9    S    
C7    C9    A    
C3    C5    A    
C1    O1    A    
C3    H7    S    
C14   H14   S    
C22   C30   A    
N4    C34   S    
C21   C29   A    
C6    C30   A    
C8    C10   A    
C18   O6    A    
C14   N1    A    
C34   H23   S    
C33   H18   S    
C20   C26   A    
C25   C27   A    
