data_mof_unit_2105.cif
_audit_creation_date              2012-12-10T18:34:11-0500
_audit_creation_method            fapswitch 2.2
_symmetry_space_group_name_H-M    P1
_symmetry_Int_Tables_number       1
_space_group_crystal_system       triclinic
_cell_length_a                    11.058514
_cell_length_b                    15.118507
_cell_length_c                    13.806146
_cell_angle_alpha                 90.580548
_cell_angle_beta                  103.012574
_cell_angle_gamma                 89.875768
_cell_volume                      2248.83587035

loop_
_atom_site_label
_atom_site_type_symbol
_atom_type_description
_atom_site_fract_x
_atom_site_fract_y
_atom_site_fract_z
_atom_type_partial_charge
C1    C     C_R   0.494745 0.329559 0.498109 0.807150
C2    C     C_R   0.501249 0.669733 0.500711 0.811829
C3    C     C_R   0.490960 0.046970 0.497677 -0.004301
C4    C     C_R   0.497276 0.949990 0.501147 -0.008907
C5    C     C_R   0.602831 0.460697 0.126330 0.002018
C6    C     C_R   0.422701 0.439387 0.878323 -0.005488
C7    C     C_R   0.596638 0.461424 0.227610 0.032504
C8    C     C_R   0.424079 0.442955 0.775654 0.067488
C9    C     C_R   0.405645 0.538006 0.191151 0.060569
C10   C     C_R   0.576370 0.555448 0.805507 0.066298
C11   C     C_R   0.405584 0.537347 0.089300 -0.325202
C12   C     C_R   0.577524 0.555943 0.907387 -0.313545
C13   C     C_R   0.504253 0.498768 0.055096 0.095579
C14   C     C_R   0.500986 0.497929 0.945389 0.088546
C15   C     C_R   0.262368 0.500514 0.459525 0.733969
C16   C     C_R   0.737556 0.498708 0.540517 0.743433
C17   C     C_2   0.126716 0.500013 0.435495 0.244381
C18   C     C_2   0.873066 0.497269 0.565086 0.239489
C19   C     C_2   0.067595 0.494754 0.509963 -0.224159
C20   C     C_2   0.932799 0.489994 0.491064 -0.228097
C21   C     C_R   0.528880 0.095656 0.585634 -0.171928
C22   C     C_R   0.391110 0.901045 0.458319 -0.151586
C23   C     C_R   0.528388 0.187119 0.583775 -0.260826
C24   C     C_R   0.395241 0.809575 0.457207 -0.249962
C25   C     C_R   0.486776 0.232357 0.494268 -0.118424
C26   C     C_R   0.504018 0.765537 0.502320 -0.093967
C27   C     C_R   0.440337 0.183695 0.404241 -0.004353
C28   C     C_R   0.611775 0.813182 0.548854 -0.022081
C29   C     C_R   0.448535 0.090483 0.406502 0.403691
C30   C     C_R   0.609030 0.906295 0.544965 0.413460
Cu1   Cu    Cu3+1 0.500000 0.499990 0.596430 0.927552
Cu2   Cu    Cu3+1 0.500000 0.500010 0.403570 0.924531
H1    H     H_    0.881166 0.480646 0.414781 0.185915
H2    H     H_    0.119691 0.494883 0.586776 0.188920
H3    H     H_    0.328787 0.567274 0.037202 0.146777
H4    H     H_    0.638580 0.601238 0.956648 0.141900
H5    H     H_    0.560413 0.062581 0.656079 0.177876
H6    H     H_    0.304694 0.933890 0.425334 0.177813
H7    H     H_    0.562191 0.222676 0.653100 0.168006
H8    H     H_    0.312452 0.772783 0.422612 0.133275
H9    H     H_    0.670005 0.430640 0.281922 0.124967
H10   H     H_    0.365166 0.400136 0.722157 0.120897
H11   H     H_    0.329477 0.568804 0.215930 0.128368
H12   H     H_    0.636994 0.599531 0.777658 0.134839
N1    N     N_R   0.500000 0.500020 0.258690 -0.176614
N2    N     N_R   0.500000 0.499980 0.741310 -0.181720
O1    O     O_R   0.500010 0.371450 0.581440 -0.592577
O2    O     O_R   0.499990 0.628550 0.418560 -0.576638
O3    O     O_R   0.500010 0.371460 0.418560 -0.582119
O4    O     O_R   0.499990 0.628540 0.581440 -0.575655
O5    O     O_R   0.320690 0.500000 0.551510 -0.608067
O6    O     O_R   0.679310 0.500000 0.448490 -0.612495
O7    O     O_R   0.320690 0.500010 0.388630 -0.568034
O8    O     O_R   0.679310 0.499990 0.611370 -0.567898
O9    O     O_3   0.937106 0.514694 0.661790 -0.580372
C31   C     C_3   0.945240 0.436238 0.717392 0.075574
H13   H     H_    0.005935 0.387351 0.690510 0.132099
H14   H     H_    0.852514 0.405819 0.713071 0.152619
C32   C     C_3   0.001411 0.458024 0.825944 -0.807689
H15   H     H_    0.940888 0.505480 0.854830 0.244331
H16   H     H_    0.010116 0.396864 0.870723 0.199727
H17   H     H_    0.094701 0.487964 0.833389 0.251707
O10   O     O_3   0.061418 0.498605 0.337167 -0.581553
C33   C     C_3   0.055971 0.585554 0.300084 0.080040
H18   H     H_    0.149973 0.609376 0.296460 0.139312
H19   H     H_    0.014968 0.632036 0.347165 0.140088
C34   C     C_3   0.974303 0.586449 0.195546 -0.829527
H20   H     H_    0.877600 0.568850 0.197848 0.243254
H21   H     H_    0.974451 0.653560 0.163635 0.201076
H22   H     H_    0.009663 0.538271 0.147248 0.250576
C35   C     C_3   0.379390 0.227898 0.306220 -0.378032
C36   C     C_3   0.254594 0.270587 0.310882 -0.308897
C37   C     C_3   0.198858 0.319879 0.215172 -0.806864
H23   H     H_    0.261723 0.374026 0.203721 0.265089
H24   H     H_    0.183585 0.273869 0.150302 0.235167
H25   H     H_    0.108232 0.349098 0.220187 0.265352
H26   H     H_    0.188764 0.218179 0.321941 0.210679
H27   H     H_    0.265567 0.317732 0.374283 0.221699
H28   H     H_    0.443413 0.275833 0.283841 0.207847
H29   H     H_    0.360118 0.179584 0.243648 0.225765
C38   C     C_3   0.729893 0.766580 0.601580 -0.352146
C39   C     C_3   0.747839 0.774880 0.714745 -0.326192
C40   C     C_3   0.859069 0.720922 0.768657 -0.837362
H30   H     H_    0.844321 0.649687 0.749629 0.288965
H31   H     H_    0.945097 0.743627 0.747702 0.265719
H32   H     H_    0.870624 0.729220 0.850231 0.228780
H33   H     H_    0.762859 0.845247 0.738237 0.251988
H34   H     H_    0.663175 0.751268 0.737200 0.209936
H35   H     H_    0.728731 0.695543 0.580468 0.185612
H36   H     H_    0.811111 0.795411 0.578353 0.203988
O11   O     O_3   0.408721 0.041387 0.319981 -0.595549
C41   C     C_3   0.511300 0.024290 0.277417 0.040068
H37   H     H_    0.562286 0.086207 0.268616 0.125133
H38   H     H_    0.576185 0.976922 0.323673 0.137686
C42   C     C_3   0.465195 0.982791 0.175021 -0.780143
H39   H     H_    0.400937 0.028903 0.126406 0.239112
H40   H     H_    0.545057 0.968481 0.140898 0.195663
H41   H     H_    0.415653 0.920005 0.181299 0.254239
O12   O     O_3   0.714338 0.954097 0.588407 -0.594956
C43   C     C_3   0.777279 0.978397 0.514289 0.052893
H42   H     H_    0.727784 0.033360 0.469041 0.139244
H43   H     H_    0.787011 0.921718 0.464220 0.120570
C44   C     C_3   0.906724 0.010580 0.564071 -0.788184
H44   H     H_    0.959235 0.956864 0.609471 0.245541
H45   H     H_    0.957144 0.030450 0.506686 0.194867
H46   H     H_    0.900507 0.068474 0.612900 0.248991
C45   C     C_3   0.715987 0.420787 0.097945 -0.434575
C46   C     C_3   0.689146 0.328807 0.050373 -0.336673
C47   C     C_3   0.806772 0.287228 0.029562 -0.850131
H47   H     H_    0.844960 0.329277 0.978009 0.253578
H48   H     H_    0.877973 0.279286 0.099874 0.255267
H49   H     H_    0.784709 0.221018 0.994591 0.239776
H50   H     H_    0.651732 0.285122 0.100993 0.209623
H51   H     H_    0.619495 0.333437 0.979007 0.228520
H52   H     H_    0.750376 0.465529 0.046804 0.209630
H53   H     H_    0.792702 0.414739 0.165255 0.208288
C48   C     C_3   0.342122 0.373865 0.918707 -0.429445
C49   C     C_3   0.279060 0.301998 0.845154 -0.372888
C50   C     C_3   0.211926 0.234921 0.896303 -0.843230
H54   H     H_    0.279307 0.199968 0.955455 0.250018
H55   H     H_    0.141572 0.268384 0.929921 0.250011
H56   H     H_    0.164274 0.185326 0.840936 0.242400
H57   H     H_    0.210214 0.332751 0.783605 0.214686
H58   H     H_    0.349847 0.266314 0.813840 0.218378
H59   H     H_    0.401234 0.340006 0.983583 0.207916
H60   H     H_    0.269806 0.411295 0.946148 0.207917

loop_
_geom_bond_atom_site_label_1
_geom_bond_atom_site_label_2
_ccdc_geom_bond_type
O9    C31   S    
C9    N1    A    
C27   C29   A    
Cu2   O2    S    
Cu2   N1    S    
C42   H39   S    
C8    H10   S    
C35   H28   S    
C38   C39   S    
C42   H41   S    
C31   H13   S    
C40   H30   S    
C7    N1    A    
C24   C26   A    
C47   H48   S    
C39   H34   S    
C39   H33   S    
C22   H6    S    
C46   C47   S    
C37   H23   S    
C46   H51   S    
C3    C29   A    
C49   C50   S    
Cu2   O6    S    
C36   H27   S    
C2    O4    A    
C17   C19   D    
C19   C20   S    
Cu1   N2    S    
C10   N2    A    
C45   C46   S    
C15   O5    A    
C12   H4    S    
C48   H60   S    
C6    C48   S    
C5    C13   A    
C38   H35   S    
C7    H9    S    
C32   H15   S    
Cu1   O1    S    
C13   C14   S    
C1    C25   S    
C37   H24   S    
C43   H43   S    
C35   H29   S    
C16   O8    A    
C50   H55   S    
Cu2   O3    S    
C9    H11   S    
C32   H16   S    
C10   H12   S    
C34   H20   S    
C33   C34   S    
C2    C26   S    
C47   H49   S    
O11   C41   S    
C5    C7    A    
C1    O1    A    
C6    C8    A    
C2    O2    A    
C30   O12   S    
C43   C44   S    
C34   H21   S    
C33   H19   S    
C46   H50   S    
C36   H26   S    
C6    C14   A    
C4    C22   A    
O12   C43   S    
C40   H32   S    
C41   H38   S    
C44   H45   S    
C49   H58   S    
C9    C11   A    
C45   H52   S    
C10   C12   A    
C18   O9    S    
C20   H1    S    
C40   H31   S    
C12   C14   A    
C21   C23   A    
C37   H25   S    
C22   C24   A    
C3    C21   A    
C38   H36   S    
Cu1   O4    S    
C3    C4    S    
C15   O7    A    
Cu2   O7    S    
C29   O11   S    
C27   C35   S    
C5    C45   S    
C50   H56   S    
C15   C17   S    
C32   H17   S    
C28   C38   S    
Cu1   Cu2   S    
C16   O6    A    
Cu1   O5    S    
C36   C37   S    
C19   H2    S    
C50   H54   S    
C42   H40   S    
C25   C27   A    
C26   C28   A    
C31   C32   S    
C34   H22   S    
C33   H18   S    
C28   C30   A    
C35   C36   S    
C48   C49   S    
C17   O10   S    
C11   C13   A    
C48   H59   S    
C23   H7    S    
C11   H3    S    
C41   H37   S    
C24   H8    S    
C31   H14   S    
C44   H46   S    
C18   C20   D    
C49   H57   S    
C41   C42   S    
Cu1   O8    S    
C8    N2    A    
C45   H53   S    
O10   C33   S    
C23   C25   A    
C21   H5    S    
C16   C18   S    
C39   C40   S    
C44   H44   S    
C43   H42   S    
C47   H47   S    
C1    O3    A    
C4    C30   A    
