data_mof_unit_4779.cif
_audit_creation_date              2012-10-26T21:21:04-0400
_audit_creation_method            fapswitch 2.2
_symmetry_space_group_name_H-M    P1
_symmetry_Int_Tables_number       1
_space_group_crystal_system       triclinic
_cell_length_a                    10.8446
_cell_length_b                    10.899244
_cell_length_c                    9.64895
_cell_angle_alpha                 92.880563
_cell_angle_beta                  90.537618
_cell_angle_gamma                 90.059111
_cell_volume                      1138.99354778

loop_
_atom_site_label
_atom_site_type_symbol
_atom_type_description
_atom_site_fract_x
_atom_site_fract_y
_atom_site_fract_z
_atom_type_partial_charge
C1    C     C_R   0.497307 0.265495 0.496063 0.557866
C2    C     C_2   0.487808 0.134178 0.484146 -0.113166
C3    C     C_2   0.421268 0.437377 0.917731 -0.006056
C4    C     C_R   0.262798 0.511989 0.500813 0.540501
C5    C     C_2   0.417593 0.442253 0.073896 -0.010495
C6    C     C_R   0.508119 0.735228 0.504030 0.544347
C7    C     C_R   0.738292 0.494449 0.501428 0.545215
C8    C     C_R   0.121737 0.588379 0.756073 -0.097842
C9    C     C_R   0.066170 0.574375 0.885842 0.269818
C10   C     C_R   0.954336 0.511999 0.888768 -0.110214
C11   C     C_R   0.891285 0.478842 0.766011 -0.157640
C12   C     C_R   0.064944 0.541214 0.631427 -0.012839
C13   C     C_R   0.940749 0.504407 0.634954 0.013958
C14   C     C_3   0.186533 0.719153 0.011066 -0.022778
C15   C     C_3   0.207652 0.767831 0.159939 -0.369250
C16   C     C_R   0.628723 0.869934 0.287127 0.062898
C17   C     C_R   0.565631 0.865096 0.159469 -0.068035
C18   C     C_R   0.617485 0.803699 0.043388 -0.125422
C19   C     C_R   0.733260 0.748564 0.053638 -0.132515
C20   C     C_R   0.796682 0.753056 0.180576 -0.110224
C21   C     C_R   0.744481 0.813110 0.297361 -0.072370
C22   C     C_R   0.510887 0.927367 0.660429 0.026378
C23   C     C_R   0.128780 0.525864 0.503874 -0.015593
C24   C     C_R   0.396202 0.919147 0.726437 -0.100949
C25   C     C_R   0.375443 0.984101 0.852736 -0.138186
C26   C     C_R   0.468910 0.056936 0.914587 -0.108571
C27   C     C_R   0.584571 0.061973 0.852523 -0.094398
C28   C     C_R   0.606104 0.996584 0.726697 -0.088373
C29   C     C_R   0.062894 0.505826 0.379575 -0.164374
C30   C     C_R   0.936174 0.494652 0.380971 -0.165904
C31   C     C_R   0.873356 0.492922 0.507043 -0.004029
C32   C     C_2   0.572486 0.932279 0.411135 -0.056037
C33   C     C_2   0.528817 0.868356 0.518410 -0.035119
C34   C     C_2   0.573840 0.067757 0.416167 -0.171583
Cu1   Cu    Cu3+1 0.500020 0.500020 0.638630 0.911071
Cu2   Cu    Cu3+1 0.499980 0.499980 0.361370 0.926987
H1    H     H_    0.109348 0.497385 0.280652 0.174028
H2    H     H_    0.887629 0.484344 0.282418 0.137432
H3    H     H_    0.646956 0.113745 0.362263 0.132523
H4    H     H_    0.132304 0.789073 0.956031 0.117554
H5    H     H_    0.278382 0.706335 0.962135 0.143435
H6    H     H_    0.267510 0.703675 0.215837 0.191803
H7    H     H_    0.253217 0.859106 0.160689 0.086064
H8    H     H_    0.118170 0.777586 0.214436 0.147262
H9    H     H_    0.475687 0.906977 0.150865 0.102750
H10   H     H_    0.567792 0.798339 0.945533 0.134434
H11   H     H_    0.773278 0.701740 0.963384 0.116574
H12   H     H_    0.408851 0.092969 0.531536 0.109655
H13   H     H_    0.886030 0.709706 0.188488 0.125910
H14   H     H_    0.793907 0.815322 0.395542 0.093908
H15   H     H_    0.321802 0.865821 0.677820 0.095209
H16   H     H_    0.286422 0.979096 0.901902 0.094838
H17   H     H_    0.452255 0.108176 0.011617 0.108290
H18   H     H_    0.657375 0.117042 0.901603 0.110698
H19   H     H_    0.695695 0.002594 0.678837 0.104516
H20   H     H_    0.353482 0.380064 0.862124 0.153262
H21   H     H_    0.559465 0.557458 0.898041 0.197722
H22   H     H_    0.342926 0.394180 0.121976 0.147038
H23   H     H_    0.573076 0.538870 0.108930 0.214930
H24   H     H_    0.208712 0.636051 0.752822 0.125035
H25   H     H_    0.914257 0.491474 0.987409 0.114846
H26   H     H_    0.807509 0.427128 0.777098 0.152854
N1    N     N_2   0.498640 0.498660 0.846910 -0.361866
N2    N     N_2   0.498610 0.498630 0.153040 -0.352601
O1    O     O_R   0.500020 0.321960 0.617040 -0.481964
O2    O     O_R   0.499980 0.321920 0.382900 -0.491683
O3    O     O_R   0.319670 0.500020 0.617100 -0.505617
O4    O     O_R   0.319630 0.499980 0.382950 -0.505465
O5    O     O_R   0.500020 0.678080 0.617100 -0.502898
O6    O     O_R   0.499980 0.678040 0.382960 -0.485609
O7    O     O_R   0.680370 0.500020 0.617050 -0.510696
O8    O     O_R   0.680330 0.499980 0.382900 -0.500636
O9    O     O_3   0.123623 0.605605 0.012298 -0.580612

loop_
_geom_bond_atom_site_label_1
_geom_bond_atom_site_label_2
_ccdc_geom_bond_type
C14   O9    S    
C19   C20   A    
C4    O3    A    
C1    O1    A    
Cu2   O4    S    
C16   C21   A    
C32   C34   S    
C29   C30   A    
C3    N1    D    
C16   C32   S    
C9    C10   A    
C1    C2    S    
C6    O5    A    
Cu1   Cu2   S    
C6    C33   S    
Cu1   O3    S    
C8    C12   A    
C11   H26   S    
C32   C33   D    
C2    C34   D    
C24   H15   S    
C17   C18   A    
H23   N2    S    
C27   H18   S    
C15   H7    S    
Cu1   O7    S    
C22   C28   A    
C20   C21   A    
C12   C13   A    
C11   C13   A    
C12   C23   A    
Cu1   O5    S    
C26   C27   A    
C20   H13   S    
C9    O9    S    
C5    H22   S    
C14   H5    S    
C23   C29   A    
C21   H14   S    
C25   C26   A    
C28   H19   S    
C17   H9    S    
C15   H8    S    
H21   N1    S    
C22   C24   A    
C7    O7    A    
C30   C31   A    
C19   H11   S    
C25   H16   S    
C10   H25   S    
C7    C31   S    
C10   C11   A    
Cu1   O1    S    
C14   H4    S    
C34   H3    S    
C15   H6    S    
C26   H17   S    
C18   H10   S    
C7    O8    A    
C24   C25   A    
C30   H2    S    
C4    O4    A    
C18   C19   A    
C3    H20   S    
C29   H1    S    
C27   C28   A    
C6    O6    A    
C22   C33   S    
C14   C15   S    
C16   C17   A    
Cu1   N1    S    
Cu2   O2    S    
C2    H12   S    
C4    C23   S    
Cu2   N2    S    
C13   C31   A    
C8    H24   S    
Cu2   O8    S    
C5    N2    D    
Cu2   O6    S    
C8    C9    A    
C3    C5    S    
C1    O2    A    
