data_mof_unit_4945.cif
_audit_creation_date              2012-12-11T15:09:14-0500
_audit_creation_method            fapswitch 2.2
_symmetry_space_group_name_H-M    P1
_symmetry_Int_Tables_number       1
_space_group_crystal_system       triclinic
_cell_length_a                    25.454962
_cell_length_b                    28.474514
_cell_length_c                    8.410882
_cell_angle_alpha                 89.541858
_cell_angle_beta                  96.307932
_cell_angle_gamma                 90.19916
_cell_volume                      6059.23267027

loop_
_atom_site_label
_atom_site_type_symbol
_atom_type_description
_atom_site_fract_x
_atom_site_fract_y
_atom_site_fract_z
_atom_type_partial_charge
Ba1   Ba    Ba6+2 0.999910 0.465960 0.844870 1.614166
Ba2   Ba    Ba6+2 0.999910 0.534040 0.344870 1.618133
Ba3   Ba    Ba6+2 0.499910 0.965960 0.844870 1.614905
Ba4   Ba    Ba6+2 0.499910 0.034040 0.344870 1.618441
C1    C     C_3   0.030081 0.240410 0.638606 -0.088790
C2    C     C_R   0.841465 0.641389 0.596580 0.085275
C3    C     C_3   0.518605 0.205797 0.086860 0.404331
C4    C     C_R   0.909778 0.386384 0.302175 -0.317105
C5    C     C_R   0.913861 0.616124 0.793620 -0.303438
C6    C     C_R   0.409558 0.886538 0.302376 -0.317575
C7    C     C_R   0.413779 0.116063 0.793440 -0.304099
C8    C     C_R   0.339490 0.859805 0.101665 0.079470
C9    C     C_R   0.341421 0.141359 0.596357 0.085035
C10   C     C_R   0.829800 0.320516 0.202698 -0.011201
C11   C     C_R   0.833224 0.681484 0.692946 -0.006802
C12   C     C_R   0.329683 0.820599 0.202568 -0.011193
C13   C     C_R   0.333195 0.181468 0.692660 -0.007292
C14   C     C_R   0.859574 0.316574 0.353485 -0.173497
C15   C     C_R   0.865247 0.686896 0.839258 -0.174934
C16   C     C_R   0.359305 0.816763 0.353650 -0.173198
C17   C     C_3   0.052676 0.749696 0.140106 -0.084364
C18   C     C_R   0.365172 0.186837 0.839052 -0.172355
C19   C     C_R   0.898176 0.349789 0.403924 0.008109
C20   C     C_R   0.903575 0.653441 0.892373 -0.002657
C21   C     C_R   0.397838 0.850034 0.404236 0.007643
C22   C     C_R   0.403391 0.153300 0.892268 -0.002107
C23   C     C_R   0.798077 0.235950 0.181589 -0.093405
C24   C     C_R   0.799258 0.765532 0.667682 -0.088433
C25   C     C_R   0.298194 0.735977 0.181722 -0.093485
C26   C     C_R   0.299293 0.265533 0.667510 -0.089606
C27   C     C_R   0.259796 0.701669 0.134138 -0.070714
C28   C     C_3   0.529372 0.740476 0.624475 -0.093369
C29   C     C_R   0.259061 0.298876 0.627017 -0.069547
C30   C     C_R   0.759521 0.201758 0.134233 -0.070676
C31   C     C_R   0.759006 0.798853 0.627120 -0.069429
C32   C     C_R   0.209742 0.714571 0.058574 0.061118
C33   C     C_R   0.207707 0.284748 0.565847 0.059909
C34   C     C_R   0.709367 0.214829 0.059781 0.061841
C35   C     C_R   0.707652 0.784697 0.566027 0.059863
C36   C     C_R   0.198834 0.762818 0.037720 -0.094840
C37   C     C_R   0.197394 0.236164 0.553760 -0.088708
C38   C     C_R   0.698537 0.263127 0.039953 -0.093167
C39   C     C_3   0.549814 0.251418 0.120086 -0.087688
C40   C     C_R   0.697361 0.736106 0.554095 -0.088078
C41   C     C_R   0.736415 0.297198 0.091587 -0.055905
C42   C     C_R   0.737251 0.702854 0.597663 -0.058074
C43   C     C_R   0.236505 0.797014 0.089889 -0.056703
C44   C     C_R   0.237256 0.202890 0.597296 -0.058049
C45   C     C_3   0.981263 0.294488 0.109775 0.397509
C46   C     C_3   0.992155 0.709419 0.587359 0.420547
C47   C     C_3   0.482124 0.793433 0.111777 0.388078
C48   C     C_3   0.491824 0.209674 0.572586 0.418946
C49   C     C_R   0.787644 0.284306 0.157100 0.066936
C50   C     C_R   0.881394 0.392224 0.151268 0.064564
C51   C     C_R   0.789462 0.716900 0.650047 0.066056
C52   C     C_R   0.287662 0.784286 0.156603 0.066985
C53   C     C_R   0.289469 0.216908 0.649743 0.065793
C54   C     C_R   0.141257 0.682986 0.844990 -0.139111
C55   C     C_R   0.135960 0.314340 0.357305 -0.137076
C56   C     C_R   0.640539 0.183531 0.846538 -0.141972
C57   C     C_R   0.635841 0.814237 0.357525 -0.138431
C58   C     C_R   0.102601 0.649863 0.789710 0.006053
C59   C     C_R   0.097142 0.347184 0.300385 -0.004853
C60   C     C_R   0.601855 0.150430 0.791158 0.003712
C61   C     C_R   0.883777 0.609028 0.645889 0.077821
C62   C     C_R   0.597032 0.847088 0.300553 -0.006394
C63   C     C_R   0.117896 0.606969 0.039005 0.069279
C64   C     C_R   0.114235 0.391385 0.545152 0.088482
C65   C     C_R   0.617624 0.107140 0.039560 0.070953
C66   C     C_R   0.614232 0.891376 0.545141 0.087838
C67   C     C_R   0.157769 0.639306 0.094699 -0.134147
C68   C     C_R   0.154774 0.359474 0.600420 -0.108774
C69   C     C_R   0.657456 0.139499 0.095403 -0.131466
C70   C     C_R   0.654745 0.859448 0.600451 -0.109233
C71   C     C_R   0.169193 0.678510 0.999312 -0.023061
C72   C     C_R   0.381332 0.892271 0.151228 0.066785
C73   C     C_R   0.165411 0.319736 0.508665 -0.016305
C74   C     C_R   0.668663 0.178884 0.000556 -0.022616
C75   C     C_R   0.665334 0.819669 0.508816 -0.016004
C76   C     C_R   0.090463 0.612874 0.888160 -0.283908
C77   C     C_R   0.085287 0.384424 0.396972 -0.287676
C78   C     C_R   0.589939 0.113252 0.889168 -0.283609
C79   C     C_R   0.585257 0.884392 0.397009 -0.285122
C80   C     C_3   0.948338 0.250555 0.066700 -0.086578
C81   C     C_3   0.972339 0.760101 0.577396 -0.090273
C82   C     C_3   0.448643 0.750314 0.061212 -0.083253
C83   C     C_R   0.383740 0.109009 0.645694 0.077709
C84   C     C_3   0.470572 0.259826 0.548116 -0.086813
C85   C     C_3   0.152317 0.470497 0.215049 0.319988
C86   C     C_3   0.161886 0.525913 0.687015 0.365491
C87   C     C_3   0.652557 0.970658 0.215712 0.319221
C88   C     C_3   0.661762 0.025945 0.687576 0.365344
C89   C     C_3   0.197693 0.438678 0.168384 0.109681
C90   C     C_3   0.215926 0.549001 0.665757 0.139595
C91   C     C_3   0.698028 0.938865 0.169599 0.109843
C92   C     C_3   0.715781 0.049119 0.666713 0.139568
C93   C     C_3   0.841942 0.527815 0.992456 0.264790
C94   C     C_R   0.839518 0.359774 0.101889 0.079178
C95   C     C_3   0.837910 0.474383 0.490749 0.265618
C96   C     C_3   0.341748 0.027688 0.991826 0.264760
C97   C     C_3   0.337920 0.974384 0.490533 0.265797
C98   C     C_3   0.787487 0.549843 0.004289 -0.140210
C99   C     C_3   0.781486 0.454769 0.488393 -0.137342
C100  C     C_3   0.286911 0.049452 0.999519 -0.139691
C101  C     C_3   0.281537 0.954716 0.488890 -0.137067
C102  C     C_3   0.009460 0.290852 0.621564 0.422721
C103  C     C_3   0.020688 0.704968 0.099023 0.407426
C104  C     C_3   0.509782 0.791367 0.619606 0.428064
H1    H     H_    0.036467 0.313955 0.699348 0.050310
H2    H     H_    0.852079 0.470227 0.371566 -0.011101
H3    H     H_    0.256722 0.536617 0.888286 0.160383
H4    H     H_    0.778345 0.932693 0.227021 0.198909
H5    H     H_    0.752063 0.977665 0.320131 0.221402
H6    H     H_    0.759552 0.991402 0.759448 0.229577
H7    H     H_    0.756371 0.036577 0.889419 0.160317
H8    H     H_    0.193199 0.425348 0.925788 0.202792
H9    H     H_    0.201313 0.482701 0.972527 0.208711
H10   H     H_    0.202807 0.568901 0.430715 0.183560
H11   H     H_    0.265869 0.556159 0.491604 0.184264
H12   H     H_    0.692778 0.924725 0.927449 0.203121
H13   H     H_    0.354915 0.033796 0.871830 -0.007277
H14   H     H_    0.701038 0.982226 0.971916 0.208938
H15   H     H_    0.702673 0.069005 0.431624 0.184221
H16   H     H_    0.765786 0.056523 0.492836 0.184191
H17   H     H_    0.807438 0.615237 0.089142 0.197764
H18   H     H_    0.808491 0.609171 0.890777 0.171385
H19   H     H_    0.798144 0.387854 0.566408 0.191920
H20   H     H_    0.798956 0.396354 0.368226 0.174858
H21   H     H_    0.306277 0.114293 0.091259 0.196661
H22   H     H_    0.309061 0.109598 0.892937 0.170962
H23   H     H_    0.299238 0.887683 0.564348 0.190934
H24   H     H_    0.351899 0.970303 0.371055 -0.010835
H25   H     H_    0.298049 0.896664 0.365209 0.175008
H26   H     H_    0.809636 0.338709 0.880879 0.193816
H27   H     H_    0.811968 0.397519 0.896598 0.215110
H28   H     H_    0.806283 0.662365 0.380840 0.187889
H29   H     H_    0.813910 0.604178 0.392048 0.210652
H30   H     H_    0.309755 0.838657 0.880585 0.194079
H31   H     H_    0.312080 0.897478 0.896036 0.215312
H32   H     H_    0.306220 0.162269 0.380568 0.187579
H33   H     H_    0.313804 0.104068 0.392087 0.210638
H34   H     H_    0.966651 0.207187 0.721436 0.199683
H35   H     H_    0.871509 0.542878 0.084779 0.069933
H36   H     H_    0.003997 0.172698 0.621084 0.173440
H37   H     H_    0.994710 0.788579 0.227155 0.208231
H38   H     H_    0.044229 0.819950 0.167707 0.168720
H39   H     H_    0.466578 0.706814 0.709581 0.199130
H40   H     H_    0.501684 0.673382 0.598676 0.174604
H41   H     H_    0.490437 0.290745 0.199071 0.205801
H42   H     H_    0.539879 0.321936 0.137494 0.169997
H43   H     H_    0.955530 0.180004 0.044181 0.168702
H44   H     H_    0.006230 0.210119 0.986368 0.207635
H45   H     H_    0.000027 0.827194 0.601642 0.174540
H46   H     H_    0.864721 0.456229 0.584170 0.066048
H47   H     H_    0.034964 0.793511 0.491041 0.200219
H48   H     H_    0.455091 0.680115 0.027445 0.168059
H49   H     H_    0.506056 0.710905 0.973729 0.208908
H50   H     H_    0.496092 0.327999 0.557607 0.172374
H51   H     H_    0.533565 0.292534 0.460267 0.200940
H52   H     H_    0.370612 0.042956 0.085712 0.069508
H53   H     H_    0.364887 0.956215 0.583559 0.064774
H54   H     H_    0.758389 0.534714 0.910111 0.129331
H55   H     H_    0.755518 0.472320 0.390623 0.123555
H56   H     H_    0.258823 0.034882 0.901371 0.127792
H57   H     H_    0.043811 0.675370 0.158404 0.035045
H58   H     H_    0.255351 0.972408 0.391851 0.123184
H59   H     H_    0.774037 0.540594 0.122212 0.114648
H60   H     H_    0.765676 0.463308 0.603028 0.122202
H61   H     H_    0.272031 0.039373 0.114869 0.115849
H62   H     H_    0.265977 0.963024 0.604127 0.122027
H63   H     H_    0.010505 0.302372 0.496012 -0.087136
H64   H     H_    0.017324 0.700035 0.967907 -0.069586
H65   H     H_    0.511795 0.805653 0.497384 -0.096867
H66   H     H_    0.512429 0.200549 0.955700 -0.067552
H67   H     H_    0.057165 0.234348 0.545611 0.062778
H68   H     H_    0.536890 0.812662 0.703770 0.054425
H69   H     H_    0.081389 0.754050 0.050881 0.060577
H70   H     H_    0.554834 0.735569 0.526452 0.065854
H71   H     H_    0.578220 0.254775 0.029169 0.062089
H72   H     H_    0.053163 0.235734 0.757477 0.073964
H73   H     H_    0.075480 0.745849 0.260004 0.097352
H74   H     H_    0.553925 0.733646 0.739710 0.067386
H75   H     H_    0.572819 0.249449 0.240736 0.093120
H76   H     H_    0.918122 0.247147 0.151894 0.057495
H77   H     H_    0.946374 0.765628 0.673768 0.064070
H78   H     H_    0.418334 0.745781 0.145890 0.056619
H79   H     H_    0.543610 0.176783 0.142817 0.028039
H80   H     H_    0.443169 0.266899 0.640124 0.061284
H81   H     H_    0.179561 0.634125 0.211526 0.081931
H82   H     H_    0.178264 0.365649 0.713541 0.076944
H83   H     H_    0.679420 0.134167 0.211895 0.081734
H84   H     H_    0.678259 0.865640 0.713516 0.077153
H85   H     H_    0.269850 0.664929 0.152316 0.062565
H86   H     H_    0.268612 0.335886 0.638847 0.073385
H87   H     H_    0.769518 0.164978 0.151741 0.062377
H88   H     H_    0.768541 0.835868 0.638842 0.073349
H89   H     H_    0.836448 0.224466 0.235734 0.069289
H90   H     H_    0.183726 0.401725 0.170355 0.066603
H91   H     H_    0.838536 0.777850 0.710546 0.064157
H92   H     H_    0.336536 0.724627 0.236537 0.069584
H93   H     H_    0.338574 0.277826 0.710448 0.065199
H94   H     H_    0.160981 0.774300 0.980515 0.069861
H95   H     H_    0.158108 0.223992 0.510967 0.064120
H96   H     H_    0.660611 0.274772 0.983964 0.067865
H97   H     H_    0.658070 0.723914 0.511422 0.063562
H98   H     H_    0.725419 0.333821 0.079459 0.105598
H99   H     H_    0.726936 0.665998 0.590851 0.104508
H100  H     H_    0.225410 0.833596 0.077175 0.105545
H101  H     H_    0.213963 0.586926 0.696720 0.026769
H102  H     H_    0.226915 0.166041 0.590415 0.104689
H103  H     H_    0.150262 0.711616 0.766917 0.087124
H104  H     H_    0.144591 0.285494 0.281372 0.083581
H105  H     H_    0.649537 0.212198 0.768604 0.088128
H106  H     H_    0.644453 0.785374 0.281642 0.083621
H107  H     H_    0.851011 0.288727 0.435506 0.093719
H108  H     H_    0.857922 0.715394 0.918046 0.090890
H109  H     H_    0.350728 0.788925 0.435675 0.093712
H110  H     H_    0.357836 0.215319 0.917898 0.090387
H111  H     H_    0.061308 0.587097 0.843457 0.066567
H112  H     H_    0.684370 0.901854 0.173660 0.066381
H113  H     H_    0.055812 0.409882 0.351715 0.062036
H114  H     H_    0.560896 0.087409 0.844219 0.066606
H115  H     H_    0.555821 0.909876 0.351680 0.061625
H116  H     H_    0.938911 0.412322 0.345700 0.075121
H117  H     H_    0.943109 0.590260 0.838035 0.071906
H118  H     H_    0.438694 0.912473 0.345918 0.074760
H119  H     H_    0.443007 0.090188 0.837911 0.071762
H120  H     H_    0.957287 0.324702 0.059000 0.020916
H121  H     H_    0.963123 0.686974 0.513733 0.039228
H122  H     H_    0.457896 0.824610 0.069191 0.014077
H123  H     H_    0.713741 0.087027 0.697831 0.028098
H124  H     H_    0.464369 0.185451 0.500018 0.045338
H125  H     H_    0.987355 0.297488 0.241557 -0.056429
H126  H     H_    0.993774 0.697468 0.713452 -0.085837
H127  H     H_    0.489386 0.793762 0.244485 -0.046327
H128  H     H_    0.491802 0.200062 0.700660 -0.084996
H129  H     H_    0.927277 0.254617 0.944616 0.097690
H130  H     H_    0.948273 0.766027 0.460773 0.068069
H131  H     H_    0.427629 0.756241 0.939726 0.102335
H132  H     H_    0.447463 0.262850 0.427971 0.075301
H133  H     H_    0.149439 0.466799 0.345406 0.002746
H134  H     H_    0.854231 0.534011 0.871437 -0.006942
H135  H     H_    0.151092 0.532921 0.808523 -0.104724
H136  H     H_    0.649735 0.967169 0.346160 0.003333
H137  H     H_    0.650895 0.032855 0.809088 -0.104899
H138  H     H_    0.114897 0.457882 0.149104 0.021840
H139  H     H_    0.131135 0.541216 0.598522 0.045334
H140  H     H_    0.615158 0.957877 0.150062 0.021138
H141  H     H_    0.631024 0.041275 0.599086 0.046635
H142  H     H_    0.277856 0.431783 0.227327 0.198815
H143  H     H_    0.251734 0.476597 0.321768 0.221459
H144  H     H_    0.259605 0.491263 0.758850 0.229383
N1    N     N_3   0.244935 0.442006 0.284135 -0.493643
N2    N     N_3   0.778856 0.404233 0.465105 -0.511877
N3    N     N_3   0.287206 0.100385 0.985439 -0.511129
N4    N     N_3   0.278918 0.904220 0.464660 -0.511889
N5    N     N_3   0.804657 0.366702 0.957093 -0.506221
N6    N     N_3   0.804800 0.633360 0.456790 -0.503638
N7    N     N_3   0.304739 0.866685 0.956616 -0.506397
N8    N     N_3   0.304732 0.133297 0.456659 -0.503716
N9    N     N_3   0.987007 0.206089 0.619793 -0.461557
N10   N     N_3   0.019354 0.791468 0.135998 -0.466372
N11   N     N_3   0.485518 0.706928 0.605058 -0.461574
N12   N     N_3   0.259795 0.527802 0.769446 -0.485934
N13   N     N_3   0.515583 0.292787 0.108706 -0.469329
N14   N     N_3   0.980787 0.208205 0.075640 -0.467815
N15   N     N_3   0.016172 0.793648 0.595798 -0.462142
N16   N     N_3   0.480685 0.707799 0.063063 -0.468478
N17   N     N_3   0.513411 0.294620 0.562515 -0.459580
N18   N     N_3   0.745493 0.942899 0.284183 -0.492764
N19   N     N_3   0.759623 0.027929 0.770528 -0.485916
N20   N     N_3   0.212310 0.448762 0.007676 -0.497593
N21   N     N_3   0.226978 0.545198 0.499663 -0.466916
N22   N     N_3   0.712144 0.948381 0.007974 -0.497621
N23   N     N_3   0.726940 0.045398 0.500691 -0.467104
N24   N     N_3   0.787621 0.600656 0.985914 -0.512012
O1    O     O_2   0.898940 0.431940 0.867860 -0.457231
O2    O     O_3   0.041953 0.706327 0.530496 -0.593062
O3    O     O_3   0.530618 0.792660 0.044601 -0.593217
O4    O     O_3   0.543005 0.206323 0.524963 -0.590292
O5    O     O_3   0.058810 0.523750 0.066650 -0.492283
O6    O     O_3   0.058810 0.476250 0.566650 -0.494887
O7    O     O_3   0.558810 0.023750 0.066650 -0.492369
O8    O     O_3   0.558810 0.976250 0.566650 -0.495045
O9    O     O_3   0.941140 0.476130 0.123050 -0.495055
O10   O     O_3   0.941140 0.523870 0.623050 -0.489636
O11   O     O_3   0.441140 0.976130 0.123050 -0.495034
O12   O     O_2   0.898940 0.568060 0.367860 -0.471219
O13   O     O_3   0.441140 0.023870 0.623050 -0.489550
O14   O     O_3   0.982430 0.389880 0.635700 -0.487164
O15   O     O_3   0.982430 0.610120 0.135700 -0.484629
O16   O     O_3   0.482430 0.889880 0.635700 -0.486349
O17   O     O_3   0.482430 0.110120 0.135700 -0.482293
O18   O     O_2   0.892035 0.357084 0.730393 -0.495137
O19   O     O_2   0.896752 0.649290 0.224499 -0.496136
O20   O     O_2   0.392293 0.856747 0.731874 -0.495417
O21   O     O_2   0.396421 0.149093 0.224700 -0.498739
O22   O     O_3   0.834990 0.479806 0.016497 -0.652139
O23   O     O_2   0.398940 0.931940 0.867860 -0.457471
O24   O     O_3   0.833831 0.521863 0.525729 -0.652131
O25   O     O_3   0.334927 0.979703 0.016469 -0.652537
O26   O     O_3   0.333843 0.021846 0.525783 -0.651988
O27   O     O_3   0.958094 0.293490 0.666800 -0.593565
O28   O     O_3   0.970082 0.707396 0.151921 -0.591832
O29   O     O_3   0.458209 0.793501 0.664145 -0.593392
O30   O     O_3   0.469695 0.207128 0.150814 -0.595575
O31   O     O_2   0.100770 0.431440 0.821660 -0.469353
O32   O     O_2   0.100770 0.568560 0.321660 -0.460136
O33   O     O_2   0.600770 0.931440 0.821660 -0.468826
O34   O     O_2   0.398940 0.068060 0.367860 -0.471361
O35   O     O_2   0.600770 0.068560 0.321660 -0.458891
O36   O     O_3   0.017130 0.389790 0.053700 -0.482238
O37   O     O_3   0.017130 0.610210 0.553700 -0.486835
O38   O     O_3   0.517130 0.889790 0.053700 -0.480486
O39   O     O_3   0.517130 0.110210 0.553700 -0.489093
O40   O     O_2   0.103944 0.350188 0.969860 -0.493249
O41   O     O_2   0.108739 0.643365 0.463851 -0.492439
O42   O     O_2   0.604210 0.850583 0.970656 -0.492711
O43   O     O_2   0.609719 0.142254 0.468223 -0.488759
O44   O     O_3   0.166414 0.477493 0.665097 -0.647916
O45   O     O_3   0.163134 0.517821 0.180915 -0.646740
O46   O     O_3   0.666374 0.977549 0.665233 -0.647823
O47   O     O_3   0.663228 0.017938 0.180515 -0.647455
O48   O     O_3   0.030335 0.292643 0.046739 -0.594696
P1    P     P_3+3 0.893960 0.447890 0.040050 0.985530
P2    P     P_3+3 0.068581 0.651523 0.585457 0.949020
P3    P     P_3+3 0.563765 0.845286 0.094216 0.940849
P4    P     P_3+3 0.568600 0.151572 0.585902 0.949503
P5    P     P_3+3 0.936642 0.655082 0.099455 0.944612
P6    P     P_3+3 0.931810 0.348181 0.608370 0.951397
P7    P     P_3+3 0.436255 0.154792 0.099439 0.942796
P8    P     P_3+3 0.431697 0.848292 0.608373 0.953470
P9    P     P_3+3 0.893960 0.552110 0.540050 0.986622
P10   P     P_3+3 0.393960 0.947890 0.040050 0.985875
P11   P     P_3+3 0.393960 0.052110 0.540050 0.986223
P12   P     P_3+3 0.105800 0.447360 0.649510 0.978981
P13   P     P_3+3 0.105800 0.552640 0.149510 0.980832
P14   P     P_3+3 0.605800 0.947360 0.649510 0.978856
P15   P     P_3+3 0.605800 0.052640 0.149510 0.981465
P16   P     P_3+3 0.063732 0.345275 0.094278 0.940531

loop_
_geom_bond_atom_site_label_1
_geom_bond_atom_site_label_2
_ccdc_geom_bond_type
O41   P2    D    
C95   C99   S    
H19   N2    S    
Ba3   O33   S    
C81   N15   S    
C90   N12   S    
C82   N16   S    
H6    N19   S    
O23   P10   D    
Ba4   P15   S    
C64   C77   A    
C9    N8    S    
H14   N22   S    
O38   P3    S    
C19   P6    S    
C96   C100  S    
C4    C19   A    
C46   H121  S    
C47   H127  S    
C8    C12   A    
C3    O30   S    
C42   C51   A    
C66   C70   A    
H41   N13   S    
O39   P4    S    
C79   H115  S    
H142  N1    S    
C17   H69   S    
Ba2   P9    S    
C47   H122  S    
C1    N9    S    
C28   H70   S    
H36   N9    S    
Ba1   O10   S    
C40   C42   A    
Ba2   O5    S    
C24   H91   S    
Ba3   O38   S    
Ba1   P12   S    
O13   P11   S    
C34   C74   S    
H44   N14   S    
C95   H2    S    
C38   C41   A    
C64   P12   S    
Ba1   O1    S    
C45   O48   S    
C80   H76   S    
C12   C16   A    
C104  H65   S    
O29   P8    S    
C47   O3    S    
C45   H120  S    
H42   N13   S    
Ba3   O23   S    
C31   H88   S    
O14   P6    S    
C36   H94   S    
C29   H86   S    
C70   C75   A    
H39   N11   S    
C48   H128  S    
H18   N24   S    
C87   H140  S    
H32   N8    S    
C93   O22   S    
C100  H56   S    
C23   C49   A    
H12   N22   S    
C78   H114  S    
C55   C59   A    
C7    C22   A    
C56   C60   A    
O7    P15   S    
O30   P7    S    
Ba1   O5    S    
C39   H75   S    
C40   H97   S    
H33   N8    S    
C5    C61   A    
C97   H24   S    
C84   N17   S    
C99   N2    S    
C27   C32   A    
H51   N17   S    
C103  H57   S    
C41   H98   S    
C65   P15   S    
C16   H109  S    
C38   H96   S    
C62   P3    S    
C102  O27   S    
Ba4   O7    S    
C90   N21   S    
C44   C53   A    
C54   H103  S    
C56   C74   A    
H50   N17   S    
C45   C80   S    
C3    H79   S    
Ba4   O35   S    
O26   P11   S    
H7    N19   S    
H11   N21   S    
C95   H46   S    
C104  H68   S    
C88   C92   S    
C101  H58   S    
C81   H130  S    
C65   C78   A    
O16   P8    S    
C93   H134  S    
C24   C31   A    
C7    C83   A    
O42   P3    D    
H20   N2    S    
H34   N9    S    
C3    C39   S    
O17   P7    S    
C41   C49   A    
C50   P1    S    
Ba3   O16   S    
C68   H82   S    
H15   N23   S    
C10   C94   A    
O9    P1    S    
C81   H77   S    
Ba4   O11   S    
C48   C84   S    
Ba4   O17   S    
C27   H85   S    
O22   P1    S    
O20   P8    D    
C11   C51   S    
C12   C52   S    
C32   C71   S    
O46   P14   S    
H43   N14   S    
H48   N16   S    
C9    C83   A    
C80   N14   S    
C17   C103  S    
C97   O26   S    
Ba2   O9    S    
C6    C21   A    
Ba3   O8    S    
Ba1   O36   S    
O35   P15   D    
Ba3   Ba4   S    
C91   N18   S    
O34   P11   D    
H49   N16   S    
O15   P5    S    
O27   P6    S    
C35   C40   A    
C46   O2    S    
C9    C13   A    
O40   P16   D    
C57   C75   A    
Ba4   O8    S    
C85   C89   S    
H3    N12   S    
H144  N12   S    
C87   C91   S    
C17   N10   S    
C10   C49   S    
C87   H136  S    
Ba4   P11   S    
C7    H119  S    
C5    H117  S    
C43   C52   A    
C102  H1    S    
C30   H87   S    
C54   C58   A    
C23   H89   S    
C76   H111  S    
Ba2   O6    S    
C92   N19   S    
C11   C15   A    
Ba1   O31   S    
C39   H71   S    
C100  N3    S    
Ba2   O32   S    
C43   H100  S    
O24   P9    S    
C39   N13   S    
H16   N23   S    
C89   N1    S    
C16   C21   A    
C84   H132  S    
C3    H66   S    
Ba4   O39   S    
C96   H13   S    
C92   H123  S    
C96   O25   S    
C46   H126  S    
O31   P12   D    
C46   C81   S    
Ba4   O34   S    
C62   C79   A    
C2    C61   A    
H21   N3    S    
H31   N7    S    
C65   C69   A    
O25   P10   S    
C8    N7    S    
C87   O47   S    
C93   C98   S    
C4    H116  S    
C103  H64   S    
C21   P8    S    
H22   N3    S    
O5    P13   S    
C1    H67   S    
Ba3   P14   S    
C47   C82   S    
C86   C90   S    
C88   O46   S    
C1    C102  S    
C60   P4    S    
C66   P14   S    
H27   N5    S    
C101  H62   S    
H4    N18   S    
H23   N4    S    
Ba2   P13   S    
H29   N6    S    
C33   C73   S    
O6    P12   S    
O1    P1    D    
C26   C53   A    
O48   P16   S    
C28   N11   S    
C31   C35   A    
C1    H72   S    
C98   H54   S    
C25   H92   S    
C91   H112  S    
Ba2   O37   S    
C67   H81   S    
C66   C79   A    
C91   N22   S    
C94   N5    S    
C72   P10   S    
C104  O29   S    
C82   H78   S    
C8    C72   A    
C35   C75   S    
C58   P2    S    
Ba2   O12   S    
O18   P6    D    
C58   C76   A    
C26   H93   S    
H30   N7    S    
C63   C76   A    
C88   H137  S    
C34   C38   A    
C25   C52   A    
C77   H113  S    
C13   C18   A    
C2    N6    S    
C15   C20   A    
C86   O44   S    
Ba3   P10   S    
C83   P11   S    
H26   N5    S    
Ba1   Ba2   S    
Ba1   O14   S    
H38   N10   S    
C63   C67   A    
O19   P5    D    
C29   C33   A    
C61   P9    S    
C103  O28   S    
C18   C22   A    
O33   P14   D    
C101  N4    S    
H8    N20   S    
O2    P2    S    
C13   C53   S    
H17   N24   S    
C36   C43   A    
O47   P15   S    
C98   H59   S    
C102  H63   S    
C10   C14   A    
C14   H107  S    
C55   C73   A    
C22   P7    S    
C88   H141  S    
C17   H73   S    
C59   C77   A    
C28   H74   S    
H45   N15   S    
C63   P13   S    
Ba1   O6    S    
H143  N1    S    
C85   H138  S    
C15   H108  S    
C93   H35   S    
C45   H125  S    
C95   O24   S    
O12   P9    D    
O10   P9    S    
C6    C72   A    
C57   C62   A    
C69   C74   A    
O37   P2    S    
C37   H95   S    
C64   C68   A    
C59   P16   S    
C48   O4    S    
Ba3   O7    S    
C2    C11   A    
C99   H60   S    
C86   H135  S    
C86   H139  S    
C33   C37   A    
O44   P12   S    
H25   N4    S    
C24   C51   A    
C54   C71   A    
O36   P16   S    
C23   C30   A    
C97   C101  S    
C42   H99   S    
O8    P14   S    
C14   C19   A    
O3    P3    S    
C32   C36   A    
H5    N18   S    
C4    C50   A    
C48   H124  S    
C80   H129  S    
C82   H131  S    
Ba2   O15   S    
C56   H105  S    
C68   C73   A    
O21   P7    D    
C96   H52   S    
O45   P13   S    
C60   C78   A    
C69   H83   S    
C70   H84   S    
C44   H102  S    
H28   N6    S    
C85   H133  S    
C20   P5    S    
C57   H106  S    
Ba3   O13   S    
H9    N20   S    
C55   H104  S    
O4    P4    S    
O11   P10   S    
C26   C29   A    
C30   C34   A    
O28   P5    S    
C5    C20   A    
C99   H55   S    
C85   O45   S    
C97   H53   S    
C89   H90   S    
C25   C27   A    
C67   C71   A    
C89   N20   S    
C37   C44   A    
H40   N11   S    
C18   H110  S    
O32   P13   D    
Ba1   P1    S    
C84   H80   S    
O43   P4    D    
C90   H101  S    
C28   C104  S    
H37   N10   S    
C6    H118  S    
C92   N23   S    
C50   C94   A    
C98   N24   S    
H10   N21   S    
H47   N15   S    
C100  H61   S    
