data_mof_unit_2614.cif
_audit_creation_date              2013-03-05T15:41:35-0500
_audit_creation_method            fapswitch 2.2
_symmetry_space_group_name_H-M    P1
_symmetry_Int_Tables_number       1
_space_group_crystal_system       triclinic
_cell_length_a                    24.818687
_cell_length_b                    17.598238
_cell_length_c                    15.508171
_cell_angle_alpha                 90.299243
_cell_angle_beta                  129.390992
_cell_angle_gamma                 89.889655
_cell_volume                      5234.65186499

loop_
_atom_site_label
_atom_site_type_symbol
_atom_site_description
_atom_site_fract_x
_atom_site_fract_y
_atom_site_fract_z
_atom_type_partial_charge
C1    C     C_R   0.333886 0.392434 0.198523 -0.116880
C2    C     C_R   0.350159 0.639467 0.240816 -0.106602
C3    C     C_R   0.833241 0.893899 0.197751 -0.118571
C4    C     C_R   0.835108 0.110680 0.201091 -0.112743
H1    H     H_    0.281918 0.394610 0.172227 0.078794
H2    H     H_    0.302085 0.651779 0.225155 0.084224
H3    H     H_    0.781444 0.896342 0.172137 0.079494
H4    H     H_    0.782968 0.109421 0.174232 0.076999
N1    N     N_R   0.389430 0.421450 0.294590 -0.047064
N2    N     N_R   0.389430 0.578550 0.294590 -0.046465
N3    N     N_R   0.889430 0.921450 0.294590 -0.047894
N4    N     N_R   0.889430 0.078550 0.294590 -0.044594
C5    C     C_R   0.653711 0.365900 0.766123 -0.110387
C6    C     C_R   0.650686 0.637879 0.758698 -0.112127
C7    C     C_R   0.167050 0.894428 0.801427 -0.117372
C8    C     C_R   0.152892 0.135575 0.763149 -0.112554
H5    H     H_    0.702854 0.354173 0.785243 0.085459
H6    H     H_    0.698050 0.651547 0.772698 0.089519
H7    H     H_    0.219550 0.897436 0.829948 0.078007
H8    H     H_    0.200415 0.148643 0.777304 0.088757
N5    N     N_R   0.612200 0.424040 0.705410 -0.040999
N6    N     N_R   0.612200 0.575960 0.705410 -0.041580
N7    N     N_R   0.112200 0.924040 0.705410 -0.037361
N8    N     N_R   0.112200 0.075960 0.705410 -0.039981
C9    C     C_R   0.606217 0.375555 0.407952 0.593608
C10   C     C_R   0.611958 0.606760 0.405583 0.576868
C11   C     C_R   0.091088 0.858406 0.408155 0.602563
C12   C     C_R   0.112207 0.105440 0.405391 0.595679
N9    N     N_R   0.581780 0.422390 0.443390 -0.097502
N10   N     N_R   0.581780 0.577610 0.443390 -0.092828
N11   N     N_R   0.081780 0.922390 0.443390 -0.103499
N12   N     N_R   0.081780 0.077610 0.443390 -0.092372
C13   C     C_R   0.400809 0.369718 0.592435 -0.147335
C14   C     C_R   0.393532 0.612750 0.596703 -0.155793
C15   C     C_R   0.904852 0.866497 0.593865 -0.149671
C16   C     C_R   0.905149 0.131800 0.595841 -0.150240
H9    H     H_    0.421002 0.362282 0.677211 0.083313
H10   H     H_    0.415770 0.612791 0.683276 0.089410
H11   H     H_    0.930172 0.855267 0.680419 0.090414
H12   H     H_    0.925333 0.135641 0.680852 0.087889
N13   N     N_R   0.419850 0.423100 0.556610 -0.032468
N14   N     N_R   0.419850 0.576900 0.556610 -0.031221
N15   N     N_R   0.919850 0.923100 0.556610 -0.034969
N16   N     N_R   0.919850 0.076900 0.556610 -0.034430
C17   C     C_R   0.683406 0.384143 0.594268 -0.267754
C18   C     C_R   0.687441 0.606241 0.590200 -0.261909
C19   C     C_R   0.164289 0.860058 0.594328 -0.246669
C20   C     C_R   0.187747 0.105152 0.590292 -0.270242
H13   H     H_    0.730326 0.385346 0.680076 0.131204
H14   H     H_    0.735473 0.607341 0.675471 0.124145
H15   H     H_    0.205471 0.848940 0.681367 0.136523
H16   H     H_    0.235473 0.106962 0.675803 0.124301
N17   N     N_R   0.627410 0.423100 0.556610 -0.055722
N18   N     N_R   0.627410 0.576900 0.556610 -0.053102
N19   N     N_R   0.127410 0.923100 0.556610 -0.062713
N20   N     N_R   0.127410 0.076900 0.556610 -0.054317
C21   C     C_R   0.328895 0.367280 0.405299 -0.147083
C22   C     C_R   0.316950 0.612988 0.410554 -0.155887
C23   C     C_R   0.829745 0.866799 0.405932 -0.149662
C24   C     C_R   0.831973 0.136240 0.408922 -0.145385
H17   H     H_    0.286345 0.357061 0.318117 0.093871
H18   H     H_    0.268274 0.614383 0.326031 0.083847
H19   H     H_    0.786340 0.857463 0.318862 0.094813
H20   H     H_    0.787113 0.147272 0.323313 0.087924
N21   N     N_R   0.374220 0.422390 0.443390 -0.035307
N22   N     N_R   0.374220 0.577610 0.443390 -0.032728
N23   N     N_R   0.874220 0.922390 0.443390 -0.037069
N24   N     N_R   0.874220 0.077610 0.443390 -0.036487
C25   C     C_R   0.564302 0.365535 0.769014 -0.148511
C26   C     C_R   0.560712 0.638621 0.760661 -0.149050
C27   C     C_R   0.076978 0.892513 0.801595 -0.156287
C28   C     C_R   0.065093 0.134836 0.769993 -0.144264
H21   H     H_    0.532628 0.352258 0.792049 0.091798
H22   H     H_    0.526000 0.654705 0.777036 0.095563
H23   H     H_    0.048054 0.893164 0.832071 0.092589
H24   H     H_    0.034936 0.147829 0.796002 0.089958
N25   N     N_R   0.555000 0.424040 0.705410 -0.042067
N26   N     N_R   0.555000 0.575960 0.705410 -0.043075
N27   N     N_R   0.055000 0.924040 0.705410 -0.039836
N28   N     N_R   0.055000 0.075960 0.705410 -0.040276
C29   C     C_R   0.421736 0.395196 0.193803 -0.148312
C30   C     C_R   0.440392 0.641488 0.239858 -0.167412
C31   C     C_R   0.920214 0.897928 0.191632 -0.110927
C32   C     C_R   0.924795 0.111908 0.199543 -0.153492
H25   H     H_    0.446662 0.403906 0.157684 0.136775
H26   H     H_    0.474399 0.658802 0.223105 0.171419
H27   H     H_    0.945273 0.905869 0.155426 0.135784
H28   H     H_    0.952959 0.111962 0.167895 0.154846
N29   N     N_R   0.446630 0.421450 0.294590 -0.048195
N30   N     N_R   0.446630 0.578550 0.294590 -0.047563
N31   N     N_R   0.946630 0.921450 0.294590 -0.048468
N32   N     N_R   0.946630 0.078550 0.294590 -0.047468
C33   C     C_R   0.352414 0.375452 0.133457 0.130425
C34   C     C_R   0.381780 0.681164 0.208179 0.134062
C35   C     C_R   0.850829 0.878476 0.131243 0.114388
C36   C     C_R   0.855382 0.131802 0.139537 0.135560
C37   C     C_R   0.623463 0.326423 0.802854 0.141640
C38   C     C_R   0.618820 0.679187 0.791953 0.142821
C39   C     C_R   0.146773 0.873805 0.863162 0.147095
C40   C     C_R   0.123293 0.174968 0.801418 0.141488
C41   C     C_R   0.672959 0.354785 0.502661 -0.164324
C42   C     C_R   0.677770 0.628799 0.495941 -0.156817
C43   C     C_R   0.147811 0.820701 0.503184 -0.174452
C44   C     C_R   0.178964 0.125227 0.496041 -0.158541
C45   C     C_R   0.344970 0.332486 0.498297 0.022645
C46   C     C_R   0.330056 0.639005 0.506312 0.025270
C47   C     C_R   0.847198 0.831187 0.499621 0.023339
C48   C     C_R   0.852160 0.172377 0.504921 0.025311
Ni1   Ni    Ni4+2 0.382890 0.500000 0.370170 0.202989
Ni2   Ni    Ni4+2 0.882890 0.000000 0.370170 0.198882
Ni3   Ni    Ni4+2 0.618740 0.500000 0.629830 0.196746
Ni4   Ni    Ni4+2 0.118740 1.000000 0.629830 0.195020
Ni5   Ni    Ni4+2 0.514090 0.500000 0.370170 0.220143
Ni6   Ni    Ni4+2 0.014090 0.000000 0.370170 0.217690
Ni7   Ni    Ni4+2 0.487550 0.500000 0.629830 0.209804
Ni8   Ni    Ni4+2 0.987550 1.000000 0.629830 0.208130
C49   C     C_3   0.347680 0.205547 0.567574 -0.449526
C50   C     C_3   0.321649 0.718077 0.630453 -0.474480
C51   C     C_3   0.843733 0.700732 0.550901 -0.444357
C52   C     C_3   0.848247 0.260121 0.626698 -0.465505
H29   H     H_    0.391794 0.223456 0.654527 0.134185
H30   H     H_    0.331290 0.670685 0.686054 0.140932
H31   H     H_    0.890703 0.710454 0.639447 0.136398
H32   H     H_    0.861831 0.215675 0.688331 0.135713
H33   H     H_    0.371643 0.180754 0.532960 0.170136
H34   H     H_    0.373583 0.742133 0.666246 0.160007
H35   H     H_    0.863875 0.680501 0.508189 0.172739
H36   H     H_    0.897994 0.285984 0.654715 0.162038
C53   C     C_3   0.795976 0.641749 0.546825 0.029205
C54   C     C_3   0.801067 0.318087 0.625052 0.020818
C55   C     C_3   0.302286 0.147058 0.570381 0.022697
C56   C     C_3   0.275264 0.777986 0.627723 0.021512
H37   H     H_    0.321642 0.147843 0.657826 0.094522
H38   H     H_    0.271723 0.760931 0.693014 0.101764
H39   H     H_    0.820543 0.629108 0.635201 0.094679
H40   H     H_    0.799215 0.300640 0.692069 0.099784
H41   H     H_    0.311966 0.330358 0.634491 0.151541
H42   H     H_    0.235134 0.586846 0.520118 0.157929
H43   H     H_    0.830023 0.818878 0.656202 0.150654
H44   H     H_    0.762954 0.125562 0.529397 0.160317
H45   H     H_    0.762515 0.733892 0.654389 0.155835
H46   H     H_    0.713122 0.207579 0.573530 0.157681
H47   H     H_    0.243784 0.245396 0.632274 0.159783
H48   H     H_    0.184282 0.667682 0.566172 0.159023
C57   C     C_3   0.270456 0.311216 0.546998 -0.414878
C58   C     C_3   0.219502 0.640763 0.472411 -0.426492
C59   C     C_3   0.783119 0.807949 0.568145 -0.417967
C60   C     C_3   0.745581 0.177800 0.477672 -0.418852
C61   C     C_3   0.243095 0.248845 0.376277 -0.489355
C62   C     C_3   0.262648 0.755076 0.432053 -0.450037
C63   C     C_3   0.735746 0.763334 0.377740 -0.490061
C64   C     C_3   0.783898 0.289403 0.424503 -0.457188
C65   C     C_3   0.302579 0.275327 0.497420 0.390073
C66   C     C_3   0.284347 0.686869 0.510552 0.400640
C67   C     C_3   0.803609 0.776360 0.499177 0.389706
C68   C     C_3   0.808668 0.224271 0.508557 0.396861
H49   H     H_    0.706869 0.817833 0.340959 0.165680
H50   H     H_    0.761580 0.268045 0.340157 0.157857
H51   H     H_    0.210152 0.297864 0.323217 0.162309
H52   H     H_    0.242453 0.736904 0.347408 0.152372
H53   H     H_    0.264831 0.222177 0.338912 0.160871
H54   H     H_    0.308515 0.792159 0.466263 0.167956
H55   H     H_    0.747666 0.741512 0.324073 0.152810
H56   H     H_    0.828921 0.326342 0.453548 0.166393
C69   C     C_3   0.724036 0.679395 0.495009 0.348045
C70   C     C_3   0.725237 0.310988 0.508903 0.372815
C71   C     C_3   0.225091 0.176213 0.495555 0.354631
C72   C     C_3   0.199688 0.773315 0.509919 0.363338
C73   C     C_3   0.736738 0.750303 0.566780 -0.443717
C74   C     C_3   0.703251 0.226513 0.496157 -0.446254
C75   C     C_3   0.224433 0.252946 0.545505 -0.451895
C76   C     C_3   0.176184 0.688807 0.491151 -0.438315
C77   C     C_3   0.688746 0.708176 0.375631 -0.321575
C78   C     C_3   0.728148 0.335126 0.415341 -0.386006
C79   C     C_3   0.196430 0.193120 0.374839 -0.325575
C80   C     C_3   0.205768 0.799396 0.420231 -0.379248
H57   H     H_    0.676706 0.661519 0.317909 0.198548
H58   H     H_    0.738628 0.396899 0.420228 0.157425
H59   H     H_    0.190488 0.141565 0.328632 0.183464
H60   H     H_    0.216515 0.861408 0.426839 0.152295
H61   H     H_    0.638904 0.737595 0.340853 0.179113
H62   H     H_    0.678591 0.324024 0.331354 0.215846
H63   H     H_    0.143901 0.219710 0.326649 0.189907
H64   H     H_    0.157460 0.788295 0.334821 0.213751
H65   H     H_    0.238805 0.361959 0.497754 0.164695
H66   H     H_    0.187388 0.625826 0.382339 0.161110
H67   H     H_    0.754849 0.862824 0.532691 0.166075
H68   H     H_    0.711951 0.159743 0.388536 0.161405
H69   H     H_    0.686244 0.777618 0.532807 0.173066
H70   H     H_    0.647252 0.215848 0.428694 0.163447
H71   H     H_    0.170299 0.275435 0.495485 0.171024
H72   H     H_    0.120364 0.679888 0.421302 0.161524
H73   H     H_    0.283028 0.772632 0.171858 0.125420
H74   H     H_    0.213210 0.367595 0.994611 0.124538
H75   H     H_    0.716024 0.134815 0.996651 0.124135
H76   H     H_    0.711597 0.867027 0.994326 0.122671
H77   H     H_    0.715981 0.230650 0.828756 0.124425
H78   H     H_    0.714435 0.774225 0.824595 0.125019
H79   H     H_    0.286390 0.868149 0.006350 0.124835
H80   H     H_    0.213991 0.272765 0.824922 0.124842
C81   C     C_2   0.650466 0.256766 0.868170 -0.220037
C82   C     C_2   0.644020 0.750802 0.854489 -0.222103
C83   C     C_2   0.192460 0.844588 0.977349 -0.223748
C84   C     C_2   0.149495 0.245612 0.865650 -0.221683
C85   C     C_2   0.699059 0.216116 0.876243 -0.115721
C86   C     C_2   0.695024 0.790279 0.868153 -0.114164
C87   C     C_2   0.261617 0.841962 0.036432 -0.114115
C88   C     C_2   0.197001 0.287441 0.872433 -0.114053
H81   H     H_    0.374462 0.769213 0.101311 0.128392
H82   H     H_    0.329058 0.322899 0.984337 0.125220
H83   H     H_    0.833227 0.190117 0.995222 0.128436
H84   H     H_    0.826872 0.828483 0.980270 0.124947
C89   C     C_2   0.355380 0.751969 0.144906 -0.219718
C90   C     C_2   0.305789 0.348319 0.017896 -0.226089
C91   C     C_2   0.809602 0.161583 0.025996 -0.219684
C92   C     C_2   0.803771 0.851748 0.015255 -0.226136
C93   C     C_2   0.302828 0.789397 0.129308 -0.108191
C94   C     C_2   0.237175 0.342988 0.961997 -0.105746
C95   C     C_2   0.740509 0.162561 0.967071 -0.108364
C96   C     C_2   0.735319 0.844442 0.960240 -0.099241
H85   H     H_    0.634189 0.241813 0.916549 0.127775
H86   H     H_    0.625122 0.767353 0.898765 0.128648
H87   H     H_    0.168486 0.817694 0.008593 0.129724
H88   H     H_    0.133167 0.260695 0.914084 0.128024
C97   C     C_3   0.794074 0.563825 0.496915 -0.417141
C98   C     C_3   0.774441 0.563446 0.380136 -0.225103
C99   C     C_3   0.820139 0.509387 0.374114 -0.965566
H89   H     H_    0.875368 0.528417 0.432380 0.263627
H90   H     H_    0.816447 0.451014 0.396036 0.261705
H91   H     H_    0.802589 0.508730 0.288053 0.256998
H92   H     H_    0.719357 0.545048 0.316698 0.187080
H93   H     H_    0.779433 0.619926 0.355490 0.202223
H94   H     H_    0.846876 0.538883 0.558125 0.205649
H95   H     H_    0.757397 0.525592 0.493617 0.158649
C100  C     C_3   0.833039 0.399124 0.653581 -0.435134
C101  C     C_3   0.894072 0.408806 0.778880 -0.248692
C102  C     C_3   0.923890 0.489171 0.805814 -0.957350
H96   H     H_    0.943386 0.501909 0.759812 0.260935
H97   H     H_    0.883328 0.531226 0.782890 0.255224
H98   H     H_    0.967973 0.494313 0.896659 0.251169
H99   H     H_    0.875834 0.397543 0.827139 0.187166
H100  H     H_    0.936255 0.367832 0.806083 0.197599
H101  H     H_    0.851409 0.411102 0.605765 0.203537
H102  H     H_    0.793216 0.442135 0.629809 0.193132
C103  C     C_3   0.314736 0.063704 0.552990 -0.423849
C104  C     C_3   0.294044 0.043903 0.438500 -0.220481
C105  C     C_3   0.335707 0.976642 0.446048 -0.958534
H103  H     H_    0.392084 0.990980 0.500649 0.265677
H104  H     H_    0.328090 0.926433 0.479949 0.255062
H105  H     H_    0.317661 0.962192 0.361588 0.256986
H106  H     H_    0.238167 0.027813 0.379843 0.186943
H107  H     H_    0.302546 0.092387 0.403124 0.200878
H108  H     H_    0.371252 0.051985 0.619316 0.203105
H109  H     H_    0.286662 0.024609 0.568452 0.177995
C106  C     C_3   0.310167 0.858178 0.658084 -0.412639
C107  C     C_3   0.364069 0.870068 0.784854 -0.253784
C108  C     C_3   0.397801 0.948492 0.813468 -0.958420
H110  H     H_    0.424887 0.955129 0.778141 0.262383
H111  H     H_    0.357719 0.993615 0.779839 0.256499
H112  H     H_    0.436637 0.955247 0.905495 0.250809
H113  H     H_    0.338313 0.864727 0.822609 0.183778
H114  H     H_    0.405412 0.826081 0.822017 0.197583
H115  H     H_    0.336256 0.865739 0.621368 0.198897
H116  H     H_    0.271081 0.904218 0.622643 0.193289
O1    O     O_3   0.577153 0.368142 0.297183 -0.667228
C109  C     C_3   0.546729 0.295288 0.256321 -0.355577
H117  H     H_    0.527517 0.270086 0.298291 0.145763
H118  H     H_    0.582820 0.256106 0.259421 0.153945
H119  H     H_    0.501548 0.299555 0.166240 0.171280
O2    O     O_3   0.582750 0.609000 0.294572 -0.690105
C110  C     C_3   0.573241 0.534817 0.253605 -0.269070
H120  H     H_    0.529464 0.506795 0.243004 0.183281
H121  H     H_    0.622177 0.501174 0.307706 0.160968
H122  H     H_    0.559027 0.537900 0.169967 0.167892
O3    O     O_3   0.058849 0.844111 0.297054 -0.663847
C111  C     C_3   0.026092 0.771867 0.263659 -0.330126
H123  H     H_    0.013644 0.749740 0.316548 0.140385
H124  H     H_    0.057046 0.730468 0.257336 0.150190
H125  H     H_    0.976168 0.775642 0.177355 0.170908
O4    O     O_3   0.084897 0.101008 0.295347 -0.675801
C112  C     C_3   0.080624 0.024308 0.265291 -0.292548
H126  H     H_    0.034384 0.997165 0.247625 0.176638
H127  H     H_    0.128716 0.991730 0.329772 0.139482
H128  H     H_    0.073768 0.022034 0.187358 0.170833

loop_
_geom_bond_atom_site_label_1
_geom_bond_atom_site_label_2
_geom_bond_distance
_ccdc_geom_bond_type
C22   H18   1.081017 S    
C110  H122  1.108911 S    
C62   C80   1.517754 S    
C57   C75   1.525625 S    
N3    N31   1.419629 A    
C63   C77   1.503184 S    
C2    C34   1.385931 A    
C58   C76   1.531561 S    
N19   Ni4   1.860123 S    
H78   C86   1.085703 S    
N9    Ni5   1.887665 S    
C107  H114  1.111414 S    
C82   H86   1.087402 S    
C25   N25   1.344223 A    
N26   Ni7   1.861447 S    
C14   N14   1.311885 A    
C3    N3    1.331182 A    
C81   H85   1.087455 S    
C4    H4    1.079100 S    
H44   C60   1.114307 S    
C27   N27   1.343567 A    
H74   C94   1.084261 S    
C104  H107  1.107248 S    
C76   H72   1.100756 S    
C112  H128  1.108945 S    
H73   C93   1.085402 S    
N7    Ni4   1.856283 S    
C18   C42   1.382887 A    
H43   C59   1.112402 S    
C36   C91   1.460886 S    
C62   H52   1.112547 S    
C1    H1    1.078747 S    
C97   H95   1.107607 S    
C63   H49   1.114933 S    
H41   C57   1.112775 S    
C97   C98   1.548284 S    
C20   H16   1.081053 S    
C3    H3    1.078928 S    
N14   Ni7   1.878751 S    
N16   N24   1.357211 A    
C32   C36   1.386627 A    
C15   H11   1.080459 S    
C98   H93   1.101780 S    
C12   C44   1.372411 A    
C39   C83   1.464470 S    
C26   N26   1.344189 A    
H83   C91   1.087434 S    
C69   C77   1.549563 S    
C110  H120  1.106874 S    
C20   C44   1.381844 A    
C54   C100  1.552853 S    
C52   C68   1.557504 S    
C102  H96   1.110647 S    
C29   C33   1.382718 A    
C101  C102  1.525750 S    
N2    Ni1   1.889526 S    
C80   H64   1.101208 S    
C108  H110  1.110898 S    
C50   H30   1.114100 S    
N30   Ni5   1.898724 S    
C101  H100  1.110713 S    
C48   C68   1.440567 S    
C61   C65   1.549025 S    
C49   H29   1.113307 S    
C55   C103  1.555574 S    
C56   C106  1.563258 S    
C23   N23   1.302814 A    
N25   Ni7   1.865605 S    
C10   O2    1.381129 S    
H77   C85   1.085865 S    
N18   Ni3   1.869331 S    
N8    N28   1.419629 A    
C80   H60   1.112570 S    
C64   C68   1.544891 S    
N32   Ni6   1.898724 S    
C60   C68   1.548803 S    
C46   C66   1.446092 S    
N27   Ni8   1.865605 S    
N8    Ni4   1.846991 S    
C8    N8    1.329997 A    
C26   H22   1.078334 S    
C60   C74   1.515577 S    
C100  C101  1.536581 S    
C75   H71   1.114369 S    
C25   H21   1.076196 S    
C106  H115  1.109174 S    
C73   H69   1.114211 S    
C4    N4    1.328269 A    
C59   C67   1.547463 S    
O1    C109  1.415433 S    
C78   H58   1.109229 S    
N11   Ni6   1.887665 S    
N10   Ni5   1.883760 S    
C24   C48   1.384382 A    
C28   H24   1.075493 S    
C61   C79   1.508279 S    
H46   C74   1.114267 S    
C29   N29   1.343919 A    
C29   H25   1.077522 S    
N17   Ni3   1.860123 S    
C7    N7    1.332144 A    
C33   C90   1.462833 S    
C19   N19   1.316843 A    
C17   N17   1.308769 A    
C43   C72   1.479912 S    
H80   C88   1.085965 S    
C53   H39   1.114318 S    
C107  H113  1.111814 S    
C84   H88   1.087521 S    
N3    Ni2   1.880089 S    
C9    N9    1.328744 A    
C35   C92   1.465516 S    
C78   H62   1.101089 S    
C2    H2    1.077619 S    
C26   C38   1.391787 A    
N13   Ni7   1.874866 S    
H75   C95   1.084197 S    
N5    Ni3   1.856283 S    
C22   N22   1.322295 A    
C18   H14   1.081294 S    
C6    C38   1.389762 A    
N29   Ni5   1.894502 S    
C104  H106  1.108397 S    
C105  H104  1.106563 S    
C69   C73   1.561101 S    
C62   H54   1.111710 S    
C64   H50   1.111387 S    
C70   C78   1.559039 S    
C19   C43   1.379150 A    
C21   C45   1.375541 A    
C5    N5    1.330270 A    
C14   C46   1.364349 A    
H84   C92   1.087317 S    
C16   H12   1.074519 S    
C1    N1    1.329943 A    
O4    C112  1.407725 S    
N6    N26   1.419629 A    
N12   Ni6   1.883760 S    
C90   C94   1.336528 D    
N2    N30   1.419629 A    
N1    N29   1.419629 A    
C55   C71   1.568790 S    
C89   C93   1.338440 D    
C8    C40   1.385490 A    
C19   H15   1.075117 S    
C59   H67   1.113769 S    
C45   C65   1.450751 S    
C30   H26   1.073689 S    
C27   C39   1.386546 A    
C1    C33   1.379925 A    
C23   C47   1.378802 A    
C24   N24   1.319058 A    
C57   H65   1.113877 S    
C22   C46   1.378824 A    
N1    Ni1   1.880089 S    
C32   H28   1.079303 S    
C101  H99   1.111802 S    
N28   Ni8   1.861447 S    
C7    H7    1.079220 S    
H76   C96   1.084405 S    
C91   C95   1.336805 D    
N15   Ni8   1.874866 S    
N10   N18   1.357211 A    
C54   C70   1.580519 S    
N23   Ni2   1.878442 S    
C9    O1    1.383319 S    
C99   H89   1.110902 S    
C58   C66   1.545972 S    
C111  H125  1.107603 S    
C12   N12   1.314022 A    
C8    H8    1.078924 S    
C31   C35   1.382644 A    
C107  C108  1.526124 S    
C18   N18   1.331475 A    
H79   C87   1.084164 S    
C17   H13   1.077173 S    
C111  H124  1.106032 S    
C83   H87   1.087299 S    
C98   C99   1.526256 S    
C50   C56   1.540330 S    
N24   Ni2   1.869192 S    
C111  H123  1.115914 S    
C61   H51   1.113797 S    
C53   C97   1.557132 S    
C100  H101  1.110534 S    
C64   H56   1.111304 S    
C109  H118  1.106066 S    
C83   C87   1.338561 D    
N4    N32   1.419629 A    
C56   H38   1.113215 S    
C99   H90   1.105793 S    
O3    C111  1.417110 S    
C12   O4    1.381519 S    
C10   N10   1.315253 A    
C42   C69   1.461752 S    
C63   H55   1.111944 S    
C102  H97   1.110484 S    
C11   N11   1.331404 A    
C79   H59   1.103631 S    
C52   C54   1.539493 S    
C16   N16   1.308037 A    
C61   H53   1.113550 S    
C98   H92   1.110413 S    
N5    N25   1.419629 A    
C106  C107  1.535310 S    
C2    N2    1.329785 A    
C110  H121  1.112932 S    
C25   C37   1.388149 A    
C15   N15   1.320987 A    
C84   C88   1.337228 D    
C5    C37   1.385491 A    
C11   O3    1.385137 S    
C28   C40   1.389099 A    
C105  H105  1.110540 S    
C82   C86   1.338402 D    
C57   C65   1.548108 S    
C20   N20   1.330369 A    
H48   C76   1.113396 S    
C104  C105  1.525469 S    
C85   C95   1.449694 S    
C34   C89   1.462321 S    
C51   C67   1.548750 S    
C86   C96   1.457694 S    
H45   C73   1.113023 S    
C14   H10   1.080119 S    
C79   H63   1.114364 S    
C6    H6    1.078608 S    
C58   H66   1.113306 S    
C54   H40   1.113812 S    
C56   C72   1.585043 S    
C37   C81   1.458090 S    
C55   H37   1.114899 S    
C109  H119  1.107772 S    
C31   H27   1.079814 S    
C71   C75   1.558479 S    
C105  H103  1.110787 S    
C52   H36   1.113362 S    
C21   H17   1.077751 S    
C51   H31   1.113745 S    
C112  H127  1.114332 S    
C50   H34   1.113665 S    
C103  H109  1.109920 S    
C74   H70   1.102190 S    
C23   H19   1.078385 S    
C63   C67   1.551488 S    
C30   N30   1.346691 A    
C13   C45   1.380880 A    
C53   C69   1.566043 S    
C13   H9    1.077989 S    
C24   H20   1.079666 S    
C108  H112  1.110284 S    
N7    N27   1.419629 A    
C6    N6    1.332450 A    
C112  H126  1.105417 S    
C49   C65   1.551646 S    
C13   N13   1.324730 A    
C28   N28   1.345785 A    
H82   C90   1.087457 S    
C10   C42   1.368826 A    
C44   C71   1.459684 S    
C27   H23   1.081360 S    
C40   C84   1.459010 S    
C9    C41   1.396442 A    
N21   Ni1   1.878442 S    
C7    C39   1.384720 A    
C103  H108  1.112605 S    
C16   C48   1.371464 A    
H42   C58   1.113468 S    
C38   C82   1.463030 S    
N4    Ni2   1.889526 S    
C31   N31   1.347628 A    
C11   C43   1.402640 A    
C51   C53   1.547662 S    
C70   C74   1.552419 S    
N20   Ni4   1.869331 S    
C4    C36   1.384431 A    
C50   C66   1.556478 S    
C71   C79   1.553724 S    
C77   H61   1.114813 S    
N22   Ni1   1.869192 S    
N13   N21   1.357082 A    
C41   C70   1.457515 S    
C49   C55   1.548491 S    
H81   C89   1.087430 S    
C100  H102  1.106006 S    
C15   C47   1.381777 A    
C109  H117  1.116002 S    
C87   C93   1.454961 S    
H47   C75   1.113739 S    
C5    H5    1.076454 S    
C97   H94   1.111003 S    
C59   C73   1.525785 S    
C60   H68   1.113791 S    
C72   C76   1.555651 S    
C99   H91   1.110476 S    
C106  H116  1.106559 S    
N16   Ni8   1.878751 S    
N15   N23   1.357082 A    
N6    Ni3   1.846991 S    
C62   C66   1.547096 S    
C102  H98   1.110285 S    
C108  H111  1.111291 S    
C64   C78   1.526268 S    
N14   N22   1.357211 A    
C81   C85   1.337093 D    
O2    C110  1.402100 S    
C30   C34   1.391973 A    
C3    C35   1.376966 A    
C32   N32   1.343493 A    
C72   C80   1.562490 S    
N11   N19   1.357082 A    
C77   H57   1.103880 S    
C103  C104  1.540980 S    
C92   C96   1.338173 D    
C49   H33   1.110848 S    
N12   N20   1.357211 A    
N31   Ni6   1.894502 S    
C47   C67   1.447711 S    
C52   H32   1.112132 S    
N9    N17   1.357082 A    
C51   H35   1.110195 S    
C21   N21   1.307575 A    
C88   C94   1.452838 S    
C17   C41   1.370316 A    
