data_mof_unit_852.cif
_audit_creation_date              2013-03-05T15:53:27-0500
_audit_creation_method            fapswitch 2.2
_symmetry_space_group_name_H-M    P1
_symmetry_Int_Tables_number       1
_space_group_crystal_system       triclinic
_cell_length_a                    24.647708
_cell_length_b                    17.278801
_cell_length_c                    15.67843
_cell_angle_alpha                 90.000404
_cell_angle_beta                  129.217763
_cell_angle_gamma                 89.999509
_cell_volume                      5173.13084218

loop_
_atom_site_label
_atom_site_type_symbol
_atom_site_description
_atom_site_fract_x
_atom_site_fract_y
_atom_site_fract_z
_atom_type_partial_charge
C1    C     C_R   0.838423 0.876886 0.211822 0.173081
C2    C     C_R   0.161578 0.876886 0.788178 0.173098
C3    C     C_R   0.338428 0.376874 0.211836 0.172998
C4    C     C_R   0.661584 0.376901 0.788195 0.173152
N1    N     N_R   0.888400 0.921830 0.294620 -0.093795
N2    N     N_R   0.111600 0.921830 0.705380 -0.093811
N3    N     N_R   0.388400 0.421830 0.294620 -0.093773
N4    N     N_R   0.611600 0.421830 0.705380 -0.093830
C5    C     C_R   0.088542 0.857536 0.408276 -0.103588
C6    C     C_R   0.911461 0.857529 0.591719 -0.103363
C7    C     C_R   0.588564 0.357557 0.408271 -0.103981
C8    C     C_R   0.411483 0.357508 0.591713 -0.103109
H1    H     H_    0.060962 0.841567 0.324492 0.151872
H2    H     H_    0.939051 0.841544 0.675499 0.151871
H3    H     H_    0.561007 0.341619 0.324482 0.151948
H4    H     H_    0.439096 0.341494 0.675488 0.151911
N5    N     N_R   0.079940 0.922160 0.443410 -0.055149
N6    N     N_R   0.920060 0.922160 0.556590 -0.055142
N7    N     N_R   0.579940 0.422160 0.443410 -0.055183
N8    N     N_R   0.420060 0.422160 0.556590 -0.055115
C9    C     C_R   0.169568 0.862209 0.591140 0.290492
C10   C     C_R   0.830430 0.862211 0.408858 0.290523
C11   C     C_R   0.669573 0.362215 0.591142 0.290450
C12   C     C_R   0.330436 0.362204 0.408859 0.290572
N9    N     N_R   0.125650 0.922400 0.556620 -0.092574
N10   N     N_R   0.874350 0.922400 0.443380 -0.092593
N11   N     N_R   0.625650 0.422400 0.556620 -0.092549
N12   N     N_R   0.374350 0.422400 0.443380 -0.092605
C13   C     C_R   0.069551 0.873413 0.784477 -0.110875
C14   C     C_R   0.930451 0.873412 0.215525 -0.110830
C15   C     C_R   0.569560 0.373432 0.784501 -0.110910
C16   C     C_R   0.430460 0.373394 0.215547 -0.110697
H5    H     H_    0.040909 0.866243 0.814728 0.178548
H6    H     H_    0.959094 0.866242 0.185274 0.178414
H7    H     H_    0.540921 0.366274 0.814760 0.178800
H8    H     H_    0.459106 0.366213 0.185304 0.178213
N13   N     N_R   0.054230 0.922730 0.705400 -0.064041
N14   N     N_R   0.945770 0.922730 0.294600 -0.064045
N15   N     N_R   0.554230 0.422730 0.705400 -0.064051
N16   N     N_R   0.445770 0.422730 0.294600 -0.064056
C17   C     C_R   0.867166 0.838847 0.171637 0.010652
C18   C     C_R   0.132836 0.838846 0.828363 0.010641
C19   C     C_R   0.367177 0.338825 0.171666 0.010636
C20   C     C_R   0.632848 0.338872 0.828397 0.010661
C21   C     C_R   0.142835 0.817417 0.498317 -0.099272
C22   C     C_R   0.857163 0.817413 0.501678 -0.099355
C23   C     C_R   0.642854 0.317434 0.498316 -0.099050
C24   C     C_R   0.357183 0.317395 0.501678 -0.099519
C25   C     C_R   0.811859 0.100797 0.408712 -0.095538
C26   C     C_R   0.188137 0.100807 0.591278 -0.095474
C27   C     C_R   0.311862 0.600810 0.408712 -0.095517
C28   C     C_R   0.688140 0.600790 0.591276 -0.095506
H9    H     H_    0.763557 0.091507 0.327331 0.223615
H10   H     H_    0.236442 0.091515 0.672655 0.223590
H11   H     H_    0.263559 0.591521 0.327332 0.223598
H12   H     H_    0.736444 0.591496 0.672654 0.223605
N17   N     N_R   0.873790 0.077030 0.443380 -0.079956
N18   N     N_R   0.126210 0.077030 0.556620 -0.079949
N19   N     N_R   0.373790 0.577030 0.443380 -0.079957
N20   N     N_R   0.626210 0.577030 0.556620 -0.079943
C29   C     C_R   0.928322 0.118651 0.208531 -0.114052
C30   C     C_R   0.071681 0.118644 0.791477 -0.113981
C31   C     C_R   0.428319 0.618632 0.208516 -0.114175
C32   C     C_R   0.571679 0.618658 0.791467 -0.113873
H13   H     H_    0.957828 0.120648 0.179317 0.207988
H14   H     H_    0.042176 0.120643 0.820690 0.208000
H15   H     H_    0.457829 0.620615 0.179309 0.207954
H16   H     H_    0.542178 0.620667 0.820685 0.208031
N21   N     N_R   0.945200 0.076700 0.294600 -0.075913
N22   N     N_R   0.054800 0.076700 0.705400 -0.075918
N23   N     N_R   0.445200 0.576700 0.294600 -0.075914
N24   N     N_R   0.554800 0.576700 0.705400 -0.075918
C33   C     C_R   0.160984 0.121644 0.789713 0.360689
C34   C     C_R   0.839019 0.121653 0.210297 0.360706
C35   C     C_R   0.660980 0.621656 0.789698 0.360689
C36   C     C_R   0.339014 0.621637 0.210278 0.360711
N25   N     N_R   0.111030 0.077600 0.705380 -0.106881
N26   N     N_R   0.888970 0.077600 0.294620 -0.106869
N27   N     N_R   0.611030 0.577600 0.705380 -0.106886
N28   N     N_R   0.388970 0.577600 0.294620 -0.106861
C37   C     C_R   0.884775 0.104095 0.590391 0.347705
C38   C     C_R   0.115216 0.104099 0.409597 0.347734
C39   C     C_R   0.384780 0.604114 0.590390 0.347663
C40   C     C_R   0.615221 0.604075 0.409594 0.347811
N29   N     N_R   0.919490 0.077280 0.556590 -0.096668
N30   N     N_R   0.080510 0.077280 0.443410 -0.096664
N31   N     N_R   0.419490 0.577280 0.556590 -0.096675
N32   N     N_R   0.580510 0.577280 0.443410 -0.096654
Ni1   Ni    Ni4+2 0.882160 0.999430 0.370180 0.289642
Ni2   Ni    Ni4+2 0.117840 0.999430 0.629820 0.289647
Ni3   Ni    Ni4+2 0.382160 0.499430 0.370180 0.289653
Ni4   Ni    Ni4+2 0.617840 0.499430 0.629820 0.289642
Ni5   Ni    Ni4+2 0.012460 0.999430 0.370180 0.287781
Ni6   Ni    Ni4+2 0.987540 0.999430 0.629820 0.287913
Ni7   Ni    Ni4+2 0.512460 0.499430 0.370180 0.287524
Ni8   Ni    Ni4+2 0.487540 0.499430 0.629820 0.288120
C41   C     C_R   0.816461 0.119028 0.497852 -0.103219
C42   C     C_R   0.183528 0.119044 0.502129 -0.103281
C43   C     C_R   0.316468 0.619053 0.497854 -0.103231
C44   C     C_R   0.683535 0.619012 0.502127 -0.103292
C45   C     C_R   0.861429 0.147219 0.153506 -0.045306
C46   C     C_R   0.138576 0.147206 0.846509 -0.045297
C47   C     C_R   0.361422 0.647192 0.153478 -0.045221
C48   C     C_R   0.638571 0.647227 0.846487 -0.045364
C49   C     C_R   0.834169 0.741052 0.606797 -0.003008
C50   C     C_R   0.165851 0.741096 0.393205 -0.002561
C51   C     C_R   0.334195 0.241040 0.606819 -0.003523
C52   C     C_R   0.665878 0.241111 0.393227 -0.001624
C53   C     C_R   0.827847 0.749688 0.512420 0.066935
C54   C     C_R   0.172158 0.749704 0.487570 0.066945
C55   C     C_R   0.327869 0.249673 0.512436 0.066995
C56   C     C_R   0.672181 0.249720 0.487585 0.066834
C57   C     C_R   0.793469 0.691548 0.431513 -0.089161
C58   C     C_R   0.206522 0.691549 0.568455 -0.089215
C59   C     C_R   0.293478 0.191538 0.431523 -0.089148
C60   C     C_R   0.706530 0.191559 0.568462 -0.089246
H17   H     H_    0.794886 0.691121 0.363878 0.149807
H18   H     H_    0.205096 0.691107 0.636081 0.149771
H19   H     H_    0.294893 0.191104 0.363885 0.149786
H20   H     H_    0.705101 0.191121 0.636085 0.149810
C61   C     C_R   0.249997 0.139316 0.431543 -0.058554
C62   C     C_R   0.749985 0.139308 0.568422 -0.058531
C63   C     C_R   0.750001 0.639308 0.431538 -0.058565
C64   C     C_R   0.249990 0.639316 0.568422 -0.058525
H21   H     H_    0.217948 0.099660 0.363439 0.190521
H22   H     H_    0.782019 0.099638 0.636512 0.190494
H23   H     H_    0.717959 0.599650 0.363435 0.190560
H24   H     H_    0.282030 0.599648 0.636514 0.190455
C65   C     C_R   0.243864 0.145322 0.514506 0.094870
C66   C     C_R   0.756118 0.145305 0.485457 0.094867
C67   C     C_R   0.743873 0.645296 0.514509 0.094836
C68   C     C_R   0.256129 0.645329 0.485465 0.094892
C69   C     C_R   0.294084 0.188008 0.608866 0.087223
C70   C     C_R   0.705911 0.188013 0.391108 0.086215
C71   C     C_R   0.794088 0.687990 0.608867 0.086958
C72   C     C_R   0.205920 0.688031 0.391116 0.086685
C73   C     C_3   0.787538 0.737786 0.680166 -0.509405
C74   C     C_3   0.212481 0.737845 0.319845 -0.509111
C75   C     C_3   0.287541 0.237809 0.680170 -0.509920
C76   C     C_3   0.712469 0.237821 0.319830 -0.508496
C77   C     C_3   0.830732 0.797831 0.676410 0.389833
C78   C     C_3   0.169314 0.797902 0.323644 0.389610
C79   C     C_3   0.330785 0.297812 0.676464 0.390181
C80   C     C_3   0.669365 0.297927 0.323695 0.389149
H25   H     H_    0.732765 0.756109 0.638732 0.217100
H26   H     H_    0.267259 0.756147 0.361277 0.217082
H27   H     H_    0.232773 0.256167 0.638710 0.217109
H28   H     H_    0.767250 0.256083 0.361218 0.217097
H29   H     H_    0.814942 0.711298 0.762634 0.273446
H30   H     H_    0.185055 0.711384 0.237353 0.273326
H31   H     H_    0.314903 0.211301 0.762613 0.273595
H32   H     H_    0.684985 0.211382 0.237307 0.273085
H33   H     H_    0.725637 0.123328 0.988301 0.196067
H34   H     H_    0.274369 0.123303 0.011708 0.196103
H35   H     H_    0.225624 0.623311 0.988280 0.196084
H36   H     H_    0.774359 0.623318 0.011690 0.196082
H37   H     H_    0.213246 0.737422 0.830649 0.162861
H38   H     H_    0.786759 0.737417 0.169346 0.162868
H39   H     H_    0.713245 0.237439 0.830667 0.162884
H40   H     H_    0.286756 0.237406 0.169359 0.162863
C81   C     C_2   0.162698 0.769114 0.895811 -0.068323
C82   C     C_2   0.837300 0.769121 0.104176 -0.068292
C83   C     C_2   0.662714 0.269144 0.895853 -0.068384
C84   C     C_2   0.337313 0.269095 0.104212 -0.068094
C85   C     C_2   0.203755 0.724054 0.887980 -0.160099
C86   C     C_2   0.796244 0.724058 0.112005 -0.160117
C87   C     C_2   0.703762 0.224078 0.888010 -0.160156
C88   C     C_2   0.296249 0.224038 0.112030 -0.160114
H41   H     H_    0.841120 0.227933 0.027780 0.184963
H42   H     H_    0.158891 0.227903 0.972257 0.184960
H43   H     H_    0.341114 0.727887 0.027735 0.184972
H44   H     H_    0.658887 0.727937 0.972224 0.184946
C89   C     C_2   0.817973 0.183611 0.045108 -0.087709
C90   C     C_2   0.182036 0.183586 0.954917 -0.087777
C91   C     C_2   0.317965 0.683575 0.045072 -0.087808
C92   C     C_2   0.682030 0.683614 0.954890 -0.087677
C93   C     C_2   0.749376 0.168294 0.973429 -0.047673
C94   C     C_2   0.250632 0.168264 0.026593 -0.047608
C95   C     C_2   0.249366 0.668267 0.973400 -0.047722
C96   C     C_2   0.750625 0.668285 0.026569 -0.047555
H45   H     H_    0.153027 0.755798 0.952880 0.210212
H46   H     H_    0.846965 0.755814 0.047097 0.210207
H47   H     H_    0.653051 0.255836 0.952933 0.210240
H48   H     H_    0.346986 0.255780 0.047145 0.210211
I1    I     I_    0.730758 0.906530 0.099896 -0.178664
I2    I     I_    0.269242 0.906534 0.900109 -0.178536
I3    I     I_    0.230761 0.406509 0.099901 -0.178714
I4    I     I_    0.769244 0.406565 0.900117 -0.178480
I5    I     I_    0.771629 0.902514 0.593433 -0.252009
I6    I     I_    0.228437 0.902555 0.406695 -0.252052
I7    I     I_    0.271727 0.402535 0.593539 -0.252060
I8    I     I_    0.728521 0.402543 0.406781 -0.252054
N33   N     N_R   0.898862 0.810410 0.785307 0.240142
O1    O     O_R   0.943306 0.753732 0.837808 -0.347494
O2    O     O_R   0.914668 0.877882 0.832417 -0.280043
N34   N     N_R   0.101207 0.810531 0.214737 0.240174
O3    O     O_R   0.056522 0.754013 0.162535 -0.348025
O4    O     O_R   0.085840 0.877748 0.167047 -0.279457
N35   N     N_R   0.398940 0.310334 0.785355 0.240155
O5    O     O_R   0.443075 0.253459 0.838252 -0.346828
O6    O     O_R   0.415344 0.378122 0.831643 -0.280891
N36   N     N_R   0.601291 0.310622 0.214777 0.240298
O7    O     O_R   0.556112 0.254442 0.163268 -0.349177
O8    O     O_R   0.586760 0.377271 0.165904 -0.278401
N37   N     N_R   0.243047 0.869608 0.680066 0.252230
O9    O     O_R   0.282473 0.808956 0.729191 -0.360953
O10   O     O_R   0.272552 0.937036 0.700869 -0.329157
N38   N     N_R   0.756950 0.869615 0.319938 0.252243
O11   O     O_R   0.717521 0.808968 0.270808 -0.360981
O12   O     O_R   0.727449 0.937045 0.299139 -0.329192
N39   N     N_R   0.743050 0.369613 0.680082 0.252210
O13   O     O_R   0.782470 0.308962 0.729225 -0.360991
O14   O     O_R   0.772558 0.437037 0.700876 -0.329177
N40   N     N_R   0.256954 0.369604 0.319950 0.252255
O15   O     O_R   0.217526 0.308955 0.270825 -0.360960
O16   O     O_R   0.227453 0.437034 0.299147 -0.329165
N41   N     N_R   0.226745 0.139148 0.816613 0.195586
O17   O     O_R   0.272881 0.084660 0.852392 -0.385540
O18   O     O_R   0.246927 0.210949 0.833238 -0.429413
N42   N     N_R   0.773256 0.139149 0.183394 0.195567
O19   O     O_R   0.727117 0.084662 0.147592 -0.385662
O20   O     O_R   0.753077 0.210951 0.166806 -0.429198
N43   N     N_R   0.726738 0.639165 0.816590 0.195579
O21   O     O_R   0.772883 0.584685 0.852390 -0.385605
O22   O     O_R   0.746910 0.710970 0.833191 -0.429339
N44   N     N_R   0.273250 0.639135 0.183371 0.195574
O23   O     O_R   0.227116 0.584646 0.147591 -0.385593
O24   O     O_R   0.253067 0.710936 0.166759 -0.429299
N45   N     N_R   0.908373 0.093800 0.699471 0.212673
O25   O     O_R   0.939840 0.030036 0.752550 -0.366826
O26   O     O_R   0.906099 0.151333 0.750639 -0.355479
N46   N     N_R   0.091620 0.093780 0.300521 0.212668
O27   O     O_R   0.060193 0.029989 0.247486 -0.367203
O28   O     O_R   0.093863 0.151309 0.249315 -0.355474
N47   N     N_R   0.408388 0.593860 0.699481 0.212656
O29   O     O_R   0.439897 0.530127 0.752616 -0.366279
O30   O     O_R   0.406088 0.651408 0.750603 -0.355502
N48   N     N_R   0.591636 0.593706 0.300530 0.212681
O31   O     O_R   0.560268 0.529873 0.247570 -0.367983
O32   O     O_R   0.593846 0.651217 0.249266 -0.355450

loop_
_geom_bond_atom_site_label_1
_geom_bond_atom_site_label_2
_geom_bond_distance
_ccdc_geom_bond_type
C39   N31   1.342019 A    
C5    C21   1.369429 A    
C59   C61   1.401141 A    
C13   C18   1.380589 A    
C38   C42   1.384720 A    
C45   C89   1.459149 S    
N43   O21   1.299042 A    
N6    N10   1.375156 A    
N14   Ni5   1.843746 S    
C52   C80   1.509337 S    
C4    N4    1.335492 A    
C32   N24   1.345225 A    
C76   H28   1.111661 S    
N42   O20   1.300249 A    
N20   N32   1.375158 A    
C18   C81   1.458610 S    
C48   C92   1.459152 S    
C2    N2    1.335493 A    
N37   O9    1.299747 A    
C74   H30   1.110476 S    
N10   Ni1   1.845290 S    
C52   C70   1.363058 A    
N15   Ni8   1.843742 S    
H44   C92   1.087105 S    
C75   H27   1.111665 S    
N9    Ni2   1.845274 S    
C26   H10   1.072494 S    
N17   Ni1   1.859276 S    
C43   C68   1.445824 S    
C1    N1    1.335491 A    
C16   H8    1.078002 S    
C73   H25   1.111665 S    
N22   Ni6   1.857675 S    
C74   H26   1.111665 S    
C41   C66   1.445848 S    
C82   H46   1.086294 S    
N24   N27   1.386224 A    
C3    N3    1.335490 A    
C49   C77   1.509235 S    
N40   O16   1.301027 A    
C68   C72   1.396134 A    
N23   Ni7   1.857664 S    
C23   C56   1.439974 S    
C78   I6    2.165512 S    
N48   O32   1.300695 A    
C13   H5    1.078012 S    
C25   N17   1.320971 A    
C14   N14   1.346780 A    
C71   C73   1.498065 S    
N5    Ni5   1.858042 S    
C9    N37   1.430811 S    
C5    H1    1.065176 S    
N23   N28   1.386228 A    
C38   N46   1.427209 S    
C28   N20   1.320987 A    
C3    C19   1.376704 A    
C82   C86   1.342547 D    
C28   H12   1.072493 S    
C7    H3    1.065178 S    
C8    H4    1.065149 S    
H39   C87   1.087170 S    
N38   O11   1.299727 A    
N33   O2    1.301013 A    
C6    C22   1.369434 A    
C10   C22   1.392332 A    
N3    N16   1.414325 A    
C14   C17   1.380584 A    
N4    Ni4   1.858856 S    
C20   C83   1.458597 S    
C11   N11   1.343670 A    
N6    Ni6   1.858051 S    
N7    N11   1.375158 A    
C76   H32   1.110519 S    
N8    N12   1.375156 A    
C53   C57   1.406087 A    
C49   C71   1.363160 A    
N44   O24   1.300251 A    
C58   C64   1.401128 A    
C19   C84   1.458610 S    
C36   C47   1.383847 A    
C16   N16   1.346782 A    
C7    C23   1.369464 A    
N8    Ni8   1.858053 S    
N32   Ni7   1.872367 S    
C35   N43   1.425515 S    
N35   O5    1.302353 A    
C37   N45   1.427199 S    
N1    N14   1.414325 A    
C34   N42   1.425516 S    
N22   N25   1.386224 A    
C81   H45   1.086293 S    
N47   O30   1.300695 A    
C30   N22   1.345212 A    
C73   H29   1.110459 S    
N21   N26   1.386228 A    
C66   C70   1.396164 A    
C12   N40   1.430818 S    
N18   N30   1.375158 A    
N46   O28   1.300694 A    
N42   O19   1.299041 A    
C64   C68   1.405055 A    
H35   C95   1.083006 S    
C37   N29   1.342029 A    
C50   C78   1.509278 S    
C9    C21   1.392320 A    
N37   O10   1.301034 A    
N26   Ni1   1.872810 S    
C27   C43   1.365617 A    
C6    N6    1.320234 A    
H33   C93   1.083007 S    
N25   Ni2   1.872799 S    
C44   C67   1.445888 S    
C11   C23   1.392295 A    
N36   O7    1.302799 A    
C14   H6    1.078011 S    
C36   N44   1.425511 S    
C12   C24   1.392354 A    
C40   N32   1.342017 A    
C84   C88   1.342549 D    
C77   I5    2.165604 S    
C31   C47   1.381179 A    
C9    N9    1.343680 A    
C74   C78   1.514117 S    
C26   C42   1.365663 A    
H37   C85   1.087171 S    
C15   H7    1.078020 S    
C30   H14   1.077527 S    
C21   C54   1.439996 S    
C91   C95   1.337508 D    
C80   I8    2.165314 S    
C27   H11   1.072497 S    
N41   O17   1.299041 A    
C38   N30   1.342008 A    
C83   H47   1.086292 S    
C28   C44   1.365657 A    
N36   O8    1.301767 A    
C29   C45   1.381173 A    
C60   H20   1.082851 S    
C4    C20   1.376679 A    
C40   C44   1.384741 A    
C62   H22   1.080296 S    
C83   C87   1.342554 D    
C2    I2    2.120182 S    
C31   H15   1.077558 S    
C61   H21   1.080291 S    
N45   O25   1.300693 A    
C84   H48   1.086296 S    
N30   Ni5   1.872367 S    
C29   H13   1.077536 S    
N29   Ni6   1.872357 S    
C63   H23   1.080288 S    
N39   O13   1.299735 A    
C57   C63   1.401145 A    
C89   C93   1.337503 D    
N47   O29   1.300673 A    
N39   O14   1.301025 A    
N3    Ni3   1.858840 S    
N31   Ni8   1.872356 S    
C8    N8    1.320259 A    
C49   C53   1.394422 A    
C47   C91   1.459163 S    
C8    C24   1.369401 A    
N2    N13   1.414323 A    
C33   N41   1.425512 S    
N11   Ni4   1.845275 S    
N44   O23   1.299043 A    
N19   Ni3   1.859276 S    
C10   N38   1.430814 S    
N18   Ni2   1.859288 S    
H42   C90   1.087105 S    
N27   Ni4   1.872798 S    
C58   H18   1.082852 S    
C10   N10   1.343694 A    
C60   C62   1.401133 A    
C34   C45   1.383826 A    
C57   H17   1.082848 S    
N34   O4    1.301272 A    
C33   C46   1.383822 A    
C87   C93   1.443142 S    
C39   N47   1.427182 S    
C69   C75   1.498068 S    
C59   H19   1.082852 S    
H34   C94   1.083009 S    
C81   C85   1.342556 D    
C35   C48   1.383805 A    
C85   C95   1.443160 S    
C65   C69   1.396122 A    
C15   C20   1.380574 A    
C27   N19   1.320972 A    
N16   Ni7   1.843748 S    
C51   C79   1.509212 S    
C32   H16   1.077507 S    
C54   C58   1.406079 A    
C56   C60   1.406081 A    
N7    Ni7   1.858042 S    
H38   C86   1.087172 S    
C72   C74   1.498046 S    
N35   O6    1.300396 A    
C50   C54   1.394403 A    
N21   Ni5   1.857664 S    
C29   N21   1.345205 A    
C32   C48   1.381158 A    
C73   C77   1.514131 S    
N48   O31   1.300730 A    
C61   C65   1.405062 A    
C79   I7    2.165707 S    
C63   C67   1.405062 A    
N40   O15   1.299735 A    
C51   C55   1.394474 A    
C90   C94   1.337512 D    
C40   N48   1.427230 S    
C12   N12   1.343705 A    
C31   N23   1.345191 A    
N34   O3    1.302571 A    
C80   N36   1.468425 S    
C3    I3    2.120187 S    
C1    C17   1.376696 A    
C55   C59   1.406083 A    
C36   N28   1.335944 A    
N43   O22   1.300251 A    
C75   C79   1.514164 S    
C1    I1    2.120178 S    
C46   C90   1.459165 S    
C62   C66   1.405059 A    
C79   N35   1.468606 S    
C67   C71   1.396150 A    
C64   H24   1.080297 S    
N5    N9    1.375158 A    
C4    I4    2.120173 S    
N28   Ni3   1.872810 S    
C76   C80   1.514071 S    
N45   O26   1.300693 A    
N38   O12   1.301025 A    
N2    Ni2   1.858856 S    
C70   C76   1.498037 S    
H36   C96   1.083011 S    
C77   N33   1.468554 S    
H43   C91   1.087106 S    
C2    C18   1.376689 A    
C25   H9    1.072497 S    
C42   C65   1.445862 S    
C75   H31   1.110429 S    
N46   O27   1.300707 A    
C37   C41   1.384745 A    
C16   C19   1.380598 A    
N17   N29   1.375156 A    
N13   Ni6   1.843741 S    
N12   Ni3   1.845290 S    
C5    N5    1.320193 A    
H40   C88   1.087170 S    
C7    N7    1.320161 A    
N41   O18   1.300251 A    
N19   N31   1.375156 A    
C11   N39   1.430805 S    
C25   C41   1.365604 A    
N24   Ni8   1.857673 S    
C52   C56   1.394354 A    
C92   C96   1.337507 D    
C24   C55   1.440086 S    
C86   C96   1.443147 S    
C33   N25   1.335948 A    
C51   C69   1.363184 A    
N33   O1    1.302458 A    
C34   N26   1.335937 A    
C22   C53   1.440064 S    
C13   N13   1.346784 A    
C15   N15   1.346781 A    
N4    N15   1.414323 A    
H41   C89   1.087106 S    
C39   C43   1.384719 A    
C17   C82   1.458600 S    
N20   Ni4   1.859287 S    
C35   N27   1.335942 A    
C88   C94   1.443163 S    
N1    Ni1   1.858840 S    
C26   N18   1.320987 A    
C6    H2    1.065165 S    
C50   C72   1.363107 A    
C30   C46   1.381165 A    
C78   N34   1.468510 S    
