data_mof_unit_1280.cif
_audit_creation_date              2012-12-10T17:32:16-0500
_audit_creation_method            fapswitch 2.2
_symmetry_space_group_name_H-M    P1
_symmetry_Int_Tables_number       1
_space_group_crystal_system       triclinic
_cell_length_a                    12.369139
_cell_length_b                    13.217966
_cell_length_c                    15.051294
_cell_angle_alpha                 76.949468
_cell_angle_beta                  101.238015
_cell_angle_gamma                 116.90531
_cell_volume                      2125.55440594

loop_
_atom_site_label
_atom_site_type_symbol
_atom_type_description
_atom_site_fract_x
_atom_site_fract_y
_atom_site_fract_z
_atom_type_partial_charge
C1    C     C_R   0.854859 0.286374 0.509147 0.821105
C2    C     C_R   0.967899 0.584849 0.070205 -0.014500
C3    C     C_R   0.083981 0.361314 0.087199 0.411749
C4    C     C_R   0.086572 0.364083 0.994605 -0.200570
C5    C     C_R   0.044736 0.433697 0.927300 0.036457
C6    C     C_R   0.001980 0.504667 0.952444 0.078072
C7    C     C_R   0.957273 0.572747 0.884017 0.043653
C8    C     C_R   0.919395 0.646471 0.908146 -0.243795
C9    C     C_R   0.928578 0.656718 0.999588 0.425085
C10   C     C_R   0.044333 0.432823 0.834777 -0.210170
C11   C     C_R   0.998767 0.499785 0.767275 -0.062201
C12   C     C_R   0.999264 0.499315 0.670903 0.800257
C13   C     C_R   0.954021 0.568456 0.791864 -0.213871
C14   C     C_R   0.279188 0.021466 0.373194 -0.177454
C15   C     C_R   0.228155 0.834827 0.466648 -0.054335
C16   C     C_R   0.812466 0.083289 0.573937 0.605761
C17   C     C_R   0.732041 0.968446 0.592223 -0.200805
C18   C     C_R   0.609995 0.931521 0.558091 -0.276254
C19   C     C_R   0.565819 0.008964 0.501315 0.083711
C20   C     C_R   0.650878 0.123206 0.473436 0.004166
C21   C     C_R   0.440156 0.976196 0.470220 0.096387
C22   C     C_R   0.402966 0.053378 0.404874 0.148896
C23   C     C_R   0.145023 0.713378 0.486178 0.787081
C24   C     C_R   0.489899 0.160280 0.370117 -0.225019
C25   C     C_R   0.612084 0.194124 0.402784 -0.156000
C26   C     C_R   0.349917 0.868973 0.502685 -0.206321
C27   C     C_R   0.192109 0.912106 0.403347 -0.196717
C28   C     C_R   0.772762 0.162669 0.516181 -0.234648
C29   C     C_R   0.338548 0.317205 0.638442 -0.289268
C30   C     C_R   0.759125 0.642680 0.373083 0.111098
C31   C     C_R   0.659087 0.666667 0.340112 -0.260353
C32   C     C_R   0.554505 0.609629 0.385432 -0.132438
C33   C     C_R   0.550159 0.530998 0.467451 0.015509
C34   C     C_R   0.003150 0.504432 0.328693 0.782880
C35   C     C_R   0.652452 0.504091 0.495022 0.262926
C36   C     C_R   0.446558 0.473423 0.520057 -0.049927
C37   C     C_R   0.441807 0.380878 0.590761 0.098217
C38   C     C_R   0.541086 0.353683 0.614661 -0.244224
C39   C     C_R   0.645353 0.416177 0.569742 -0.172664
C40   C     C_R   0.347922 0.504440 0.506802 0.519927
C41   C     C_R   0.240369 0.345955 0.617148 0.039927
C42   C     C_R   0.971083 0.586989 0.163967 0.374981
C43   C     C_R   0.009005 0.512315 0.231113 -0.160738
C44   C     C_R   0.049998 0.441466 0.205716 -0.289901
C45   C     C_R   0.046044 0.435996 0.113570 0.022269
C46   C     C_R   0.004804 0.508181 0.045596 -0.105819
Cu1   Cu    Cu3+1 0.098270 0.475420 0.521130 0.972694
Cu2   Cu    Cu3+1 0.901730 0.524580 0.478870 0.932550
H1    H     H_    0.463399 0.218157 0.317309 0.158342
H2    H     H_    0.250314 0.079857 0.323014 0.156913
H3    H     H_    0.371707 0.808951 0.555516 0.162832
H4    H     H_    0.553461 0.841133 0.575753 0.178286
H5    H     H_    0.763753 0.907821 0.635771 0.173519
H6    H     H_    0.675633 0.275449 0.369800 0.179785
H7    H     H_    0.159868 0.295791 0.652831 0.191054
H8    H     H_    0.539181 0.284476 0.670042 0.157916
H9    H     H_    0.333613 0.245170 0.691701 0.161380
H10   H     H_    0.083461 0.389569 0.259279 0.179558
H11   H     H_    0.839805 0.686409 0.337245 0.150422
H12   H     H_    0.477226 0.625106 0.351577 0.190296
H13   H     H_    0.661526 0.727703 0.278079 0.165367
H14   H     H_    0.717724 0.391029 0.594890 0.205763
H15   H     H_    0.118105 0.308546 0.975241 0.170240
H16   H     H_    0.077742 0.378794 0.815211 0.154404
H17   H     H_    0.920011 0.621158 0.739159 0.157205
H18   H     H_    0.887107 0.700412 0.855414 0.173752
H19   H     H_    0.097922 0.886457 0.374411 0.153982
N1    N     N_R   0.246280 0.438190 0.553160 -0.220033
N2    N     N_R   0.754320 0.561190 0.447410 -0.215395
O1    O     O_R   0.972510 0.318130 0.526570 -0.518503
O2    O     O_R   0.806530 0.359650 0.490890 -0.613943
O3    O     O_R   0.082980 0.479210 0.647590 -0.577399
O4    O     O_R   0.917000 0.520730 0.611900 -0.604366
O5    O     O_R   0.193470 0.640350 0.509110 -0.552731
O6    O     O_R   0.027490 0.681870 0.473430 -0.596459
O7    O     O_R   0.083000 0.479270 0.388100 -0.613484
O8    O     O_R   0.917020 0.520790 0.352410 -0.565825
O9    O     O_3   0.936276 0.661247 0.189006 -0.712637
H20   H     H_    0.993769 0.694559 0.241691 0.304196
F1    F     F_    0.928460 0.116685 0.615265 -0.677555
O10   O     O_3   0.361173 0.608679 0.456338 -0.754167
H21   H     H_    0.290017 0.593825 0.409780 0.345446
O11   O     O_3   0.119978 0.285096 0.149112 -0.734178
H22   H     H_    0.066202 0.251422 0.198939 0.316104
O12   O     O_3   0.899415 0.738690 0.016881 -0.673402
H23   H     H_    0.973597 0.792066 0.050036 0.345947

loop_
_geom_bond_atom_site_label_1
_geom_bond_atom_site_label_2
_ccdc_geom_bond_type
C16   C28   A    
C21   C26   A    
C8    H18   S    
C31   H13   S    
C19   C20   A    
Cu2   N2    S    
O10   H21   S    
C18   H4    S    
C7    C8    A    
C13   H17   S    
C45   C46   A    
C2    C46   A    
C4    H15   S    
C1    O2    A    
O11   H22   S    
C36   C37   A    
C19   C21   A    
Cu1   O7    S    
C34   O8    A    
C30   C31   A    
C20   C25   A    
C33   C36   A    
C18   C19   A    
C41   H7    S    
C9    O12   S    
C31   C32   A    
C44   H10   S    
C8    C9    A    
C1    C28   S    
C14   C27   A    
C15   C23   S    
C12   O3    A    
C21   C22   A    
Cu2   O6    S    
C40   O10   S    
C41   N1    A    
C38   C39   A    
C14   H2    S    
C36   C40   A    
C25   H6    S    
O9    H20   S    
C16   C17   A    
C15   C26   A    
C20   C28   A    
O12   H23   S    
C3    C45   A    
C16   F1    S    
Cu2   O8    S    
C35   C39   A    
C43   C44   A    
Cu1   O1    S    
C37   C38   A    
C15   C27   A    
Cu1   Cu2   S    
C30   H11   S    
C17   C18   A    
C24   C25   A    
C29   H9    S    
C42   O9    S    
C3    O11   S    
C22   C24   A    
C42   C43   A    
C32   H12   S    
Cu2   O2    S    
C3    C4    A    
C17   H5    S    
Cu1   N1    S    
C30   N2    A    
C44   C45   A    
C24   H1    S    
C39   H14   S    
C6    C46   A    
C29   C41   A    
Cu2   O4    S    
C10   H16   S    
C34   C43   S    
Cu1   O5    S    
C23   O6    A    
C4    C5    A    
C11   C12   S    
C6    C7    A    
C1    O1    A    
C32   C33   A    
C14   C22   A    
C5    C10   A    
C26   H3    S    
C11   C13   A    
C5    C6    A    
C2    C42   A    
C33   C35   A    
Cu1   O3    S    
C27   H19   S    
C10   C11   A    
C7    C13   A    
C38   H8    S    
C35   N2    A    
C40   N1    A    
C29   C37   A    
C23   O5    A    
C12   O4    A    
C2    C9    A    
C34   O7    A    
