data_mof_unit_3393.cif
_audit_creation_date              2012-12-10T17:10:15-0500
_audit_creation_method            fapswitch 2.2
_symmetry_space_group_name_H-M    P1
_symmetry_Int_Tables_number       1
_space_group_crystal_system       triclinic
_cell_length_a                    15.719507
_cell_length_b                    10.615787
_cell_length_c                    10.035581
_cell_angle_alpha                 91.295097
_cell_angle_beta                  88.696856
_cell_angle_gamma                 90.367547
_cell_volume                      1673.796957

loop_
_atom_site_label
_atom_site_type_symbol
_atom_type_description
_atom_site_fract_x
_atom_site_fract_y
_atom_site_fract_z
_atom_type_partial_charge
C1    C     C_R   0.502323 0.262300 0.498032 0.912322
C2    C     C_2   0.463596 0.865417 0.509443 -0.401443
C3    C     C_2   0.445912 0.069154 0.422367 -0.226433
C4    C     C_R   0.337956 0.499860 0.501369 0.881548
C5    C     C_2   0.507860 0.128917 0.490027 0.052793
C6    C     C_2   0.552114 0.566875 0.924244 -0.173387
C7    C     C_2   0.559654 0.552294 0.072261 0.012192
C8    C     C_R   0.489465 0.736229 0.501848 0.920377
C9    C     C_R   0.662041 0.499765 0.498706 0.912365
C10   C     C_3   0.969760 0.405695 0.581674 0.034668
C11   C     C_3   0.029752 0.384143 0.459054 -0.247606
C12   C     C_3   0.082814 0.497831 0.506623 0.190458
C13   C     C_1   0.249016 0.499614 0.504693 -0.197178
C14   C     C_1   0.750970 0.498076 0.496203 -0.165798
C15   C     C_3   0.024132 0.518328 0.628623 0.214636
C16   C     C_3   0.590055 0.070104 0.533577 -0.910623
C17   C     C_R   0.640472 0.596628 0.128294 0.203138
C18   C     C_R   0.713881 0.523912 0.106738 -0.157566
C19   C     C_R   0.792702 0.568817 0.149112 -0.145139
C20   C     C_R   0.798693 0.686240 0.214205 -0.104846
C21   C     C_R   0.725914 0.759882 0.234612 -0.185055
C22   C     C_R   0.647194 0.716091 0.189944 -0.109644
C23   C     C_3   0.970280 0.609475 0.548137 -0.199325
C24   C     C_R   0.932269 0.306290 0.670709 0.124950
C25   C     C_R   0.952186 0.178425 0.649569 -0.156219
C26   C     C_R   0.916401 0.087061 0.732376 -0.138106
C27   C     C_R   0.860673 0.122561 0.836773 -0.109810
C28   C     C_R   0.840610 0.249504 0.858512 -0.138737
C29   C     C_R   0.876130 0.341160 0.775843 -0.145933
C30   C     C_3   0.054159 0.543739 0.769829 -0.950609
C31   C     C_R   0.417984 0.879636 0.272255 0.158017
C32   C     C_R   0.354292 0.786252 0.264418 -0.079966
C33   C     C_R   0.331622 0.734524 0.140777 -0.148600
C34   C     C_3   0.917082 0.495855 0.500380 0.126894
C35   C     C_R   0.371202 0.776968 0.023916 -0.116690
C36   C     C_R   0.432791 0.872281 0.030409 -0.144941
C37   C     C_R   0.455577 0.924391 0.153884 -0.196044
C38   C     C_3   0.030367 0.588506 0.425045 -0.199572
C39   C     C_3   0.975648 0.475067 0.377518 -0.162091
C40   C     C_1   0.173701 0.499018 0.506645 -0.065723
C41   C     C_1   0.826253 0.496723 0.496646 -0.067640
C42   C     C_2   0.443722 0.933353 0.403671 0.031746
H1    H     H_    0.056990 0.293850 0.420659 0.135185
H2    H     H_    0.641556 0.142192 0.538649 0.228985
H3    H     H_    0.582139 0.030852 0.634601 0.240104
H4    H     H_    0.611898 0.995904 0.461076 0.248030
H5    H     H_    0.710006 0.433198 0.055767 0.114928
H6    H     H_    0.849044 0.512859 0.130208 0.120306
H7    H     H_    0.859755 0.720517 0.247756 0.128884
H8    H     H_    0.730671 0.851580 0.283345 0.130399
H9    H     H_    0.592127 0.775756 0.201900 0.149544
H10   H     H_    0.995140 0.148811 0.569372 0.117438
H11   H     H_    0.931890 0.988666 0.715572 0.124506
H12   H     H_    0.595945 0.630621 0.874201 0.167059
H13   H     H_    0.833042 0.051730 0.900788 0.123631
H14   H     H_    0.797488 0.276725 0.939398 0.121527
H15   H     H_    0.859675 0.439144 0.793475 0.128727
H16   H     H_    0.998486 0.559375 0.837977 0.237269
H17   H     H_    0.090797 0.461817 0.803614 0.251186
H18   H     H_    0.095412 0.628954 0.771857 0.246420
H19   H     H_    0.322745 0.753027 0.354118 0.109901
H20   H     H_    0.283445 0.661381 0.135635 0.129822
H21   H     H_    0.353942 0.736348 0.928311 0.138243
H22   H     H_    0.463127 0.905456 0.939757 0.134611
H23   H     H_    0.464819 0.433339 0.898421 0.163568
H24   H     H_    0.503969 0.997412 0.157439 0.139216
H25   H     H_    0.444096 0.478906 0.104238 0.157053
H26   H     H_    0.955019 0.456117 0.274158 0.134555
H27   H     H_    0.057153 0.663352 0.360663 0.135547
H28   H     H_    0.944191 0.701201 0.584678 0.135140
H29   H     H_    0.465511 0.910123 0.607873 0.167255
H30   H     H_    0.395016 0.122334 0.378463 0.132326
N1    N     N_2   0.500900 0.501330 0.852150 -0.198153
N2    N     N_2   0.500930 0.501360 0.147810 -0.207403
O1    O     O_R   0.499990 0.319060 0.613040 -0.608927
O2    O     O_R   0.500010 0.319100 0.386900 -0.622362
O3    O     O_R   0.376760 0.499970 0.613050 -0.611536
O4    O     O_R   0.376790 0.500010 0.386910 -0.623526
O5    O     O_R   0.499990 0.680900 0.613100 -0.616687
O6    O     O_R   0.500010 0.680940 0.386960 -0.604931
O7    O     O_R   0.623210 0.499990 0.613090 -0.611623
O8    O     O_R   0.623240 0.500030 0.386950 -0.595484
Zn1   Zn    Zn3+2 0.499980 0.499970 0.650990 0.934587
Zn2   Zn    Zn3+2 0.500020 0.500030 0.349010 0.943302

loop_
_geom_bond_atom_site_label_1
_geom_bond_atom_site_label_2
_ccdc_geom_bond_type
C3    C42   S    
C31   C42   S    
C39   H26   S    
C19   C20   A    
O6    Zn2   S    
C18   H5    S    
O2    Zn2   S    
C28   H14   S    
C26   C27   A    
C15   C30   S    
C1    C5    S    
C28   C29   A    
C32   H19   S    
C10   C15   S    
C38   C39   S    
C27   H13   S    
O3    Zn1   S    
H23   N1    S    
C18   C19   A    
C4    C13   S    
C24   C29   A    
C5    C16   S    
C35   C36   A    
C33   H20   S    
C13   C40   T    
C30   H18   S    
C8    O5    A    
C11   H1    S    
C16   H2    S    
C9    O8    A    
C15   C23   S    
C38   H27   S    
C21   C22   A    
C30   H17   S    
C23   H28   S    
C34   C41   S    
C6    H12   S    
C21   H8    S    
O7    Zn1   S    
C7    N2    D    
C34   C39   S    
C1    O1    A    
C24   C25   A    
C16   H4    S    
C19   H6    S    
C10   C24   S    
C25   C26   A    
C31   C37   A    
C12   C40   S    
C9    C14   S    
C4    O4    A    
C20   H7    S    
C31   C32   A    
C12   C15   S    
C23   C34   S    
C37   H24   S    
C17   C18   A    
C10   C34   S    
H25   N2    S    
C11   C39   S    
C14   C41   T    
C29   H15   S    
O8    Zn2   S    
C2    H29   S    
C26   H11   S    
C6    N1    D    
C36   C37   A    
C1    O2    A    
C2    C8    S    
N2    Zn2   S    
C3    C5    D    
C7    C17   S    
C16   H3    S    
C11   C12   S    
C6    C7    S    
C23   C38   S    
C17   C22   A    
C32   C33   A    
C3    H30   S    
C25   H10   S    
C4    O3    A    
O5    Zn1   S    
O1    Zn1   S    
C2    C42   D    
C30   H16   S    
C33   C35   A    
C12   C38   S    
C10   C11   S    
O4    Zn2   S    
C20   C21   A    
C27   C28   A    
C8    O6    A    
C35   H21   S    
C36   H22   S    
N1    Zn1   S    
C9    O7    A    
C22   H9    S    
