data_mof_unit_2606.cif
_audit_creation_date              2012-12-10T20:03:10-0500
_audit_creation_method            fapswitch 2.2
_symmetry_space_group_name_H-M    P1
_symmetry_Int_Tables_number       1
_space_group_crystal_system       triclinic
_cell_length_a                    8.641124
_cell_length_b                    18.713295
_cell_length_c                    18.521426
_cell_angle_alpha                 90.998219
_cell_angle_beta                  98.681147
_cell_angle_gamma                 90.720053
_cell_volume                      2959.8758911

loop_
_atom_site_label
_atom_site_type_symbol
_atom_type_description
_atom_site_fract_x
_atom_site_fract_y
_atom_site_fract_z
_atom_type_partial_charge
C1    C     C_R   0.501644 0.364944 0.499561 0.858984
C2    C     C_R   0.412665 0.452855 0.262333 0.127426
C3    C     C_R   0.401034 0.542382 0.796828 -0.284825
C4    C     C_R   0.418243 0.456365 0.187043 -0.192076
C5    C     C_R   0.511442 0.502252 0.842116 0.132285
C6    C     C_R   0.514457 0.506542 0.159641 0.101111
C7    C     C_R   0.616411 0.461262 0.808311 -0.373063
C8    C     C_R   0.603755 0.553291 0.209727 -0.461197
C9    C     C_R   0.604546 0.458001 0.731444 0.633781
C10   C     C_R   0.589297 0.552076 0.284911 0.656431
C11   C     C_R   0.539149 0.440706 0.964885 -0.061118
C12   C     C_R   0.503894 0.635163 0.500906 0.899497
C13   C     C_R   0.499407 0.570676 0.038117 -0.048138
C14   C     C_R   0.551202 0.443130 0.041927 0.461164
C15   C     C_R   0.505349 0.569438 0.962356 0.491522
C16   C     C_R   0.200937 0.495261 0.480795 0.844666
C17   C     C_R   0.797642 0.493835 0.518759 0.887913
C18   C     C_R   0.524676 0.507488 0.079230 -0.121305
C19   C     C_R   0.519048 0.504084 0.924149 -0.086474
C20   C     C_2   0.035582 0.482154 0.469975 0.166269
C21   C     C_2   0.961034 0.482413 0.529165 0.190531
C22   C     C_R   0.465148 0.759810 0.461601 -0.304535
C23   C     C_R   0.679322 0.965871 0.584720 -0.024569
C24   C     C_R   0.440202 0.237820 0.513288 -0.296284
C25   C     C_R   0.514485 0.831193 0.465777 0.108628
C26   C     C_R   0.487928 0.166861 0.518092 0.123703
C27   C     C_R   0.651601 0.851832 0.513512 0.105350
C28   C     C_R   0.645532 0.150580 0.513044 0.087985
C29   C     C_R   0.737596 0.801630 0.558090 0.522108
C30   C     C_R   0.752915 0.204282 0.500242 0.521807
C31   C     C_R   0.684960 0.730183 0.553319 -0.326197
C32   C     C_R   0.701490 0.275112 0.495379 -0.322097
C33   C     C_R   0.548790 0.709989 0.506119 -0.091911
C34   C     C_R   0.728452 0.038158 0.457889 -0.030171
C35   C     C_R   0.546391 0.291074 0.501398 -0.074593
C36   C     C_3   0.973667 0.505582 0.345932 -0.180946
C37   C     C_3   0.054059 0.409730 0.621768 -0.216595
C38   C     C_3   0.680284 0.343921 0.711149 -0.318146
C39   C     C_3   0.657054 0.669888 0.313417 -0.339800
C40   C     C_3   0.738716 0.377685 0.108427 -0.309502
C41   C     C_3   0.640790 0.661644 0.923119 -0.303354
C42   C     C_3   0.901198 0.790850 0.669221 -0.318820
C43   C     C_3   0.975737 0.223740 0.446400 -0.330769
C44   C     C_3   0.800465 0.106623 0.683193 -0.325284
C45   C     C_R   0.686275 0.040582 0.585423 0.462165
C46   C     C_3   0.914788 0.901849 0.406395 -0.345154
C47   C     C_R   0.736748 0.963513 0.459500 0.459350
C48   C     C_R   0.695840 0.076146 0.519852 -0.059239
C49   C     C_R   0.697576 0.927630 0.520598 -0.043579
C50   C     C_R   0.400060 0.542405 0.720724 0.165834
H1    H     H_    0.708575 0.432519 0.841203 0.172082
H2    H     H_    0.974353 0.562555 0.364497 0.171591
H3    H     H_    0.873570 0.496562 0.301891 0.181605
H4    H     H_    0.131993 0.380704 0.588938 0.134022
H5    H     H_    0.938866 0.381428 0.617039 0.173937
H6    H     H_    0.109160 0.408660 0.679854 0.185959
H7    H     H_    0.740720 0.311236 0.673695 0.185304
H8    H     H_    0.553688 0.328735 0.699875 0.170631
H9    H     H_    0.730664 0.330163 0.767869 0.151567
H10   H     H_    0.696728 0.705119 0.361624 0.211640
H11   H     H_    0.531972 0.682198 0.294020 0.156670
H12   H     H_    0.688138 0.588871 0.191054 0.155412
H13   H     H_    0.731061 0.683192 0.271311 0.148074
H14   H     H_    0.451044 0.340817 0.941748 0.218404
H15   H     H_    0.647773 0.348349 0.946186 0.198726
H16   H     H_    0.369633 0.627571 0.101182 0.189539
H17   H     H_    0.558496 0.656913 0.105432 0.177594
H18   H     H_    0.773415 0.421039 0.149770 0.166954
H19   H     H_    0.813132 0.380301 0.064401 0.143546
H20   H     H_    0.761555 0.326025 0.136231 0.197150
H21   H     H_    0.710990 0.625280 0.893094 0.156910
H22   H     H_    0.703802 0.673541 0.979101 0.161156
H23   H     H_    0.360898 0.743515 0.424533 0.145460
H24   H     H_    0.628852 0.712721 0.893432 0.189455
H25   H     H_    0.310553 0.882151 0.436429 0.171124
H26   H     H_    0.415805 0.867752 0.367817 0.200524
H27   H     H_    0.358835 0.079895 0.480005 0.171095
H28   H     H_    0.269679 0.132346 0.534971 0.207165
H29   H     H_    0.954216 0.737481 0.664864 0.167989
H30   H     H_    0.791497 0.786853 0.693840 0.163802
H31   H     H_    0.985651 0.824100 0.707080 0.191913
H32   H     H_    0.019894 0.277028 0.468301 0.164487
H33   H     H_    0.893287 0.228946 0.394418 0.183883
H34   H     H_    0.320982 0.251645 0.518558 0.137765
H35   H     H_    0.077774 0.193499 0.433218 0.182892
H36   H     H_    0.533813 0.946944 0.658482 0.217172
H37   H     H_    0.726902 0.942066 0.691821 0.211053
H38   H     H_    0.655082 0.054772 0.350581 0.210652
H39   H     H_    0.850708 0.064225 0.376989 0.213457
H40   H     H_    0.851309 0.146540 0.649277 0.181287
H41   H     H_    0.886118 0.063675 0.699418 0.161786
H42   H     H_    0.778360 0.134648 0.733824 0.187444
H43   H     H_    0.936926 0.863061 0.451485 0.188719
H44   H     H_    0.000099 0.947367 0.416258 0.160887
H45   H     H_    0.751970 0.689464 0.584349 0.158680
H46   H     H_    0.934877 0.873795 0.355457 0.186774
H47   H     H_    0.326427 0.641044 0.692584 0.163284
H48   H     H_    0.182971 0.578586 0.686797 0.213660
H49   H     H_    0.300112 0.408082 0.339894 0.248932
H50   H     H_    0.205294 0.400490 0.255863 0.144984
H51   H     H_    0.782410 0.318462 0.489236 0.149407
H52   H     H_    0.316433 0.574231 0.820063 0.191206
H53   H     H_    0.347500 0.419249 0.149939 0.177286
H54   H     H_    0.078337 0.494077 0.320172 0.148109
N1    N     N_R   0.500020 0.499980 0.689440 -0.126314
N2    N     N_3   0.316940 0.397764 0.286591 -0.433508
N3    N     N_R   0.499980 0.500020 0.310560 -0.137621
N4    N     N_3   0.541501 0.372898 0.927775 -0.447317
N5    N     N_3   0.460506 0.636776 0.070931 -0.404755
N6    N     N_3   0.423650 0.883188 0.422791 -0.445696
N7    N     N_3   0.377815 0.110943 0.528092 -0.417917
N8    N     N_3   0.641722 0.928837 0.647126 -0.428775
N9    N     N_3   0.741243 0.075097 0.391805 -0.424621
N10   N     N_3   0.296595 0.588308 0.676089 -0.364102
O1    O     O_R   0.500010 0.398180 0.560840 -0.597480
O2    O     O_3   0.036754 0.481646 0.600710 -0.603093
O3    O     O_3   0.706087 0.416878 0.697965 -0.583316
O4    O     O_3   0.677350 0.598136 0.334862 -0.589977
O5    O     O_3   0.578050 0.380356 0.079895 -0.604755
O6    O     O_3   0.489860 0.633043 0.925247 -0.593677
O7    O     O_3   0.877598 0.823820 0.600509 -0.613796
O8    O     O_3   0.908531 0.185982 0.499629 -0.624371
O9    O     O_3   0.657317 0.078087 0.646904 -0.594114
O10   O     O_3   0.759146 0.925832 0.397088 -0.605506
O11   O     O_R   0.499990 0.601820 0.439160 -0.573431
O12   O     O_R   0.499930 0.398180 0.439210 -0.620647
O13   O     O_R   0.500070 0.601820 0.560790 -0.608973
O14   O     O_R   0.271780 0.500000 0.546590 -0.560547
O15   O     O_R   0.728220 0.500000 0.453410 -0.552945
O16   O     O_R   0.271710 0.499990 0.424960 -0.660119
O17   O     O_R   0.728290 0.500010 0.575040 -0.561196
O18   O     O_3   0.958653 0.457150 0.402224 -0.622864
Zn1   Zn    Zn3+2 0.500050 0.500000 0.581210 1.002644
Zn2   Zn    Zn3+2 0.499950 0.500000 0.418790 0.979217

loop_
_geom_bond_atom_site_label_1
_geom_bond_atom_site_label_2
_ccdc_geom_bond_type
O11   Zn2   S    
C42   H30   S    
C23   C45   A    
C17   O17   A    
C43   H33   S    
C14   C18   A    
C2    C4    A    
C47   C49   A    
C37   O2    S    
C45   O9    S    
C34   N9    S    
C15   C19   A    
C23   N8    S    
C11   C19   A    
C40   H20   S    
C13   C18   A    
C24   C26   A    
N3    Zn2   S    
C36   O18   S    
C11   C14   A    
C23   C49   A    
C27   C29   A    
C9    N1    A    
C4    H53   S    
C2    N3    A    
C9    O3    S    
C15   O6    S    
H38   N9    S    
H27   N7    S    
C13   N5    S    
C36   H3    S    
C41   H24   S    
C38   H8    S    
C38   O3    S    
H17   N5    S    
C30   O8    S    
C22   C25   A    
C29   O7    S    
C50   N1    A    
C31   C33   A    
H28   N7    S    
C16   O16   A    
H15   N4    S    
C36   H2    S    
C41   H21   S    
C42   H29   S    
H16   N5    S    
C12   O13   A    
C37   H6    S    
C46   O10   S    
C10   N3    A    
O16   Zn2   S    
C42   H31   S    
C20   O18   S    
C21   O2    S    
C39   H11   S    
C3    C50   A    
H14   N4    S    
C6    C18   S    
H39   N9    S    
C24   C35   A    
C40   H19   S    
C17   O15   A    
C43   H35   S    
C32   C35   A    
C1    O12   A    
C4    C6    A    
C5    C7    A    
C6    C8    A    
C12   O11   A    
O1    Zn1   S    
C3    C5    A    
C2    N2    S    
C17   C21   S    
C38   H9    S    
C50   N10   S    
H36   N8    S    
C10   O4    S    
C38   H7    S    
C46   H44   S    
C16   C20   S    
C16   O14   A    
C43   O8    S    
C44   H41   S    
C25   N6    S    
C41   H22   S    
C5    C19   S    
C37   H4    S    
C3    H52   S    
H26   N6    S    
C13   C15   A    
C34   C48   A    
C44   H40   S    
C1    C35   S    
N1    Zn1   S    
C45   C48   A    
C7    C9    A    
H49   N2    S    
C28   C48   S    
H25   N6    S    
H50   N2    S    
O13   Zn1   S    
O17   Zn1   S    
C44   H42   S    
H37   N8    S    
C25   C27   A    
C39   O4    S    
C39   H13   S    
C44   O9    S    
C26   C28   A    
C36   H54   S    
C28   C30   A    
C24   H34   S    
C7    H1    S    
C29   C31   A    
O14   Zn1   S    
C30   C32   A    
C47   O10   S    
C46   H43   S    
C12   C33   S    
C31   H45   S    
C39   H10   S    
C41   O6    S    
H48   N10   S    
O15   Zn2   S    
C37   H5    S    
C40   O5    S    
C46   H46   S    
C20   C21   D    
O12   Zn2   S    
C8    C10   A    
C14   O5    S    
C40   H18   S    
C11   N4    S    
C43   H32   S    
C32   H51   S    
C34   C47   A    
C1    O1    A    
C22   H23   S    
H47   N10   S    
C26   N7    S    
C27   C49   S    
C42   O7    S    
C8    H12   S    
C22   C33   A    
