data_mof_unit_3145.cif
_audit_creation_date              2012-12-11T15:32:12-0500
_audit_creation_method            fapswitch 2.2
_symmetry_space_group_name_H-M    P1
_symmetry_Int_Tables_number       1
_space_group_crystal_system       triclinic
_cell_length_a                    13.591156
_cell_length_b                    13.536929
_cell_length_c                    27.669814
_cell_angle_alpha                 90.35311
_cell_angle_beta                  90.051913
_cell_angle_gamma                 120.10013
_cell_volume                      4404.14348695

loop_
_atom_site_label
_atom_site_type_symbol
_atom_type_description
_atom_site_fract_x
_atom_site_fract_y
_atom_site_fract_z
_atom_type_partial_charge
C1    C     C_R   0.619519 0.897995 0.431325 0.542359
C2    C     C_R   0.213949 0.944031 0.259748 -0.098117
C3    C     C_R   0.186312 0.931532 0.210496 -0.146590
C4    C     C_R   0.600085 0.219105 0.431447 0.537784
C5    C     C_R   0.214931 0.768331 0.205831 0.275107
C6    C     C_R   0.244707 0.782731 0.255006 -0.096064
C7    C     C_R   0.242520 0.869230 0.282160 0.000978
C8    C     C_R   0.186872 0.844044 0.183336 0.041694
C9    C     C_1   0.147812 0.824661 0.133813 -0.021965
C10   C     C_1   0.269614 0.880576 0.332990 -0.039469
C11   C     C_1   0.108043 0.800641 0.093571 -0.007171
C12   C     C_R   0.652505 0.413209 0.221071 -0.107509
C13   C     C_1   0.635022 0.863724 0.384088 0.026579
C14   C     C_R   0.570438 0.829037 0.260204 -0.108605
C15   C     C_R   0.578596 0.819686 0.210179 -0.096304
C16   C     C_R   0.328440 0.899981 0.425102 0.557274
C17   C     C_R   0.740132 0.792631 0.222318 -0.085502
C18   C     C_R   0.732555 0.802176 0.272417 0.111279
C19   C     C_R   0.647679 0.821330 0.291521 0.058703
C20   C     C_R   0.664167 0.802475 0.191117 0.011865
C21   C     C_1   0.676053 0.795025 0.139695 -0.050774
C22   C     C_1   0.642481 0.841239 0.342478 0.007628
C23   C     C_R   0.645693 0.398003 0.271097 -0.118042
C24   C     C_1   0.693079 0.786384 0.097519 -0.005196
C25   C     C_R   0.644372 0.287214 0.613174 -0.050769
C26   C     C_R   0.719493 0.269252 0.641401 -0.127762
C27   C     C_R   0.741942 0.307571 0.689126 0.250569
C28   C     C_R   0.619525 0.900642 0.569262 0.551449
C29   C     C_R   0.686508 0.362996 0.708434 0.049635
C30   C     C_R   0.621231 0.392241 0.678554 0.056708
C31   C     C_R   0.599593 0.353104 0.631061 -0.112171
C32   C     C_R   0.590754 0.324194 0.787790 -0.091739
C33   C     C_R   0.596157 0.334325 0.837921 -0.139378
C34   C     C_R   0.674572 0.322055 0.292103 0.047511
C35   C     C_R   0.801931 0.451416 0.833056 -0.122410
C36   C     C_R   0.796085 0.443874 0.783235 -0.075989
C37   C     C_R   0.690676 0.380724 0.760462 0.089383
C38   C     C_R   0.701912 0.398697 0.860750 0.025166
C39   C     C_R   0.217165 0.859683 0.613567 -0.015147
C40   C     C_R   0.601866 0.223393 0.568242 0.543486
C41   C     C_R   0.234348 0.954640 0.640934 -0.152810
C42   C     C_R   0.205164 0.943423 0.689388 0.086067
C43   C     C_R   0.154563 0.834825 0.710692 -0.006093
C44   C     C_R   0.128017 0.738308 0.682465 -0.127081
C45   C     C_R   0.687170 0.351770 0.191609 0.009365
C46   C     C_R   0.157529 0.749507 0.633805 0.242048
C47   C     C_R   0.178289 0.767030 0.790596 -0.114037
C48   C     C_R   0.153596 0.749600 0.839709 -0.133455
C49   C     C_R   0.041504 0.843224 0.832686 -0.119135
C50   C     C_R   0.063330 0.857398 0.783639 -0.090846
C51   C     C_R   0.132638 0.820560 0.762487 0.055313
C52   C     C_R   0.278134 0.880502 0.567814 0.554192
C53   C     C_R   0.085005 0.787723 0.860949 0.020991
C54   C     C_R   0.631688 0.863067 0.617243 0.023248
C55   C     C_R   0.531677 0.796604 0.643801 -0.149179
C56   C     C_1   0.694365 0.369295 0.140205 -0.064213
C57   C     C_R   0.536780 0.779406 0.692682 -0.106745
C58   C     C_R   0.642103 0.825232 0.715948 0.018332
C59   C     C_R   0.742725 0.884083 0.688816 -0.087791
C60   C     C_R   0.738253 0.903597 0.639585 0.240846
C61   C     C_R   0.733608 0.905789 0.794981 -0.137107
C62   C     C_R   0.748146 0.892922 0.843444 -0.174367
C63   C     C_R   0.580658 0.702590 0.842411 0.265956
C64   C     C_1   0.633730 0.268591 0.384453 0.014300
C65   C     C_R   0.566869 0.716949 0.793013 -0.093949
C66   C     C_R   0.647361 0.815412 0.768658 0.005607
C67   C     C_1   0.655520 0.298023 0.342958 -0.012632
C68   C     C_R   0.676705 0.789195 0.866729 0.040614
C69   C     C_R   0.050226 0.761783 0.047969 0.547665
C70   C     C_R   0.714277 0.436003 0.049833 0.546225
C71   C     C_R   0.723412 0.770833 0.049570 0.546595
C72   C     C_R   0.042001 0.755100 0.909932 0.538056
C73   C     C_R   0.709919 0.432982 0.911173 0.538280
C74   C     C_R   0.716474 0.766702 0.912442 0.559123
C75   C     C_R   0.711925 0.262128 0.262633 0.101268
C76   C     C_R   0.717647 0.277002 0.212471 -0.095695
C77   C     C_3   0.913504 0.313853 0.702779 -0.010517
C78   C     C_1   0.701865 0.392796 0.097932 -0.014025
C79   C     C_3   0.930979 0.211830 0.694669 -0.256095
C80   C     C_3   0.051138 0.249402 0.677294 -0.447804
C81   C     C_3   0.035710 0.613380 0.581425 0.009504
C82   C     C_3   0.005054 0.499466 0.557432 -0.250654
C83   C     C_3   0.897726 0.454462 0.526542 -0.463984
C84   C     C_3   0.458858 0.504434 0.845577 0.016858
C85   C     C_3   0.334099 0.454653 0.830843 -0.282545
C86   C     C_3   0.287953 0.338995 0.805866 -0.462288
C87   C     C_3   0.871196 0.900033 0.591441 0.014712
C88   C     C_3   0.983999 0.974614 0.565750 -0.250428
C89   C     C_1   0.294230 0.889183 0.375325 0.003194
C90   C     C_3   0.020591 0.902242 0.536886 -0.467416
C91   C     C_3   0.111731 0.580623 0.185562 0.010571
C92   C     C_3   0.109661 0.487110 0.153655 -0.248810
C93   C     C_3   0.996117 0.376017 0.157286 -0.475950
Cr1   Cr    Cr6+3 0.417720 0.831920 0.499820 1.034256
Cr2   Cr    Cr6+3 0.668190 0.085770 0.500360 1.029452
Cr3   Cr    Cr6+3 0.414060 0.082260 0.499840 1.019541
Cr4   Cr    Cr6+3 0.908000 0.821090 0.979770 1.022802
Cr5   Cr    Cr6+3 0.912420 0.571130 0.979880 1.022330
Cr6   Cr    Cr6+3 0.657970 0.566940 0.980940 1.051478
H1    H     H_    0.519152 0.827070 0.186469 0.144183
H2    H     H_    0.279336 0.039726 0.625903 0.173128
H3    H     H_    0.231458 0.737445 0.774320 0.111571
H4    H     H_    0.185912 0.704741 0.860788 0.129618
H5    H     H_    0.024812 0.895611 0.762015 0.134372
H6    H     H_    0.985200 0.870176 0.847874 0.137479
H7    H     H_    0.087029 0.654212 0.698585 0.114702
H8    H     H_    0.448275 0.764541 0.627736 0.165924
H9    H     H_    0.629798 0.472209 0.205307 0.125816
H10   H     H_    0.792379 0.985576 0.777819 0.120366
H11   H     H_    0.820227 0.962401 0.861877 0.143296
H12   H     H_    0.806173 0.778697 0.207689 0.131897
H13   H     H_    0.457815 0.735254 0.712498 0.120862
H14   H     H_    0.495798 0.650148 0.773360 0.125398
H15   H     H_    0.825254 0.917486 0.705883 0.114407
H16   H     H_    0.616154 0.444075 0.293296 0.132341
H17   H     H_    0.212137 0.011338 0.280410 0.142480
H18   H     H_    0.162567 0.988798 0.193793 0.126668
H19   H     H_    0.267785 0.725252 0.272034 0.116845
H20   H     H_    0.505162 0.844623 0.274469 0.124104
H21   H     H_    0.973484 0.369531 0.731398 0.145097
H22   H     H_    0.936264 0.366518 0.669356 0.114299
H23   H     H_    0.753320 0.217102 0.627907 0.148928
H24   H     H_    0.915485 0.164195 0.729010 0.168123
H25   H     H_    0.868981 0.153479 0.667318 0.206788
H26   H     H_    0.067673 0.295125 0.642397 0.156574
H27   H     H_    0.060490 0.173154 0.671872 0.187909
H28   H     H_    0.114804 0.306391 0.704538 0.158356
H29   H     H_    0.047335 0.675444 0.552663 0.138150
H30   H     H_    0.964033 0.599830 0.605415 0.119276
H31   H     H_    0.076561 0.510669 0.534183 0.186930
H32   H     H_    0.991059 0.435812 0.585698 0.155637
H33   H     H_    0.825488 0.444429 0.548861 0.146752
H34   H     H_    0.509071 0.272954 0.770253 0.170216
H35   H     H_    0.875553 0.370020 0.510897 0.167386
H36   H     H_    0.911828 0.514247 0.496539 0.155772
H37   H     H_    0.463387 0.446075 0.872322 0.173284
H38   H     H_    0.511660 0.506429 0.814402 0.152135
H39   H     H_    0.282562 0.444192 0.863605 0.176392
H40   H     H_    0.324883 0.513738 0.806072 0.162181
H41   H     H_    0.335900 0.348364 0.772139 0.210078
H42   H     H_    0.196949 0.304170 0.796437 0.158753
H43   H     H_    0.295285 0.277854 0.830105 0.167161
H44   H     H_    0.806038 0.844951 0.564069 0.137472
H45   H     H_    0.518297 0.294441 0.858678 0.119103
H46   H     H_    0.883178 0.845127 0.617961 0.132406
H47   H     H_    0.975079 0.033761 0.540809 0.186691
H48   H     H_    0.050771 0.026346 0.592986 0.172832
H49   H     H_    0.027865 0.841242 0.561089 0.127579
H50   H     H_    0.104543 0.958311 0.520013 0.174088
H51   H     H_    0.957622 0.853946 0.507909 0.160766
H52   H     H_    0.039453 0.592841 0.174715 0.142930
H53   H     H_    0.100799 0.552572 0.223940 0.140130
H54   H     H_    0.123959 0.515556 0.115410 0.188441
H55   H     H_    0.179229 0.471549 0.164934 0.176501
H56   H     H_    0.873693 0.487130 0.762357 0.110233
H57   H     H_    0.979522 0.345990 0.195269 0.172652
H58   H     H_    0.998099 0.309300 0.134462 0.156537
H59   H     H_    0.926115 0.388988 0.144300 0.156819
H60   H     H_    0.884645 0.504149 0.849614 0.139830
H61   H     H_    0.745363 0.230014 0.189872 0.132247
H62   H     H_    0.544077 0.369989 0.608841 0.166662
I1    I     I_    0.759254 0.147312 0.291716 -0.411345
I2    I     I_    0.852611 0.789513 0.317070 -0.412007
I3    I     I_    0.551569 0.493042 0.702634 -0.512087
I4    I     I_    0.257153 0.097350 0.728550 -0.504586
O1    O     O_R   0.302900 0.805360 0.446400 -0.505626
O2    O     O_R   0.638120 0.455970 0.034270 -0.503262
O3    O     O_R   0.667540 0.672320 0.030160 -0.492318
O4    O     O_R   0.522090 0.841370 0.450730 -0.516894
O5    O     O_R   0.814460 0.840990 0.926980 -0.540994
O6    O     O_R   0.001710 0.811400 0.930110 -0.503084
O7    O     O_R   0.023410 0.659800 0.926210 -0.521325
O8    O     O_R   0.806940 0.473170 0.931090 -0.505353
O9    O     O_R   0.633420 0.451310 0.927930 -0.520323
O10   O     O_R   0.663190 0.668000 0.931580 -0.448546
O11   O     O_3   0.826130 0.653050 0.980200 -0.254662
O12   O     O_R   0.657980 0.180990 0.549630 -0.511547
O13   O     O_R   0.693280 0.995650 0.447220 -0.487623
O14   O     O_R   0.657260 0.178740 0.451050 -0.490583
O15   O     O_R   0.502640 0.195380 0.446850 -0.513479
O16   O     O_R   0.319630 0.976590 0.450330 -0.491910
O17   O     O_R   0.303680 0.807790 0.552740 -0.462339
O18   O     O_R   0.522820 0.843620 0.549310 -0.514351
O19   O     O_R   0.694060 0.998080 0.553560 -0.473477
O20   O     O_3   0.801373 0.274351 0.719518 -0.565392
O21   O     O_3   0.137481 0.653270 0.608074 -0.553570
O22   O     O_3   0.498476 0.611269 0.868842 -0.559082
O23   O     O_R   0.503420 0.197810 0.553190 -0.506657
O24   O     O_3   0.838234 0.971378 0.615086 -0.577078
O25   O     O_3   0.216806 0.682290 0.179438 -0.573713
O26   O     O_R   0.320350 0.978840 0.548910 -0.514042
O27   O     O_3   0.499990 0.999990 0.500010 -0.269788
O28   O     O_R   0.819150 0.845650 0.033320 -0.506243
O29   O     O_R   0.006060 0.815720 0.028680 -0.493995
O30   O     O_R   0.028100 0.664460 0.032550 -0.503976
O31   O     O_R   0.811290 0.477490 0.029660 -0.495908

loop_
_geom_bond_atom_site_label_1
_geom_bond_atom_site_label_2
_ccdc_geom_bond_type
C25   C31   A    
C7    C10   S    
C87   C88   S    
C63   C65   A    
C50   H5    S    
C70   C78   S    
C77   O20   S    
C41   C42   A    
Cr3   O23   S    
C35   C36   A    
C30   I3    S    
C15   H1    S    
C75   C76   A    
C77   H21   S    
C61   H10   S    
Cr1   O1    S    
C31   H62   S    
C81   C82   S    
C39   C41   A    
C54   C60   A    
C85   C86   S    
C12   C23   A    
C26   C27   A    
C75   I1    S    
C5    C6    A    
C72   O7    A    
Cr3   O26   S    
C36   C37   A    
C28   O18   A    
C52   O17   A    
C5    O25   S    
Cr1   O4    S    
C91   H53   S    
Cr2   O19   S    
C71   O28   A    
C57   H13   S    
C27   C29   A    
C80   H26   S    
C68   C74   S    
C69   O30   A    
C17   C20   A    
C56   C78   T    
C18   C19   A    
C27   O20   S    
Cr4   O28   S    
C73   O9    A    
C92   C93   S    
C83   H35   S    
C90   H49   S    
C3    H18   S    
C54   C55   A    
C2    H17   S    
C61   C66   A    
C58   C66   S    
C84   H37   S    
Cr6   O11   S    
C2    C7    A    
C45   C56   S    
C16   O1    A    
C8    C9    S    
Cr5   O30   S    
C92   H54   S    
C82   H31   S    
Cr3   O16   S    
C83   H36   S    
C42   I4    S    
C86   H41   S    
C34   C75   A    
C87   O24   S    
Cr5   O7    S    
C39   C52   S    
C59   C60   A    
C47   H3    S    
C48   C53   A    
C4    O15   A    
C90   H50   S    
C17   H12   S    
C44   C46   A    
C50   C51   A    
Cr6   O2    S    
C77   C79   S    
C33   H45   S    
C15   C20   A    
C91   O25   S    
C14   H20   S    
C64   C67   T    
C19   C22   S    
C84   C85   S    
C10   C89   T    
C3    C8    A    
C91   C92   S    
C12   H9    S    
Cr5   O8    S    
C28   C54   S    
C16   O16   A    
C60   O24   S    
C49   H6    S    
C1    O4    A    
C25   C26   A    
C48   H4    S    
C79   H24   S    
C46   O21   S    
Cr4   O5    S    
C79   C80   S    
C55   H8    S    
C16   C89   S    
C52   O26   A    
Cr4   O29   S    
C43   C44   A    
C72   O6    A    
C29   C30   A    
Cr5   O11   S    
C1    O13   A    
Cr2   O13   S    
C81   H30   S    
C47   C48   A    
C62   H11   S    
C30   C31   A    
C23   C34   A    
C35   C38   A    
C17   C18   A    
Cr5   O31   S    
C32   C37   A    
Cr3   O15   S    
C93   H58   S    
C9    C11   T    
Cr2   O27   S    
C39   C46   A    
Cr2   O14   S    
C88   C90   S    
C84   H38   S    
C49   C50   A    
C63   O22   S    
C71   O3    A    
C55   C57   A    
C81   H29   S    
C58   C59   A    
C1    C13   S    
C42   C43   A    
C4    O14   A    
C93   H59   S    
C81   O21   S    
C86   H43   S    
Cr6   O3    S    
C86   H42   S    
C85   H40   S    
C63   C68   A    
C76   H61   S    
C87   H46   S    
C65   H14   S    
C14   C19   A    
C93   H57   S    
C12   C45   A    
C34   C67   S    
C5    C8    A    
C47   C51   A    
C90   H51   S    
C11   C69   S    
C6    C7    A    
C40   O23   A    
C80   H28   S    
C44   H7    S    
C26   H23   S    
C79   H25   S    
C4    C64   S    
C33   C38   A    
Cr4   O6    S    
C62   C68   A    
C32   C33   A    
Cr3   O27   S    
C2    C3    A    
C28   O19   A    
C74   O10   A    
C25   C40   S    
C70   O2    A    
C91   H52   S    
C18   I2    S    
C43   C51   S    
C57   C58   A    
C32   H34   S    
Cr6   O9    S    
C80   H27   S    
C59   H15   S    
C49   C53   A    
C45   C76   A    
C69   O29   A    
C88   H48   S    
C41   H2    S    
C13   C22   T    
C65   C66   A    
C73   O8    A    
C61   C62   A    
Cr1   O27   S    
C74   O5    A    
C35   H60   S    
C77   H22   S    
C23   H16   S    
C40   O12   A    
C83   H33   S    
Cr6   O10   S    
C20   C21   S    
C36   H56   S    
C70   O31   A    
C82   C83   S    
Cr1   O18   S    
C21   C24   T    
C29   C37   S    
Cr4   O11   S    
C88   H47   S    
C14   C15   A    
C84   O22   S    
C92   H55   S    
Cr1   O17   S    
C87   H44   S    
C82   H32   S    
C53   C72   S    
C85   H39   S    
C6    H19   S    
C24   C71   S    
C38   C73   S    
Cr2   O12   S    
