data_mof_unit_4903.cif
_audit_creation_date              2012-12-10T20:49:44-0500
_audit_creation_method            fapswitch 2.2
_symmetry_space_group_name_H-M    P1
_symmetry_Int_Tables_number       1
_space_group_crystal_system       triclinic
_cell_length_a                    8.621172
_cell_length_b                    9.400594
_cell_length_c                    18.557185
_cell_angle_alpha                 89.977547
_cell_angle_beta                  84.109976
_cell_angle_gamma                 90.106754
_cell_volume                      1496.0083948

loop_
_atom_site_label
_atom_site_type_symbol
_atom_type_description
_atom_site_fract_x
_atom_site_fract_y
_atom_site_fract_z
_atom_type_partial_charge
C1    C     C_R   0.500090 0.779642 0.500002 0.877979
C2    C     C_R   0.383081 0.499005 0.226730 -0.322147
C3    C     C_R   0.612152 0.495809 0.852563 0.447382
C4    C     C_R   0.388543 0.493401 0.147347 0.440725
C5    C     C_R   0.459809 0.496757 0.893590 -0.061650
C6    C     C_R   0.541041 0.495864 0.106502 -0.067208
C7    C     C_R   0.323582 0.488662 0.853264 -0.275698
C8    C     C_R   0.676754 0.487928 0.147010 -0.277264
C9    C     C_R   0.330345 0.487401 0.775538 0.154857
C10   C     C_R   0.669812 0.486755 0.224730 0.156856
C11   C     C_2   0.439869 0.502757 0.978208 0.439445
C12   C     C_R   0.499910 0.220359 0.499997 0.883201
C13   C     C_2   0.561058 0.503756 0.021935 0.431413
C14   C     C_3   0.118225 0.412595 0.129792 0.196556
C15   C     C_3   0.125575 0.257941 0.100640 -0.373541
C16   C     C_3   0.969433 0.186559 0.131927 -0.926769
C17   C     C_3   0.880564 0.413212 0.870144 0.188972
C18   C     C_3   0.869426 0.258470 0.899002 -0.376960
C19   C     C_3   0.024055 0.185867 0.867052 -0.918636
C20   C     C_3   0.798630 0.630613 0.999846 0.061169
C21   C     C_3   0.775094 0.757105 0.945338 -0.317978
C22   C     C_3   0.913726 0.857331 0.945124 -0.999295
C23   C     C_1   0.500108 0.934785 0.500002 -0.137975
C24   C     C_3   0.206808 0.631406 0.000646 0.054210
C25   C     C_3   0.238417 0.755504 0.054945 -0.263282
C26   C     C_3   0.094569 0.853610 0.061349 -0.975900
C27   C     C_1   0.499893 0.065219 0.499998 -0.136499
C28   C     C_R   0.480510 0.499610 0.650473 0.872961
C29   C     C_R   0.519481 0.499166 0.349554 0.872436
C30   C     C_R   0.476824 0.497471 0.734105 -0.098270
C31   C     C_R   0.523211 0.496328 0.265982 -0.099306
C32   C     C_R   0.617098 0.501254 0.773214 -0.324652
H1    H     H_    0.209401 0.477701 0.880969 0.157883
H2    H     H_    0.968959 0.070258 0.128261 0.265214
H3    H     H_    0.870061 0.226910 0.104377 0.266021
H4    H     H_    0.979292 0.459279 0.894009 0.161966
H5    H     H_    0.890225 0.395366 0.810763 0.165101
H6    H     H_    0.860146 0.251541 0.960834 0.236771
H7    H     H_    0.766306 0.204051 0.878974 0.214304
H8    H     H_    0.040771 0.206503 0.806734 0.283268
H9    H     H_    0.023930 0.069831 0.870894 0.268673
H10   H     H_    0.125097 0.226301 0.893524 0.266628
H11   H     H_    0.906146 0.586338 0.981069 0.181693
H12   H     H_    0.790706 0.476469 0.119464 0.157555
H13   H     H_    0.798370 0.665189 0.057789 0.115338
H14   H     H_    0.767416 0.737028 0.886193 0.285320
H15   H     H_    0.665494 0.816535 0.965648 0.174809
H16   H     H_    0.883456 0.881639 0.994183 0.271303
H17   H     H_    0.897623 0.960891 0.919567 0.280621
H18   H     H_    0.021347 0.781620 0.946648 0.264448
H19   H     H_    0.097199 0.594746 0.021308 0.196618
H20   H     H_    0.205844 0.666523 0.942830 0.084679
H21   H     H_    0.256838 0.734362 0.113723 0.274289
H22   H     H_    0.345452 0.816916 0.031413 0.153482
H23   H     H_    0.730857 0.514473 0.741931 0.197023
H24   H     H_    0.124229 0.879680 0.012779 0.265557
H25   H     H_    0.115738 0.955972 0.087224 0.247173
H26   H     H_    0.984599 0.858393 0.060808 0.247183
H27   H     H_    0.268972 0.511982 0.257823 0.197368
H28   H     H_    0.020906 0.460722 0.105712 0.164271
H29   H     H_    0.109248 0.393744 0.189151 0.163554
H30   H     H_    0.135308 0.251482 0.038783 0.238415
H31   H     H_    0.227288 0.201799 0.120847 0.214072
H32   H     H_    0.950816 0.207873 0.192169 0.284988
I1    I     I_    0.878912 0.446512 0.279902 -0.417183
I2    I     I_    0.121775 0.446211 0.720533 -0.421261
N1    N     N_1   0.926360 0.500000 0.499990 -0.019747
N2    N     N_1   0.073640 0.500000 0.500010 -0.019703
O1    O     O_R   0.363150 0.714660 0.500000 -0.611843
O2    O     O_3   0.767049 0.508366 0.890030 -0.603127
O3    O     O_3   0.698403 0.502762 0.986666 -0.620977
O4    O     O_3   0.302360 0.499374 0.012965 -0.621278
O5    O     O_R   0.636850 0.285340 0.500000 -0.608084
O6    O     O_R   0.636850 0.714660 0.500000 -0.611971
O7    O     O_R   0.363150 0.285340 0.500000 -0.608139
O8    O     O_R   0.346950 0.500000 0.615800 -0.578166
O9    O     O_R   0.653050 0.500000 0.384200 -0.578472
O10   O     O_R   0.620700 0.500000 0.615800 -0.627895
O11   O     O_R   0.379300 0.500000 0.384200 -0.627640
O12   O     O_3   0.233793 0.505612 0.109613 -0.601141
Zn1   Zn    Zn3+2 0.317220 0.500000 0.500010 1.053037
Zn2   Zn    Zn3+2 0.682780 0.500000 0.499990 1.052872

loop_
_geom_bond_atom_site_label_1
_geom_bond_atom_site_label_2
_ccdc_geom_bond_type
C24   H20   S    
C22   H16   S    
C1    O6    A    
C25   H21   S    
C5    C11   S    
C16   H3    S    
C15   C16   S    
C18   C19   S    
C9    I2    S    
C16   H2    S    
C10   C31   A    
C20   O3    S    
C17   H4    S    
C14   O12   S    
C28   O10   A    
C32   H23   S    
C20   H13   S    
C19   H10   S    
C22   H18   S    
C24   H19   S    
C17   O2    S    
C12   O5    A    
C7    H1    S    
O6    Zn2   S    
C12   C27   S    
N1    N2    T    
C3    O2    S    
C25   H22   S    
C4    C6    A    
C5    C7    A    
C11   O4    S    
O7    Zn1   S    
C6    C8    A    
C13   O3    S    
C25   C26   S    
C14   H29   S    
C1    O1    A    
C2    C31   A    
C2    C4    A    
C18   H7    S    
O10   Zn2   S    
C29   O11   A    
C17   C18   S    
C17   H5    S    
C24   C25   S    
C26   H26   S    
C9    C30   A    
C22   H17   S    
C1    C23   S    
C23   C27   T    
N2    Zn1   S    
C28   O8    A    
O5    Zn2   S    
C20   H11   S    
C24   O4    S    
O11   Zn1   S    
C21   H14   S    
C10   I1    S    
C7    C9    A    
C2    H27   S    
C8    H12   S    
C3    C5    A    
C26   H24   S    
O8    Zn1   S    
C4    O12   S    
C14   H28   S    
C28   C30   S    
C18   H6    S    
C29   C31   S    
C6    C13   S    
C30   C32   A    
C11   C13   D    
O9    Zn2   S    
C15   H30   S    
C3    C32   A    
C26   H25   S    
O1    Zn1   S    
C19   H8    S    
C29   O9    A    
C20   C21   S    
N1    Zn2   S    
C8    C10   A    
C12   O7    A    
C15   H31   S    
C14   C15   S    
C16   H32   S    
C21   C22   S    
C19   H9    S    
C21   H15   S    
