data_mof_unit_2001.cif
_audit_creation_date              2013-03-05T15:52:30-0500
_audit_creation_method            fapswitch 2.2
_symmetry_space_group_name_H-M    P1
_symmetry_Int_Tables_number       1
_space_group_crystal_system       triclinic
_cell_length_a                    6.948682
_cell_length_b                    20.48292
_cell_length_c                    24.381731
_cell_angle_alpha                 89.820704
_cell_angle_beta                  90.540211
_cell_angle_gamma                 89.485954
_cell_volume                      3469.92282015

loop_
_atom_site_label
_atom_site_type_symbol
_atom_site_description
_atom_site_fract_x
_atom_site_fract_y
_atom_site_fract_z
_atom_type_partial_charge
O1    O     O_R   0.507310 0.423620 0.460450 -0.591772
O2    O     O_R   0.170760 0.556060 0.437190 -0.587840
O3    O     O_R   0.004040 0.576380 0.539550 -0.590534
C1    C     C_R   0.338722 0.576143 0.421250 0.984186
O4    O     O_R   0.177350 0.422870 0.454070 -0.579500
O5    O     O_R   0.010680 0.442240 0.556560 -0.592411
C2    C     C_R   0.346060 0.398956 0.443261 0.971569
O6    O     O_R   0.500670 0.557760 0.443440 -0.589019
O7    O     O_3   0.340380 0.506510 0.533610 -0.278457
V1    V     V_3+5 0.064130 0.498790 0.493770 1.187963
O8    O     O_R   0.681170 0.443940 0.562810 -0.593935
C3    C     C_R   0.850927 0.423827 0.578644 0.981274
O9    O     O_R   0.674570 0.577130 0.545930 -0.591882
C4    C     C_R   0.842835 0.601167 0.556496 0.925701
V2    V     V_3+5 0.564560 0.501210 0.506230 1.175322
O10   O     O_3   0.838170 0.493490 0.466390 -0.264532
C5    C     C_R   0.974186 0.838577 0.910699 -0.111683
C6    C     C_R   0.848701 0.662367 0.588117 -0.080513
C7    C     C_R   0.995560 0.720874 0.907091 -0.168298
C8    C     C_R   0.998629 0.778534 0.937124 -0.157732
C9    C     C_R   0.948892 0.840755 0.853407 -0.229940
C10   C     C_R   0.949975 0.782546 0.821483 0.145556
C11   C     C_R   0.970834 0.722285 0.849875 0.175512
C12   C     C_R   0.928621 0.781836 0.762763 0.005940
C13   C     C_R   0.921273 0.721094 0.733950 0.072974
C14   C     C_R   0.938942 0.662748 0.764715 -0.178822
C15   C     C_R   0.965489 0.663571 0.821213 -0.239001
C16   C     C_R   0.922187 0.839889 0.731812 -0.299736
C17   C     C_R   0.890846 0.839968 0.675140 0.347903
C18   C     C_R   0.853964 0.780584 0.647431 -0.017525
C19   C     C_R   0.891052 0.720542 0.675575 0.079692
C20   C     C_R   0.784391 0.778897 0.592133 -0.056528
C21   C     C_R   0.788346 0.720197 0.563045 -0.247280
C22   C     C_R   0.895870 0.662129 0.644085 -0.203865
H1    H     H_    0.979137 0.617423 0.842879 0.131149
H2    H     H_    0.936277 0.615586 0.661605 0.089816
H3    H     H_    0.737966 0.719003 0.520792 0.132820
H4    H     H_    0.012742 0.674855 0.928735 0.126158
H5    H     H_    0.019204 0.776319 0.981206 0.117740
H6    H     H_    0.927142 0.888373 0.835338 0.121738
H7    H     H_    0.929546 0.615063 0.746514 0.123994
H8    H     H_    0.950952 0.886442 0.750407 0.184518
C23   C     C_3   0.770779 0.259277 0.802830 -0.408519
C24   C     C_3   0.119068 0.242425 0.781338 -0.394420
C25   C     C_3   0.100195 0.292158 0.733148 -0.389758
H9    H     H_    0.773466 0.358650 0.769083 0.157146
H10   H     H_    0.811901 0.286500 0.840534 0.165862
H11   H     H_    0.235416 0.206503 0.772260 0.155497
H12   H     H_    0.162523 0.268584 0.819371 0.159835
H13   H     H_    0.134345 0.341967 0.748289 0.154215
H14   H     H_    0.207422 0.279810 0.701088 0.159789
C26   C     C_1   0.863571 0.378156 0.624216 -0.272306
C27   C     C_3   0.926226 0.206362 0.790520 0.301998
C28   C     C_3   0.749154 0.308098 0.754102 -0.396919
C29   C     C_3   0.894063 0.291598 0.708032 0.392480
C30   C     C_3   0.851944 0.221371 0.687766 -0.446745
C31   C     C_3   0.873373 0.170839 0.735746 -0.208725
C32   C     C_1   0.876504 0.339434 0.662001 -0.071913
C33   C     C_1   0.946265 0.159441 0.837264 -0.069887
C34   C     C_1   0.960296 0.121295 0.875423 -0.254333
H15   H     H_    0.994499 0.137026 0.725635 0.177291
H16   H     H_    0.704934 0.220154 0.669186 0.162352
H17   H     H_    0.629740 0.236297 0.811257 0.142469
H18   H     H_    0.599403 0.306303 0.737581 0.154770
H19   H     H_    0.953952 0.208155 0.654577 0.195595
C35   C     C_3   0.550412 0.686645 0.253659 -0.376212
C36   C     C_3   0.201125 0.714081 0.257053 -0.401927
C37   C     C_3   0.222850 0.765978 0.210351 -0.144466
H20   H     H_    0.568614 0.711023 0.166108 0.205665
H21   H     H_    0.512598 0.638384 0.235881 0.189771
H22   H     H_    0.075003 0.727045 0.282711 0.129057
H23   H     H_    0.169430 0.664942 0.239973 0.196233
H24   H     H_    0.123937 0.807441 0.219889 0.096632
C38   C     C_1   0.475520 0.878678 0.124851 -0.277275
C39   C     C_3   0.387687 0.709850 0.292824 0.204893
C40   C     C_3   0.580345 0.736301 0.206225 -0.355504
C41   C     C_3   0.432686 0.793504 0.209417 0.299212
C42   C     C_3   0.468309 0.828249 0.265107 -0.456239
C43   C     C_3   0.435352 0.780432 0.315408 -0.122424
C44   C     C_1   0.459249 0.840558 0.162954 -0.078101
C45   C     C_1   0.363667 0.661011 0.338184 -0.084854
C46   C     C_1   0.348436 0.621991 0.375661 -0.248820
H25   H     H_    0.617790 0.847530 0.265485 0.157571
H26   H     H_    0.687915 0.678921 0.276497 0.139263
H27   H     H_    0.729261 0.755741 0.208808 0.133633
H28   H     H_    0.375865 0.872685 0.266860 0.213821
C47   C     C_R   0.469888 0.161578 0.089416 -0.098839
C48   C     C_R   0.349685 0.337687 0.411568 -0.172552
C49   C     C_R   0.501068 0.278859 0.093697 -0.157562
C50   C     C_R   0.511233 0.220928 0.064130 -0.174950
C51   C     C_R   0.423883 0.160330 0.145505 -0.233945
C52   C     C_R   0.415199 0.218929 0.176985 0.108488
C53   C     C_R   0.451824 0.278479 0.149447 0.195881
C54   C     C_R   0.372700 0.220666 0.234530 0.044260
C55   C     C_R   0.367960 0.281810 0.263328 0.064362
C56   C     C_R   0.372379 0.340300 0.231363 -0.046752
C57   C     C_R   0.428537 0.337793 0.176573 -0.331481
C58   C     C_R   0.329500 0.163406 0.263921 -0.193823
C59   C     C_R   0.291291 0.164755 0.319614 -0.118475
C60   C     C_R   0.308836 0.222293 0.349992 -0.029109
C61   C     C_R   0.354121 0.281506 0.322393 0.108928
C62   C     C_R   0.278744 0.221990 0.407533 0.357133
C63   C     C_R   0.290896 0.280307 0.436925 -0.255002
C64   C     C_R   0.390400 0.337426 0.355308 -0.137231
H29   H     H_    0.440203 0.382950 0.153448 0.135228
H30   H     H_    0.448864 0.381509 0.338096 0.112193
H31   H     H_    0.259983 0.280513 0.480429 0.156525
H32   H     H_    0.250253 0.119328 0.338714 0.188725
H33   H     H_    0.529505 0.324392 0.072632 0.118713
H34   H     H_    0.548440 0.222499 0.021089 0.108455
H35   H     H_    0.397662 0.112969 0.163077 0.104014
H36   H     H_    0.318849 0.116308 0.244743 0.135908
O11   O     O_R   0.323590 0.942280 0.056590 -0.592288
O12   O     O_R   0.647030 0.077140 0.045940 -0.591800
O13   O     O_R   0.813570 0.057750 0.943430 -0.588418
C65   C     C_R   0.478074 0.100965 0.056892 0.923017
O14   O     O_R   0.653510 0.943950 0.062820 -0.592250
O15   O     O_R   0.820100 0.923600 0.960440 -0.587571
C66   C     C_R   0.485526 0.923914 0.078809 0.978536
O16   O     O_R   0.317060 0.076430 0.039590 -0.590340
O17   O     O_3   0.483830 0.993520 0.966410 -0.265088
V3    V     V_3+5 0.760140 0.001200 0.006230 1.170898
O18   O     O_R   0.149560 0.922820 0.954030 -0.588041
C67   C     C_R   0.981160 0.899006 0.943248 0.934648
O19   O     O_R   0.143080 0.056020 0.937150 -0.590977
C68   C     C_R   0.973285 0.076076 0.921287 0.981476
V4    V     V_3+5 0.259690 0.998730 0.993720 1.174376
O20   O     O_3   0.986120 0.006480 0.033580 -0.274430
C69   C     C_2   0.684362 0.834481 0.564640 0.656377
H37   H     H_    0.688118 0.839003 0.520281 0.060659
O21   O     O_2   0.586817 0.873155 0.590656 -0.503512
C70   C     C_2   0.693447 0.130386 0.740706 0.617025
H38   H     H_    0.554758 0.153866 0.746715 -0.026312
O22   O     O_2   0.702206 0.070970 0.737575 -0.517973
C71   C     C_2   0.156401 0.739751 0.155474 0.492468
H39   H     H_    0.049974 0.766944 0.131605 0.001529
O23   O     O_2   0.222364 0.689004 0.137034 -0.587782
C72   C     C_2   0.619873 0.778223 0.349985 0.493810
H40   H     H_    0.756782 0.768463 0.330454 0.034479
O24   O     O_2   0.619252 0.787807 0.399448 -0.596465
C73   C     C_2   0.269574 0.803714 0.351744 0.627003
H41   H     H_    0.238243 0.776944 0.389075 0.034915
O25   O     O_2   0.168654 0.850959 0.340015 -0.582831
N1    N     N_R   0.921188 0.899936 0.645746 0.260218
O26   O     O_R   0.030353 0.900264 0.602654 -0.343027
O27   O     O_R   0.866769 0.955385 0.666710 -0.291719
C74   C     C_2   0.288654 0.403570 0.249095 0.485735
H42   H     H_    0.346042 0.449000 0.233383 0.015705
O28   O     O_2   0.147291 0.405489 0.278462 -0.580560
N2    N     N_R   0.235738 0.163099 0.436944 0.236073
O29   O     O_R   0.102757 0.163646 0.474169 -0.350415
O30   O     O_R   0.353246 0.113378 0.434656 -0.342661

loop_
_geom_bond_atom_site_label_1
_geom_bond_atom_site_label_2
_geom_bond_distance
_ccdc_geom_bond_type
C24   H12   1.113060 S    
C13   C19   1.436838 A    
C29   C30   1.551833 S    
C47   C51   1.407542 A    
C4    C6    1.474390 S    
C31   C70   1.511663 S    
O2    C1    1.303298 A    
C55   C56   1.427915 A    
C1    O6    1.296335 A    
O14   C66   1.303484 A    
C64   H30   1.078837 S    
C45   C46   1.218088 T    
C27   C33   1.493221 S    
O16   V4    1.989167 S    
C23   H17   1.111625 S    
C71   H39   1.085490 S    
C43   C73   1.533391 S    
C41   C42   1.553812 S    
C59   H32   1.080983 S    
C14   C15   1.388255 A    
O13   C68   1.296749 A    
C10   C12   1.438109 A    
C16   C17   1.396767 A    
C74   O28   1.221425 D    
O17   V4    1.702210 S    
C73   O25   1.221610 D    
O5    C3    1.296897 A    
C18   C19   1.426692 A    
C54   C58   1.408662 A    
V2    O10   2.147934 S    
C49   H33   1.083940 S    
C5    C8    1.394891 A    
C30   C31   1.564727 S    
H20   C40   1.110795 S    
C36   H23   1.113493 S    
O15   V3    1.988581 S    
C51   H35   1.076964 S    
C52   C53   1.416694 A    
C23   C28   1.555828 S    
C74   H42   1.085814 S    
C48   C64   1.403221 A    
O11   C66   1.296456 A    
O8    V2    1.971658 S    
C42   H25   1.114518 S    
C23   C27   1.555219 S    
C7    C8    1.391795 A    
C70   H38   1.084562 S    
O1    V2    1.985949 S    
C11   C15   1.393436 A    
C23   H10   1.113010 S    
O7    V1    2.150481 S    
C22   H2    1.077275 S    
C57   H29   1.085776 S    
C42   H28   1.110472 S    
C33   C34   1.215723 T    
O13   V3    1.957384 S    
C38   C44   1.218417 T    
O9    C4    1.296652 A    
C49   C53   1.404832 A    
C62   C63   1.397705 A    
C24   C27   1.553625 S    
C60   C62   1.420393 A    
C20   C69   1.483557 S    
C3    C26   1.451752 S    
C58   H36   1.076206 S    
C36   C37   1.564582 S    
O18   C67   1.296742 A    
C12   C13   1.431791 A    
N1    O27   1.301449 A    
C51   C52   1.427864 A    
O4    C2    1.296161 A    
C8    H5    1.083678 S    
C27   C31   1.565083 S    
C42   C43   1.586702 S    
C39   C45   1.500431 S    
C15   H1    1.084372 S    
C37   H24   1.114247 S    
C17   N1    1.438350 S    
C14   H7    1.076344 S    
C21   H3    1.085339 S    
C65   O16   1.298015 A    
C7    C11   1.404126 A    
O14   V3    1.962799 S    
C17   C18   1.417427 A    
C38   C66   1.455930 S    
C7    H4    1.083942 S    
C30   H19   1.113219 S    
C5    C67   1.473353 S    
O18   V4    1.989085 S    
C2    C48   1.475986 S    
C35   C40   1.554439 S    
C56   C57   1.396215 A    
H9    C28   1.112857 S    
C52   C54   1.437000 A    
C47   C65   1.476213 S    
C19   C22   1.423967 A    
N2    O30   1.301288 A    
O15   C67   1.296929 A    
C40   C41   1.553107 S    
C6    C22   1.400392 A    
O17   V3    2.150569 S    
O3    C4    1.297335 A    
C26   C32   1.215923 T    
C62   N2    1.436548 S    
O6    V2    1.961982 S    
O9    V2    1.989045 S    
O19   C68   1.300802 A    
C72   O24   1.222529 D    
C30   H16   1.114072 S    
C29   C32   1.490946 S    
C36   C39   1.557200 S    
C50   H34   1.083596 S    
V4    O20   2.147954 S    
O2    V1    1.962872 S    
C53   C57   1.393974 A    
C48   C63   1.392587 A    
C24   C25   1.556475 S    
C69   H37   1.085786 S    
C41   C44   1.498858 S    
C37   C41   1.568345 S    
C71   O23   1.221051 D    
C56   C74   1.483085 S    
C28   C29   1.551600 S    
O1    C2    1.299595 A    
C37   C71   1.513045 S    
C12   C16   1.406490 A    
N1    O26   1.301687 A    
O5    V1    1.957219 S    
O12   C65   1.297779 A    
O8    C3    1.300732 A    
C31   H15   1.115063 S    
O11   V4    1.962315 S    
C61   C64   1.423611 A    
N2    O29   1.301313 A    
C59   C60   1.399547 A    
C20   C21   1.398039 A    
C34   C68   1.451420 S    
C13   C14   1.412789 A    
O4    V1    1.993975 S    
O3    V1    1.988464 S    
V1    O10   1.704840 S    
C73   H41   1.085938 S    
C18   C20   1.428636 A    
C35   H21   1.113236 S    
C9    H6    1.077784 S    
C28   H18   1.113231 S    
C25   H13   1.112881 S    
C35   C39   1.558798 S    
C16   H8    1.076662 S    
C60   C61   1.424294 A    
C36   H22   1.112250 S    
V3    O20   1.704657 S    
C54   C55   1.437984 A    
C6    C21   1.390826 A    
C5    C9    1.406764 A    
C72   H40   1.085132 S    
C35   H26   1.111166 S    
O12   V3    1.994111 S    
C24   H11   1.112515 S    
C43   C72   1.528099 S    
C1    C46   1.455336 S    
C25   C29   1.552592 S    
C70   O22   1.220647 D    
C58   C59   1.386379 A    
C47   C50   1.394776 A    
O19   V4    1.971730 S    
C25   H14   1.113095 S    
C10   C11   1.418908 A    
C63   H31   1.084222 S    
C49   C50   1.391941 A    
C9    C10   1.425921 A    
C39   C43   1.585295 S    
C40   H27   1.113365 S    
C55   C61   1.444211 A    
O7    V2    1.703254 S    
C69   O21   1.221029 D    
