data_mof_unit_2212.cif
_audit_creation_date              2013-03-05T15:42:22-0500
_audit_creation_method            fapswitch 2.2
_symmetry_space_group_name_H-M    P1
_symmetry_Int_Tables_number       1
_space_group_crystal_system       triclinic
_cell_length_a                    16.880751
_cell_length_b                    16.74545
_cell_length_c                    19.432237
_cell_angle_alpha                 117.852267
_cell_angle_beta                  62.298116
_cell_angle_gamma                 100.959831
_cell_volume                      4297.43241562

loop_
_atom_site_label
_atom_site_type_symbol
_atom_site_description
_atom_site_fract_x
_atom_site_fract_y
_atom_site_fract_z
_atom_type_partial_charge
C1    C     C_R   0.023852 0.761623 0.028535 -0.123787
H1    H     H_    0.054971 0.811794 0.067667 0.100858
N1    N     N_R   0.036080 0.671900 0.995420 -0.040140
C2    C     C_R   0.748380 0.479354 0.172013 -0.127680
H2    H     H_    0.695393 0.456989 0.151636 0.097653
N2    N     N_R   0.834710 0.454650 0.119760 -0.041804
C3    C     C_R   0.816780 0.509504 0.911841 -0.133738
H3    H     H_    0.840068 0.531105 0.861348 0.084243
N3    N     N_R   0.867430 0.509300 0.948100 -0.038064
C4    C     C_R   0.012244 0.659428 0.240672 -0.138485
H4    H     H_    0.997903 0.628015 0.282533 0.087105
N4    N     N_R   0.003360 0.617250 0.167070 -0.039564
C5    C     C_R   0.749715 0.430562 0.987729 -0.140189
N5    N     N_R   0.825450 0.461270 0.995400 -0.039088
C6    C     C_R   0.079438 0.738215 0.164703 -0.140748
H5    H     H_    0.127101 0.779961 0.136739 0.101964
N6    N     N_R   0.045340 0.665280 0.119770 -0.039210
C7    C     C_R   0.827660 0.549156 0.248588 -0.132731
H6    H     H_    0.848117 0.591636 0.299200 0.096353
N7    N     N_R   0.883740 0.497640 0.167070 -0.041860
C8    C     C_R   0.944752 0.691898 0.951593 -0.129305
H7    H     H_    0.901251 0.677336 0.920643 0.093939
N8    N     N_R   0.987050 0.628910 0.948110 -0.039953
C9    C     C_R   0.965296 0.776897 0.003106 0.055097
C10   C     C_R   0.741724 0.540775 0.253546 0.075150
C11   C     C_R   0.742383 0.459143 0.934599 0.069147
C12   C     C_R   0.061047 0.735892 0.241076 0.076219
C13   C     C_R   0.261385 0.515191 0.958947 -0.113736
H8    H     H_    0.309189 0.542899 0.915858 0.096092
N9    N     N_R   0.174550 0.538730 0.004600 -0.041121
C14   C     C_R   0.978584 0.247248 0.827384 -0.124364
H9    H     H_    0.955579 0.193193 0.846550 0.092212
N10   N     N_R   0.954660 0.334720 0.880230 -0.040947
C15   C     C_R   0.157962 0.511438 0.759378 -0.144792
H10   H     H_    0.127069 0.496675 0.717149 0.087802
N11   N     N_R   0.116260 0.502360 0.832930 -0.039030
C16   C     C_R   0.025144 0.313306 0.076525 -0.134117
H11   H     H_    0.051240 0.331328 0.123044 0.095972
N12   N     N_R   0.012950 0.371090 0.051890 -0.040558
C17   C     C_R   0.946984 0.244969 0.001416 -0.133565
H12   H     H_    0.900704 0.199724 0.978412 0.091074
N13   N     N_R   0.963920 0.328100 0.004580 -0.039943
C18   C     C_R   0.236637 0.580277 0.835285 -0.145889
H13   H     H_    0.278151 0.628797 0.862932 0.093210
N14   N     N_R   0.165290 0.545350 0.880240 -0.039293
C19   C     C_R   0.194158 0.436786 0.036374 -0.127195
H14   H     H_    0.181028 0.391505 0.065242 0.093273
N15   N     N_R   0.132570 0.490700 0.051900 -0.040441
C20   C     C_R   0.047534 0.326762 0.751342 -0.131058
H15   H     H_    0.089115 0.347795 0.701102 0.097166
N16   N     N_R   0.996640 0.382750 0.832930 -0.041460
Ni1   Ni    Ni4+2 0.104370 0.604370 0.000010 0.220282
Ni2   Ni    Ni4+2 0.895630 0.395630 0.999990 0.212572
Ni3   Ni    Ni4+2 0.991920 0.505780 0.891500 0.211591
Ni4   Ni    Ni4+2 0.008080 0.494220 0.108500 0.213005
C21   C     C_R   0.275805 0.448596 0.975702 0.058011
C22   C     C_R   0.039779 0.240349 0.746027 0.071097
C23   C     C_R   0.233992 0.560597 0.758812 0.085841
C24   C     C_R   0.985745 0.232140 0.044890 0.071958
C25   C     C_R   0.141717 0.161475 0.589624 -0.209526
C26   C     C_R   0.085819 0.157628 0.668610 0.107277
C27   C     C_R   0.066234 0.073374 0.670914 -0.256283
C28   C     C_R   0.087327 0.994435 0.594229 0.154399
C29   C     C_R   0.131131 0.000190 0.514741 0.035992
C30   C     C_R   0.162863 0.083273 0.512405 0.081934
C31   C     C_R   0.056513 0.911411 0.596181 -0.205018
C32   C     C_R   0.059448 0.837010 0.521189 -0.213364
C33   C     C_R   0.093033 0.845460 0.444054 0.172985
C34   C     C_R   0.134126 0.925495 0.439220 0.002205
C35   C     C_R   0.168847 0.934258 0.361439 -0.043266
C36   C     C_R   0.212445 0.014004 0.357019 0.345033
C37   C     C_R   0.207690 0.088478 0.433387 -0.319545
C38   C     C_R   0.077459 0.779136 0.374916 -0.247612
C39   C     C_R   0.098529 0.793702 0.302880 0.088759
C40   C     C_R   0.149256 0.868095 0.294073 -0.168609
H16   H     H_    0.162185 0.225555 0.586902 0.119302
H17   H     H_    0.024330 0.905726 0.656604 0.130348
H18   H     H_    0.029464 0.775074 0.524992 0.128172
H19   H     H_    0.041466 0.720542 0.381589 0.113104
H20   H     H_    0.166232 0.878929 0.238369 0.157591
H21   H     H_    0.235763 0.151714 0.431619 0.180229
C41   C     C_R   0.281542 0.570324 0.620869 -0.256620
C42   C     C_R   0.293337 0.595325 0.695269 0.112137
C43   C     C_R   0.367051 0.646576 0.704596 -0.256097
C44   C     C_R   0.434758 0.661462 0.635773 0.141004
C45   C     C_R   0.427349 0.626629 0.557555 0.028675
C46   C     C_R   0.348577 0.584788 0.551493 0.138784
C47   C     C_R   0.513354 0.702959 0.641241 -0.202153
C48   C     C_R   0.587582 0.701563 0.567241 -0.203701
C49   C     C_R   0.583597 0.658603 0.487396 0.141136
C50   C     C_R   0.501926 0.625289 0.483200 0.027716
C51   C     C_R   0.497310 0.582175 0.403184 0.135867
C52   C     C_R   0.415877 0.549206 0.399517 -0.192614
C53   C     C_R   0.341725 0.550408 0.473469 -0.198419
C54   C     C_R   0.661608 0.639774 0.411016 -0.254657
C55   C     C_R   0.658990 0.585219 0.331033 0.114136
C56   C     C_R   0.575924 0.564083 0.327475 -0.248044
H22   H     H_    0.223963 0.533262 0.613388 0.118015
H23   H     H_    0.376055 0.669053 0.762402 0.120396
H24   H     H_    0.519302 0.731307 0.701403 0.133569
H25   H     H_    0.649636 0.728685 0.571477 0.131100
H26   H     H_    0.724662 0.660765 0.414866 0.118780
H27   H     H_    0.572200 0.526201 0.266306 0.120611
H28   H     H_    0.411197 0.517104 0.338545 0.135308
H29   H     H_    0.280989 0.519377 0.468381 0.133789
C57   C     C_R   0.675123 0.431392 0.900563 0.127671
C58   C     C_R   0.362227 0.404258 0.940130 0.127519
C59   C     C_R   0.454582 0.328804 0.958628 -0.217135
C60   C     C_R   0.370642 0.347554 0.971682 -0.165414
C61   C     C_R   0.439300 0.429190 0.883570 -0.269360
C62   C     C_R   0.522604 0.416437 0.875509 0.186318
C63   C     C_R   0.529475 0.369534 0.916916 0.183849
C64   C     C_R   0.607363 0.374149 0.925829 -0.275282
C65   C     C_R   0.671893 0.469590 0.851049 -0.170045
C66   C     C_R   0.596420 0.460464 0.837000 -0.216563
H30   H     H_    0.609862 0.340951 0.960960 0.118529
H31   H     H_    0.724333 0.511689 0.828156 0.115185
H32   H     H_    0.459405 0.290747 0.988942 0.135233
H33   H     H_    0.592429 0.495537 0.803806 0.128456
H34   H     H_    0.312668 0.323275 0.011880 0.121435
H35   H     H_    0.434633 0.468315 0.854301 0.118974
C67   C     C_R   0.802791 0.187155 0.189925 0.113554
C68   C     C_R   0.927543 0.865435 0.029800 0.127681
C69   C     C_R   0.845915 0.954825 0.012374 -0.218466
C70   C     C_R   0.886288 0.873074 0.984597 -0.167810
C71   C     C_R   0.929137 0.942158 0.102780 -0.268335
C72   C     C_R   0.888317 0.024431 0.131364 0.183123
C73   C     C_R   0.845707 0.030582 0.086107 0.185004
C74   C     C_R   0.802971 0.112240 0.115994 -0.268417
C75   C     C_R   0.845439 0.181441 0.234260 -0.163778
C76   C     C_R   0.888129 0.100482 0.205275 -0.215010
H36   H     H_    0.769735 0.118275 0.082458 0.125703
H37   H     H_    0.845126 0.239918 0.291314 0.125099
H38   H     H_    0.920466 0.097179 0.240770 0.135935
H39   H     H_    0.884888 0.815807 0.927606 0.115544
H40   H     H_    0.959850 0.937620 0.138956 0.125369
H41   H     H_    0.027457 0.068875 0.731547 0.118755
N17   N     N_R   0.258734 0.021552 0.276811 0.233557
O1    O     O_R   0.309907 0.954879 0.207077 -0.406686
O2    O     O_R   0.260827 0.099124 0.275839 -0.406021
H42   H     H_    0.814118 0.958538 0.976625 0.128858
H43   H     H_    0.711507 0.379636 0.007884 0.089113

loop_
_geom_bond_atom_site_label_1
_geom_bond_atom_site_label_2
_geom_bond_distance
_ccdc_geom_bond_type
C4    C12   1.383384 A    
N15   Ni4   1.861984 S    
C53   H29   1.083815 S    
C52   C53   1.393742 A    
C41   H22   1.081075 S    
C38   C39   1.403083 A    
N1    N8    1.382366 A    
C62   C63   1.410543 A    
C18   H13   1.079613 S    
C76   H38   1.083511 S    
C73   C74   1.403937 A    
C11   C57   1.467273 S    
C65   C66   1.389758 A    
C13   C21   1.387452 A    
C49   C54   1.392813 A    
C44   C45   1.409507 A    
C7    C10   1.392372 A    
C71   C72   1.404100 A    
C3    C11   1.383248 A    
C57   C65   1.405347 A    
N9    N15   1.364668 A    
C13   H8    1.077034 S    
C1    H1    1.080111 S    
C45   C50   1.400822 A    
N13   Ni2   1.816907 S    
C68   C70   1.407326 A    
C41   C46   1.392544 A    
C46   C53   1.402038 A    
C20   C22   1.386573 A    
C59   C60   1.389717 A    
C52   H28   1.083857 S    
C3    N3    1.338281 A    
C15   H10   1.079710 S    
C61   C62   1.387731 A    
C18   C23   1.384725 A    
N12   Ni4   1.824612 S    
C16   C24   1.386810 A    
C54   C55   1.404974 A    
C33   C34   1.410599 A    
C20   N16   1.334796 A    
N4    N6    1.364670 A    
C14   N10   1.340537 A    
C35   C36   1.416676 A    
C36   N17   1.438777 S    
C12   C39   1.472115 S    
C40   H20   1.077986 S    
C67   C74   1.396808 A    
C7    N7    1.337569 A    
C37   H21   1.084016 S    
C54   H26   1.081347 S    
C69   C73   1.400311 A    
C64   H30   1.080342 S    
C70   H39   1.081678 S    
C17   N13   1.344770 A    
C31   C32   1.392195 A    
C28   C31   1.400301 A    
C71   H40   1.082821 S    
C17   C24   1.387421 A    
C5    N5    1.332929 A    
C58   C60   1.404959 A    
C34   C35   1.414367 A    
C32   H18   1.083773 S    
N7    Ni4   1.862253 S    
N6    Ni1   1.860549 S    
C63   C64   1.387556 A    
C51   C56   1.392298 A    
C2    C10   1.391585 A    
N12   N13   1.382366 A    
N10   Ni2   1.860548 S    
C19   N15   1.340788 A    
C39   C40   1.404203 A    
C57   C64   1.403204 A    
C32   C33   1.402036 A    
C65   H31   1.080790 S    
C59   H32   1.083922 S    
C3    H3    1.080288 S    
C43   C44   1.392500 A    
C2    N2    1.336744 A    
N17   O1    1.301432 A    
C50   C51   1.409736 A    
C45   C46   1.409699 A    
C7    H6    1.077586 S    
C68   C71   1.407982 A    
N14   Ni1   1.860916 S    
C33   C38   1.389512 A    
C5    H43   1.079203 S    
C25   H16   1.081051 S    
C9    C68   1.485489 S    
C59   C63   1.398731 A    
C25   C26   1.404669 A    
C1    N1    1.343547 A    
N3    N5    1.364671 A    
C21   C58   1.467005 S    
C16   H11   1.080307 S    
C6    C12   1.386143 A    
C42   C43   1.405725 A    
C55   C56   1.405293 A    
C27   C28   1.392761 A    
C38   H19   1.080578 S    
N11   N14   1.382366 A    
C47   H24   1.083818 S    
C29   C34   1.400223 A    
C18   N14   1.336830 A    
C56   H27   1.081211 S    
C4    N4    1.334994 A    
C10   C55   1.471260 S    
C17   H12   1.080440 S    
C25   C30   1.391968 A    
C41   C42   1.405514 A    
C66   H33   1.083955 S    
C8    N8    1.342257 A    
C58   C61   1.402756 A    
C5    C11   1.383244 A    
C75   H37   1.081761 S    
N2    Ni2   1.860916 S    
C72   C73   1.415043 A    
N8    Ni3   1.824612 S    
C44   C47   1.402121 A    
C6    N6    1.337496 A    
C31   H17   1.083755 S    
N9    Ni1   1.817860 S    
C19   H14   1.075510 S    
C48   H25   1.083810 S    
C43   H23   1.080976 S    
C14   H9    1.075047 S    
C2    H2    1.077249 S    
N1    Ni1   1.816908 S    
C22   C26   1.470081 S    
N17   O2    1.301446 A    
N10   N16   1.364670 A    
C30   C37   1.399163 A    
N2    N7    1.382366 A    
N16   Ni3   1.825725 S    
C29   C30   1.406278 A    
C74   H36   1.082918 S    
C13   N9    1.332292 A    
C75   C76   1.398244 A    
C36   C37   1.400706 A    
C61   H35   1.080925 S    
C23   C42   1.471666 S    
C14   C22   1.391459 A    
C49   C50   1.410018 A    
C51   C52   1.401878 A    
C15   N11   1.337296 A    
C27   H41   1.081447 S    
C26   C27   1.403491 A    
C69   H42   1.083648 S    
C72   C76   1.404581 A    
N4    Ni4   1.825725 S    
N11   Ni3   1.862251 S    
C4    H4    1.079504 S    
C28   C29   1.411395 A    
N5    Ni2   1.817862 S    
C47   C48   1.393888 A    
C1    C9    1.398217 A    
C16   N12   1.344622 A    
C20   H15   1.077039 S    
C8    C9    1.397129 A    
C19   C21   1.390017 A    
C35   C40   1.399479 A    
C15   C23   1.385128 A    
C62   C66   1.398373 A    
N3    Ni3   1.861983 S    
C48   C49   1.401818 A    
C8    H7    1.079789 S    
C67   C75   1.396257 A    
C6    H5    1.079776 S    
C60   H34   1.080710 S    
C69   C70   1.397195 A    
