data_mof_unit_2346.cif
_audit_creation_date              2012-10-26T21:02:37-0400
_audit_creation_method            fapswitch 2.2
_symmetry_space_group_name_H-M    P1
_symmetry_Int_Tables_number       1
_space_group_crystal_system       triclinic
_cell_length_a                    12.324564
_cell_length_b                    13.175011
_cell_length_c                    15.086297
_cell_angle_alpha                 77.669841
_cell_angle_beta                  101.315656
_cell_angle_gamma                 116.562239
_cell_volume                      2126.28387381

loop_
_atom_site_label
_atom_site_type_symbol
_atom_type_description
_atom_site_fract_x
_atom_site_fract_y
_atom_site_fract_z
_atom_type_partial_charge
C1    C     C_R   0.854882 0.286540 0.507954 0.525294
C2    C     C_R   0.909688 0.522575 0.796723 0.349141
C3    C     C_R   0.998054 0.500014 0.768203 -0.004495
C4    C     C_R   0.999349 0.499908 0.671247 0.566766
C5    C     C_R   0.086221 0.477428 0.832928 -0.196064
C6    C     C_R   0.275456 0.021412 0.377920 -0.127117
C7    C     C_R   0.228004 0.834569 0.467554 0.005478
C8    C     C_R   0.815459 0.085037 0.567386 -0.132105
C9    C     C_R   0.736723 0.970084 0.585118 -0.134053
C10   C     C_R   0.613382 0.932420 0.552981 -0.102480
C11   C     C_R   0.566559 0.009282 0.498813 0.039001
C12   C     C_R   0.088864 0.477526 0.111430 0.018673
C13   C     C_R   0.650003 0.123727 0.471857 0.023680
C14   C     C_R   0.439900 0.976043 0.469622 0.038661
C15   C     C_R   0.400171 0.053293 0.407270 0.052334
C16   C     C_R   0.145083 0.713437 0.486499 0.552509
C17   C     C_R   0.485428 0.160393 0.373146 -0.138173
C18   C     C_R   0.608552 0.194520 0.403789 -0.121309
C19   C     C_R   0.351097 0.868465 0.501182 -0.112620
C20   C     C_R   0.189682 0.912110 0.407442 -0.130823
C21   C     C_R   0.773025 0.163471 0.512948 -0.001503
C22   C     C_R   0.349191 0.331448 0.646180 -0.145286
C23   C     C_R   0.822375 0.543867 0.011046 -0.155717
C24   C     C_R   0.761628 0.645920 0.376484 -0.018269
C25   C     C_R   0.667672 0.680623 0.349984 -0.111545
C26   C     C_R   0.563851 0.628283 0.395663 0.353639
C27   C     C_R   0.552107 0.537781 0.469413 -0.003972
C28   C     C_R   0.000447 0.500107 0.328888 0.550026
C29   C     C_R   0.652823 0.506583 0.494559 0.138068
C30   C     C_R   0.447312 0.477594 0.520113 -0.003961
C31   C     C_R   0.448124 0.391057 0.594568 0.025104
C32   C     C_R   0.547465 0.363805 0.617599 -0.137791
C33   C     C_R   0.646988 0.419938 0.568722 -0.030846
C34   C     C_R   0.821727 0.544110 0.918615 -0.103521
C35   C     C_R   0.340520 0.497564 0.501111 0.066358
C36   C     C_R   0.248628 0.356773 0.624364 0.039808
C37   C     C_R   0.088955 0.477916 0.203793 -0.124603
C38   C     C_R   0.000667 0.499917 0.232155 -0.011005
C39   C     C_R   0.911944 0.521773 0.167761 -0.137178
C40   C     C_R   0.910781 0.521865 0.075353 0.012875
C41   C     C_R   0.999450 0.499646 0.046887 0.065813
C42   C     C_R   0.909510 0.522186 0.889308 0.030405
C43   C     C_R   0.998731 0.499654 0.953807 0.007912
C44   C     C_R   0.087342 0.477288 0.925432 -0.004465
C45   C     C_R   0.175750 0.455233 0.990008 -0.118784
C46   C     C_R   0.176562 0.455431 0.082522 -0.123668
Cu1   Cu    Cu3+1 0.098270 0.475420 0.521130 0.941285
Cu2   Cu    Cu3+1 0.901730 0.524580 0.478870 0.952506
F1    F     F_    0.479180 0.670618 0.366677 -0.673784
F2    F     F_    0.824048 0.545397 0.735043 -0.647335
H1    H     H_    0.157709 0.461062 0.253401 0.141138
H2    H     H_    0.548491 0.297894 0.674424 0.117427
H3    H     H_    0.349741 0.265631 0.703140 0.096584
H4    H     H_    0.843526 0.538835 0.189339 0.125271
H5    H     H_    0.327977 0.558482 0.445486 0.220053
H6    H     H_    0.841960 0.687855 0.340716 0.132218
H7    H     H_    0.675806 0.749441 0.293893 0.135507
H8    H     H_    0.718356 0.392903 0.592456 0.196886
H9    H     H_    0.753802 0.560990 0.032237 0.109785
H10   H     H_    0.752370 0.561473 0.870289 0.176714
H11   H     H_    0.154484 0.460030 0.811494 0.137912
H12   H     H_    0.456867 0.218246 0.322435 0.106841
H13   H     H_    0.244284 0.437958 0.968937 0.109708
H14   H     H_    0.245664 0.438318 0.131421 0.112863
H15   H     H_    0.094507 0.886811 0.380501 0.124461
H16   H     H_    0.244706 0.079951 0.330141 0.108624
H17   H     H_    0.375073 0.808193 0.551537 0.121693
H18   H     H_    0.909413 0.112973 0.598250 0.130580
H19   H     H_    0.557953 0.842100 0.570039 0.123162
H20   H     H_    0.770802 0.910170 0.626515 0.135491
H21   H     H_    0.670596 0.275984 0.371244 0.151469
H22   H     H_    0.171922 0.311358 0.663902 0.120107
N1    N     N_R   0.246280 0.438190 0.553160 -0.253962
N2    N     N_R   0.754320 0.561190 0.447410 -0.245146
O1    O     O_R   0.972510 0.318130 0.526570 -0.503920
O2    O     O_R   0.806530 0.359650 0.490890 -0.540651
O3    O     O_R   0.082980 0.479210 0.647590 -0.523515
O4    O     O_R   0.917000 0.520730 0.611900 -0.440598
O5    O     O_R   0.193470 0.640350 0.509110 -0.501984
O6    O     O_R   0.027490 0.681870 0.473430 -0.501007
O7    O     O_R   0.083000 0.479270 0.388100 -0.504823
O8    O     O_R   0.917020 0.520790 0.352410 -0.521752

loop_
_geom_bond_atom_site_label_1
_geom_bond_atom_site_label_2
_ccdc_geom_bond_type
C1    C21   S    
C33   H8    S    
C27   C29   A    
Cu2   O2    S    
C34   C42   A    
Cu1   O5    S    
C45   C46   A    
C23   H9    S    
C26   C27   A    
C37   C38   A    
C13   C18   A    
C30   C31   A    
C37   H1    S    
C11   C14   A    
C39   H4    S    
C23   C40   A    
C29   C33   A    
Cu2   O4    S    
C12   C37   A    
C32   H2    S    
C2    F2    S    
C6    C15   A    
C35   N1    A    
Cu1   Cu2   S    
C8    C9    A    
C19   H17   S    
C9    C10   A    
C27   C30   A    
C34   H10   S    
C41   C43   A    
C25   H7    S    
C8    C21   A    
C22   H3    S    
C22   C31   A    
C35   H5    S    
C1    O1    A    
Cu2   N2    S    
C20   H15   S    
C9    H20   S    
Cu1   N1    S    
C12   C46   A    
C36   N1    A    
C26   F1    S    
C39   C40   A    
C29   N2    A    
C25   C26   A    
C28   O8    A    
C45   H13   S    
C46   H14   S    
C16   O6    A    
C43   C44   A    
C4    O4    A    
C12   C41   A    
C17   H12   S    
C31   C32   A    
C28   C38   S    
C23   C34   A    
C17   C18   A    
C5    H11   S    
C24   C25   A    
C30   C35   A    
C7    C16   S    
C5    C44   A    
C8    H18   S    
C7    C19   A    
C42   C43   A    
Cu1   O3    S    
C3    C4    S    
C6    C20   A    
C44   C45   A    
C18   H21   S    
C15   C17   A    
C40   C41   A    
C28   O7    A    
C1    O2    A    
C14   C19   A    
C3    C5    A    
C24   H6    S    
C22   C36   A    
C16   O5    A    
C32   C33   A    
Cu2   O6    S    
C2    C3    A    
Cu1   O1    S    
C4    O3    A    
C13   C21   A    
C11   C13   A    
C24   N2    A    
C38   C39   A    
C2    C42   A    
Cu2   O8    S    
Cu1   O7    S    
C10   C11   A    
C10   H19   S    
C6    H16   S    
C7    C20   A    
C14   C15   A    
C36   H22   S    
