data_mof_unit_1668.cif
_audit_creation_date              2013-03-05T15:40:26-0500
_audit_creation_method            fapswitch 2.2
_symmetry_space_group_name_H-M    P1
_symmetry_Int_Tables_number       1
_space_group_crystal_system       triclinic
_cell_length_a                    7.845325
_cell_length_b                    8.535403
_cell_length_c                    10.753481
_cell_angle_alpha                 92.553084
_cell_angle_beta                  87.267805
_cell_angle_gamma                 92.915343
_cell_volume                      717.695399698

loop_
_atom_site_label
_atom_site_type_symbol
_atom_site_description
_atom_site_fract_x
_atom_site_fract_y
_atom_site_fract_z
_atom_type_partial_charge
O1    O     O_R   0.389250 0.738570 0.508280 -0.626199
O2    O     O_R   0.678390 0.711630 0.486650 -0.634259
C1    C     C_R   0.543596 0.793451 0.490193 0.945048
O3    O     O_R   0.355400 0.513470 0.694050 -0.640450
O4    O     O_R   0.644540 0.486530 0.672420 -0.660031
C2    C     C_R   0.496979 0.472214 0.736218 0.868786
Zn1   Zn    Zn3+2 0.306930 0.517990 0.514440 0.952723
Zn2   Zn    Zn3+2 0.693070 0.482010 0.485560 0.976555
O5    O     O_R   0.321610 0.288370 0.513350 -0.649979
O6    O     O_R   0.610750 0.261430 0.491720 -0.632218
O7    O     O_R   0.355460 0.513470 0.327580 -0.593885
O8    O     O_R   0.644600 0.486530 0.305950 -0.554308
C3    C     C_R   0.455286 0.205788 0.493120 0.905307
C4    C     C_R   0.493762 0.497978 0.258477 0.827473
H1    H     H_    0.738178 0.354134 0.878331 0.163828
C5    C     C_R   0.167282 0.417758 0.872897 -0.149437
H2    H     H_    0.154358 0.344633 0.788506 0.164519
C6    C     C_R   0.041560 0.521121 0.905562 -0.225707
H3    H     H_    0.938105 0.534560 0.844969 0.167521
C7    C     C_R   0.052142 0.609082 0.015749 -0.199104
H4    H     H_    0.943974 0.677538 0.046066 0.177626
C8    C     C_R   0.171711 0.570632 0.101037 0.315561
C9    C     C_R   0.322970 0.492458 0.057377 -0.020318
C10   C     C_R   0.324028 0.437777 0.932352 0.089937
C11   C     C_R   0.482049 0.424657 0.865626 -0.114355
C12   C     C_R   0.624399 0.392126 0.928647 -0.243520
H5    H     H_    0.733509 0.383718 0.103537 0.222559
C13   C     C_R   0.619778 0.410390 0.057142 -0.173700
C14   C     C_R   0.476012 0.471246 0.123462 -0.144846
C15   C     C_2   0.564025 0.957169 0.488491 -0.399478
H6    H     H_    0.676657 0.007218 0.533902 0.150119
C16   C     C_2   0.436119 0.044165 0.456818 -0.093885
N1    N     N_2   0.950330 0.457950 0.466250 -0.075493
H7    H     H_    0.999604 0.351319 0.440325 0.215252
N2    N     N_2   0.049670 0.542050 0.533750 -0.073717
C17   C     C_3   0.984074 0.690571 0.583385 -0.126712
C18   C     C_3   0.095370 0.786361 0.676663 -0.410494
C19   C     C_3   0.988049 0.893754 0.763329 -0.985693
H8    H     H_    0.919132 0.975211 0.708043 0.265659
H9    H     H_    0.893732 0.823751 0.820982 0.271105
H10   H     H_    0.072683 0.964295 0.826746 0.271156
H11   H     H_    0.164228 0.710627 0.734662 0.280542
H12   H     H_    0.187445 0.866331 0.627157 0.252485
H13   H     H_    0.968048 0.768296 0.505268 0.212062
H14   H     H_    0.863778 0.664798 0.635746 0.225474
N3    N     N_R   0.093286 0.544018 0.218705 0.217840
O9    O     O_R   0.020987 0.404709 0.230261 -0.459474
O10   O     O_R   0.029260 0.662578 0.281562 -0.448007
C20   C     C_3   0.292680 0.989071 0.371027 -0.380423
C21   C     C_3   0.295015 0.088300 0.254884 -0.372864
C22   C     C_3   0.160459 0.027436 0.164411 -0.779012
H15   H     H_    0.189298 0.907697 0.127725 0.251234
H16   H     H_    0.031254 0.024848 0.211623 0.278492
H17   H     H_    0.161290 0.106061 0.084755 0.252897
H18   H     H_    0.268648 0.211590 0.282587 0.263718
H19   H     H_    0.423164 0.086720 0.205993 0.219462
H20   H     H_    0.304897 0.865761 0.336367 0.256282
H21   H     H_    0.167731 0.998171 0.423347 0.206342

loop_
_geom_bond_atom_site_label_1
_geom_bond_atom_site_label_2
_geom_bond_distance
_ccdc_geom_bond_type
C18   H12   1.103033 S    
O4    Zn2   2.026270 S    
Zn1   O7    2.026270 S    
C9    C10   1.403164 A    
C18   C19   1.531433 S    
C1    C15   1.399272 S    
C22   H16   1.111488 S    
C3    C16   1.419364 S    
C12   C13   1.382583 A    
C21   H18   1.107819 S    
N1    H7    1.028795 S    
Zn2   O8    1.988635 S    
C22   H17   1.111026 S    
C20   C21   1.538835 S    
C21   C22   1.525744 S    
C17   H14   1.093336 S    
C5    C10   1.412101 A    
C5    C6    1.379301 A    
O1    Zn1   1.962023 S    
C10   C11   1.409423 A    
C15   C16   1.343587 D    
C15   H6    1.089000 S    
O3    Zn1   1.988635 S    
C9    C14   1.447174 A    
O3    C2    1.290495 A    
C17   C18   1.541045 S    
C19   H9    1.110491 S    
O8    C4    1.320734 A    
O2    C1    1.294763 A    
C6    C7    1.377795 A    
Zn2   N1    2.038917 S    
O4    C2    1.320280 A    
O7    C4    1.294578 A    
N3    O10   1.300635 A    
C16   C20   1.531370 S    
C17   H13   1.108948 S    
C2    C11   1.464570 S    
C4    C14   1.471716 S    
C22   H15   1.109255 S    
C8    N3    1.403007 S    
C18   H11   1.096467 S    
C20   H20   1.108045 S    
C7    H4    1.083936 S    
C19   H10   1.111021 S    
Zn2   O6    1.962023 S    
C6    H3    1.078436 S    
O2    Zn2   1.968602 S    
H5    C13   1.081699 S    
Zn1   O5    1.968602 S    
O5    C3    1.297606 A    
C8    C9    1.439918 A    
C13   C14   1.414371 A    
H1    C12   1.078182 S    
N1    N2    1.264969 D    
C11   C12   1.379858 A    
N3    O9    1.299558 A    
Zn1   N2    2.038917 S    
C21   H19   1.112530 S    
C20   H21   1.111201 S    
N2    C17   1.461728 S    
C7    C8    1.403195 A    
C5    H2    1.084095 S    
O1    C1    1.285102 A    
O6    C3    1.285818 A    
C19   H8    1.111266 S    
