data_mof_unit_3603.cif
_audit_creation_date              2012-12-10T16:51:17-0500
_audit_creation_method            fapswitch 2.2
_symmetry_space_group_name_H-M    P1
_symmetry_Int_Tables_number       1
_space_group_crystal_system       triclinic
_cell_length_a                    27.698146
_cell_length_b                    8.628063
_cell_length_c                    7.45738
_cell_angle_alpha                 102.748697
_cell_angle_beta                  94.387144
_cell_angle_gamma                 92.904511
_cell_volume                      1728.95985333

loop_
_atom_site_label
_atom_site_type_symbol
_atom_type_description
_atom_site_fract_x
_atom_site_fract_y
_atom_site_fract_z
_atom_type_partial_charge
C1    C     C_R   0.492175 0.199727 0.453976 0.848549
C2    C     C_R   0.493957 0.797384 0.546229 0.809119
C3    C     C_R   0.101708 0.473697 0.506575 -0.047612
C4    C     C_R   0.896250 0.441842 0.480157 -0.040468
C5    C     C_R   0.129274 0.417963 0.642976 -0.017798
C6    C     C_R   0.868543 0.488367 0.337177 -0.024989
C7    C     C_R   0.105778 0.354977 0.772525 -0.155600
C8    C     C_R   0.891943 0.542714 0.201499 -0.158478
C9    C     C_R   0.125883 0.538778 0.377774 -0.021627
C10   C     C_R   0.872320 0.391513 0.619434 -0.024619
C11   C     C_R   0.355265 0.498298 0.507971 -0.078752
C12   C     C_R   0.644184 0.487038 0.491203 -0.083073
C13   C     C_R   0.974972 0.394673 0.627120 0.037222
C14   C     C_R   0.022934 0.517577 0.357297 0.036633
C15   C     C_R   0.971361 0.506159 0.348247 0.037377
C16   C     C_R   0.026489 0.400935 0.632489 0.035668
C17   C     C_R   0.947758 0.447124 0.484875 0.069897
C18   C     C_R   0.050145 0.464033 0.498753 0.067872
C19   C     C_R   0.949389 0.338030 0.759902 -0.220820
C20   C     C_R   0.048570 0.582097 0.230173 -0.218318
C21   C     C_R   0.899206 0.337570 0.756359 -0.167817
C22   C     C_R   0.098920 0.592773 0.240950 -0.158270
C23   C     C_R   0.407747 0.500367 0.502296 0.784750
C24   C     C_R   0.592197 0.500099 0.497888 0.822459
C25   C     C_R   0.055523 0.346901 0.768098 -0.216127
C26   C     C_R   0.942227 0.552673 0.207276 -0.225132
C27   C     C_2   0.476645 0.030969 0.426620 -0.039551
C28   C     C_2   0.479310 0.960562 0.571363 -0.085398
C29   C     C_R   0.180010 0.424867 0.645183 0.527172
C30   C     C_R   0.817809 0.482892 0.335639 0.524094
C31   C     C_R   0.176786 0.547683 0.388521 0.518464
C32   C     C_R   0.821809 0.398161 0.619566 0.511270
C33   C     C_R   0.284188 0.618923 0.633759 0.168010
C34   C     C_R   0.711847 0.319564 0.440021 0.191592
C35   C     C_R   0.334631 0.619971 0.627690 -0.245112
C36   C     C_R   0.661953 0.336576 0.444221 -0.228079
C37   C     C_R   0.325919 0.371201 0.398189 -0.255501
C38   C     C_R   0.675934 0.623188 0.535909 -0.237903
C39   C     C_R   0.275734 0.362686 0.408226 0.178831
C40   C     C_R   0.726194 0.610527 0.535688 0.185360
C41   C     C_R   0.254449 0.490333 0.521009 0.311311
C42   C     C_R   0.744356 0.457453 0.485609 0.292821
Cu1   Cu    Cu3+1 0.505380 0.517380 0.684380 0.939689
Cu2   Cu    Cu3+1 0.494620 0.482620 0.315620 0.928748
H1    H     H_    0.342282 0.275630 0.309057 0.149446
H2    H     H_    0.661424 0.739312 0.570968 0.137387
H3    H     H_    0.459562 0.386217 0.951010 0.233121
H4    H     H_    0.539489 0.617846 0.050043 0.229762
H5    H     H_    0.126210 0.311711 0.879098 0.182060
H6    H     H_    0.871436 0.580196 0.090706 0.197881
H7    H     H_    0.636758 0.231811 0.412380 0.137211
H8    H     H_    0.357829 0.717465 0.713725 0.148773
H9    H     H_    0.881511 0.294653 0.862480 0.190726
H10   H     H_    0.116663 0.643029 0.140054 0.188616
H11   H     H_    0.966865 0.295373 0.871670 0.147591
H12   H     H_    0.031066 0.627192 0.120330 0.146267
H13   H     H_    0.040821 0.296415 0.873551 0.146834
H14   H     H_    0.956866 0.596687 0.097167 0.150478
N1    N     N_R   0.202592 0.489132 0.519452 -0.464460
N2    N     N_R   0.795683 0.443127 0.478654 -0.470660
N3    N     N_2   0.486510 0.456430 0.038510 -0.227650
N4    N     N_2   0.513490 0.543570 0.961490 -0.218610
O1    O     O_R   0.503500 0.286120 0.619780 -0.586545
O2    O     O_R   0.496500 0.713880 0.380220 -0.603662
O3    O     O_R   0.494410 0.256780 0.308360 -0.581966
O4    O     O_R   0.505590 0.743220 0.691640 -0.588723
O5    O     O_R   0.434810 0.514700 0.655690 -0.591279
O6    O     O_R   0.565190 0.485300 0.344310 -0.573729
O7    O     O_R   0.425720 0.485350 0.344280 -0.588941
O8    O     O_R   0.574280 0.514650 0.655720 -0.563008
O9    O     O_2   0.206685 0.365772 0.769838 -0.576857
O10   O     O_2   0.790805 0.521374 0.195395 -0.521458
O11   O     O_2   0.798925 0.360349 0.759174 -0.527282
O12   O     O_2   0.200354 0.613727 0.269017 -0.567939
C43   C     C_3   0.246217 0.213375 0.303573 -0.444491
C44   C     C_3   0.236778 0.214207 0.100207 -0.732335
H15   H     H_    0.271482 0.224348 0.036813 0.260087
H16   H     H_    0.215967 0.102130 0.025865 0.234814
H17   H     H_    0.214995 0.315774 0.086417 0.304205
H18   H     H_    0.265993 0.107029 0.317361 0.204293
H19   H     H_    0.210870 0.199733 0.361023 0.218896
C45   C     C_3   0.759346 0.761933 0.586846 -0.383007
C46   C     C_3   0.756309 0.849461 0.786546 -0.831213
H20   H     H_    0.719294 0.889640 0.806967 0.250371
H21   H     H_    0.765612 0.770315 0.881285 0.282520
H22   H     H_    0.782372 0.956098 0.821032 0.258053
H23   H     H_    0.797922 0.739142 0.570759 0.211851
H24   H     H_    0.749011 0.840665 0.493166 0.204975
C47   C     C_3   0.728910 0.152953 0.390354 -0.382704
C48   C     C_3   0.714838 0.074728 0.187814 -0.845206
H25   H     H_    0.674846 0.066081 0.155885 0.250301
H26   H     H_    0.732164 0.144304 0.098168 0.286268
H27   H     H_    0.727511 0.952448 0.158109 0.251372
H28   H     H_    0.768748 0.150760 0.416114 0.220390
H29   H     H_    0.712190 0.080436 0.478295 0.200739
C49   C     C_3   0.263324 0.755300 0.762031 -0.419612
C50   C     C_3   0.273735 0.745918 0.963312 -0.742132
H30   H     H_    0.258347 0.630731 0.984692 0.309616
H31   H     H_    0.313412 0.757071 0.003202 0.234576
H32   H     H_    0.256884 0.844151 0.054306 0.246621
H33   H     H_    0.279505 0.870300 0.742341 0.200659
H34   H     H_    0.223497 0.756058 0.731789 0.216530
C51   C     C_3   0.451345 0.945796 0.238513 -0.358013
C52   C     C_3   0.404974 0.023101 0.191827 -0.896072
H35   H     H_    0.379686 0.022558 0.300338 0.249739
H36   H     H_    0.412703 0.147024 0.178745 0.272138
H37   H     H_    0.386665 0.953822 0.058535 0.243518
H38   H     H_    0.477091 0.945473 0.131916 0.201327
H39   H     H_    0.438383 0.821201 0.231863 0.245848
C53   C     C_3   0.460240 0.037088 0.754317 -0.375453
C54   C     C_3   0.409718 0.097875 0.726499 -0.837221
H40   H     H_    0.410372 0.191701 0.646225 0.257025
H41   H     H_    0.383619 0.998013 0.652802 0.242506
H42   H     H_    0.396529 0.150161 0.861748 0.234484
H43   H     H_    0.455933 0.947333 0.838264 0.215464
H44   H     H_    0.486302 0.132110 0.837347 0.229025

loop_
_geom_bond_atom_site_label_1
_geom_bond_atom_site_label_2
_ccdc_geom_bond_type
C38   C40   A    
C49   H34   S    
C8    C26   A    
C23   O7    A    
C54   H40   S    
C34   C42   A    
C44   H17   S    
C43   C44   S    
C52   H36   S    
C50   H30   S    
Cu1   O1    S    
C39   C41   A    
Cu2   O2    S    
C19   C21   A    
C44   H16   S    
C53   H44   S    
C9    C22   A    
C23   O5    A    
C45   H23   S    
C3    C18   A    
C31   N1    A    
C47   H28   S    
C11   C37   A    
C14   C18   A    
C53   C54   S    
H4    N4    S    
C29   N1    A    
C30   N2    A    
C1    O3    A    
C51   H38   S    
C39   C43   S    
C12   C36   A    
C43   H18   S    
C20   H12   S    
C3    C5    A    
C40   C42   A    
C49   H33   S    
C22   H10   S    
Cu2   O3    S    
C25   H13   S    
C1    O1    A    
C52   H35   S    
C50   H31   S    
C2    O2    A    
C5    C29   A    
C10   C21   A    
C13   C19   A    
C24   O8    A    
C40   C45   S    
C44   H15   S    
C7    H5    S    
C4    C6    A    
C42   N2    S    
C32   O11   S    
C5    C7    A    
C9    C31   A    
C43   H19   S    
C15   C26   A    
C6    C8    A    
C28   C53   S    
C47   H29   S    
Cu1   Cu2   S    
C3    C9    A    
C14   C20   A    
C48   H26   S    
C46   H20   S    
C49   C50   S    
Cu2   O7    S    
C54   H41   S    
C26   H14   S    
C41   N1    S    
C36   H7    S    
C4    C17   A    
C16   C18   A    
C6    C30   A    
C20   C22   A    
Cu1   O8    S    
Cu2   O6    S    
C32   N2    A    
C37   H1    S    
C33   C49   S    
C8    H6    S    
C51   C52   S    
C50   H32   S    
C48   H27   S    
C19   H11   S    
C16   C25   A    
C15   C17   A    
C46   H21   S    
C11   C23   S    
C31   O12   S    
H3    N3    S    
C30   O10   S    
C2    O4    A    
Cu2   N3    S    
C12   C24   S    
C7    C25   A    
C13   C17   A    
C51   H39   S    
C33   C41   A    
C11   C35   A    
C34   C47   S    
C37   C39   A    
C21   H9    S    
C35   H8    S    
C48   H25   S    
Cu1   O4    S    
C45   H24   S    
C27   C51   S    
C33   C35   A    
C54   H42   S    
C34   C36   A    
C12   C38   A    
N3    N4    D    
C38   H2    S    
C24   O6    A    
C10   C32   A    
C46   H22   S    
Cu1   O5    S    
C45   C46   S    
C13   C16   A    
C27   C28   D    
C1    C27   S    
C14   C15   A    
C2    C28   S    
C47   C48   S    
C4    C10   A    
C53   H43   S    
C52   H37   S    
Cu1   N4    S    
C29   O9    S    
