data_mof_unit_3741.cif
_audit_creation_date              2012-12-11T17:08:36-0500
_audit_creation_method            fapswitch 2.2
_symmetry_space_group_name_H-M    P1
_symmetry_Int_Tables_number       1
_space_group_crystal_system       triclinic
_cell_length_a                    6.978854
_cell_length_b                    14.5118
_cell_length_c                    16.091917
_cell_angle_alpha                 89.956696
_cell_angle_beta                  89.982404
_cell_angle_gamma                 89.996901
_cell_volume                      1629.72015254

loop_
_atom_site_label
_atom_site_type_symbol
_atom_type_description
_atom_site_fract_x
_atom_site_fract_y
_atom_site_fract_z
_atom_type_partial_charge
O1    O     O_R   0.505700 0.583890 0.413310 -0.535698
O2    O     O_R   0.175960 0.594920 0.586080 -0.544093
O3    O     O_R   0.005660 0.416110 0.586690 -0.541035
C1    C     C_R   0.344802 0.617091 0.614628 0.721129
O4    O     O_R   0.175980 0.594920 0.413930 -0.542501
O5    O     O_R   0.005680 0.416110 0.413310 -0.543862
C2    C     C_R   0.344715 0.616953 0.385257 0.698897
O6    O     O_R   0.505680 0.583890 0.586690 -0.513454
O7    O     O_3   0.339200 0.441330 0.500000 -0.380502
V1    V     V_3+5 0.064350 0.510880 0.500000 1.440493
O8    O     O_R   0.675960 0.405080 0.413920 -0.543485
C3    C     C_R   0.845013 0.383195 0.385113 0.680999
O9    O     O_R   0.675940 0.405080 0.586070 -0.546235
C4    C     C_R   0.844642 0.383078 0.614768 0.688090
V2    V     V_3+5 0.564340 0.489120 0.500000 1.439349
O10   O     O_3   0.839360 0.558670 0.500000 -0.346457
C5    C     C_R   0.009162 0.252763 0.689736 0.116398
C6    C     C_R   0.852625 0.312465 0.681321 -0.113858
C7    C     C_R   0.700037 0.301501 0.737776 -0.179255
H1    H     H_    0.576608 0.346177 0.733926 0.128005
C8    C     C_R   0.711647 0.237568 0.803602 -0.178034
H2    H     H_    0.595699 0.234073 0.848052 0.126334
C9    C     C_R   0.876839 0.183212 0.815276 -0.109624
C10   C     C_R   0.021048 0.189806 0.755053 0.138187
C11   C     C_3   0.230064 0.206502 0.765934 -0.421919
C12   C     C_3   0.217198 0.274752 0.694514 -0.407303
H3    H     H_    0.317057 0.144524 0.750961 0.193392
H4    H     H_    0.262639 0.239565 0.826586 0.162846
H5    H     H_    0.296209 0.252086 0.638127 0.184181
H6    H     H_    0.243036 0.347308 0.713621 0.160851
C13   C     C_R   0.727303 0.183001 0.241118 0.109383
C14   C     C_R   0.881950 0.182334 0.185528 -0.111010
C15   C     C_R   0.033781 0.243729 0.201656 -0.181212
H7    H     H_    0.156602 0.245615 0.160826 0.132493
C16   C     C_R   0.022591 0.307908 0.267188 -0.180680
H8    H     H_    0.137763 0.356973 0.274989 0.125591
C17   C     C_R   0.858889 0.312914 0.318421 -0.109349
C18   C     C_R   0.715781 0.246767 0.305716 0.113671
C19   C     C_3   0.505884 0.259600 0.293506 -0.412549
C20   C     C_3   0.518311 0.189743 0.223433 -0.401738
H9    H     H_    0.470660 0.330307 0.271763 0.162191
H10   H     H_    0.421252 0.234751 0.347590 0.181603
H11   H     H_    0.489513 0.219720 0.161082 0.166483
H12   H     H_    0.441595 0.124340 0.237163 0.173665
C21   C     C_R   0.513308 0.686737 0.737660 -0.125613
C22   C     C_R   0.353618 0.682946 0.685036 -0.026782
C23   C     C_R   0.201315 0.743482 0.702047 -0.160354
H13   H     H_    0.078525 0.744971 0.661539 0.200945
C24   C     C_R   0.212519 0.807514 0.767575 -0.154730
H14   H     H_    0.097262 0.856136 0.776084 0.195280
C25   C     C_R   0.376832 0.813484 0.817939 -0.025602
C26   C     C_R   0.525002 0.750800 0.802406 -0.119801
C27   C     C_3   0.729620 0.771251 0.783729 0.492326
C28   C     C_3   0.717400 0.701176 0.714040 0.515107
H15   H     H_    0.828095 0.751695 0.835045 -0.053300
H16   H     H_    0.807655 0.638924 0.723432 -0.065446
C29   C     C_R   0.509138 0.747365 0.310331 0.135154
C30   C     C_R   0.352723 0.687583 0.318718 -0.112539
C31   C     C_R   0.200204 0.698500 0.262258 -0.182771
H17   H     H_    0.076824 0.653793 0.266105 0.129518
C32   C     C_R   0.211830 0.762422 0.196425 -0.180990
H18   H     H_    0.095955 0.765866 0.151966 0.129286
C33   C     C_R   0.376952 0.816828 0.184755 -0.109634
C34   C     C_R   0.521029 0.810320 0.245011 0.104846
C35   C     C_3   0.730130 0.793758 0.234195 -0.426937
C36   C     C_3   0.717254 0.725508 0.305622 -0.391575
H19   H     H_    0.816891 0.855795 0.249185 0.181029
H20   H     H_    0.762976 0.760709 0.173556 0.167606
H21   H     H_    0.796018 0.748234 0.362034 0.197158
H22   H     H_    0.743357 0.652966 0.286535 0.157601
O11   O     O_R   0.229000 0.916070 0.913330 -0.546350
O12   O     O_R   0.558770 0.905070 0.086080 -0.543712
O13   O     O_R   0.729000 0.083900 0.086690 -0.540638
C37   C     C_R   0.389764 0.882918 0.114656 0.682936
O14   O     O_R   0.558720 0.905070 0.913930 -0.516391
O15   O     O_R   0.728960 0.083900 0.913310 -0.531568
C38   C     C_R   0.389819 0.883365 0.884988 0.722189
O16   O     O_R   0.229050 0.916070 0.086710 -0.541135
O17   O     O_3   0.395460 0.058650 0.000020 -0.378114
V3    V     V_3+5 0.670340 0.989120 0.000000 1.445024
O18   O     O_R   0.058670 0.094960 0.913900 -0.543476
C39   C     C_R   0.889657 0.117102 0.885359 0.724745
O19   O     O_R   0.058720 0.094960 0.086050 -0.545372
C40   C     C_R   0.889937 0.116899 0.114794 0.682988
V4    V     V_3+5 0.170330 0.010930 0.999970 1.403906
O20   O     O_3   0.895340 0.941350 0.999980 -0.368123
F1    F     F_    0.752604 0.860633 0.754918 -0.644195
F2    F     F_    0.733761 0.740617 0.635840 -0.632871

loop_
_geom_bond_atom_site_label_1
_geom_bond_atom_site_label_2
_ccdc_geom_bond_type
C9    C39   S    
C4    C6    S    
C7    H1    S    
O11   C38   A    
C29   C36   S    
C1    O6    A    
O18   C39   A    
C23   C24   A    
C1    C22   S    
C21   C22   A    
C11   H4    S    
C5    C12   S    
C16   C17   A    
O5    C3    A    
C18   C19   S    
C36   H21   S    
V2    O10   S    
C13   C20   S    
C6    C7    A    
C3    C17   S    
C32   C33   A    
V3    O20   S    
O11   V4    S    
O8    V2    S    
C20   H11   S    
C13   C14   A    
C35   H19   S    
C9    C10   A    
O1    V2    S    
O14   V3    S    
O13   C40   A    
C31   H17   S    
O9    C4    A    
C15   H7    S    
C19   H10   S    
C27   H15   S    
C14   C40   S    
C28   H16   S    
C31   C32   A    
C5    C10   A    
C25   C26   A    
C23   H13   S    
C10   C11   S    
O12   C37   A    
O15   C39   A    
C19   C20   S    
O4    C2    A    
C21   C26   A    
C24   C25   A    
C30   C31   A    
V4    O20   S    
O17   V3    S    
C16   H8    S    
O2    C1    A    
C25   C38   S    
C17   C18   A    
O19   C40   A    
C35   H20   S    
C5    C6    A    
C27   F1    S    
O14   C38   A    
O3    C4    A    
O16   V4    S    
O19   V4    S    
C21   C28   S    
C12   H6    S    
O6    V2    S    
C8    C9    A    
C24   H14   S    
O2    V1    S    
O17   V4    S    
C26   C27   S    
C29   C34   A    
O7    V1    S    
C22   C23   A    
C2    C30   S    
C7    C8    A    
O1    C2    A    
O15   V3    S    
O5    V1    S    
O8    C3    A    
C27   C28   S    
C33   C37   S    
C11   H3    S    
C13   C18   A    
C14   C15   A    
O9    V2    S    
C11   C12   S    
O4    V1    S    
O12   V3    S    
O3    V1    S    
V1    O10   S    
C34   C35   S    
C28   F2    S    
C29   C30   A    
C36   H22   S    
C15   C16   A    
O13   V3    S    
O7    V2    S    
C32   H18   S    
C33   C34   A    
C20   H12   S    
C19   H9    S    
C12   H5    S    
C35   C36   S    
C37   O16   A    
C8    H2    S    
O18   V4    S    
