data_mof_unit_809.cif
_audit_creation_date              2012-12-10T20:00:03-0500
_audit_creation_method            fapswitch 2.2
_symmetry_space_group_name_H-M    P1
_symmetry_Int_Tables_number       1
_space_group_crystal_system       triclinic
_cell_length_a                    15.001293
_cell_length_b                    14.219755
_cell_length_c                    8.88344
_cell_angle_alpha                 90.001516
_cell_angle_beta                  90.474127
_cell_angle_gamma                 90.00116
_cell_volume                      1894.90355608

loop_
_atom_site_label
_atom_site_type_symbol
_atom_type_description
_atom_site_fract_x
_atom_site_fract_y
_atom_site_fract_z
_atom_type_partial_charge
C1    C     C_R   0.327857 0.499954 0.499708 0.832301
C2    C     C_R   0.434805 0.894707 0.420733 -0.398463
C3    C     C_R   0.499997 0.499995 0.218693 0.919049
C4    C     C_R   0.500000 0.499996 0.781307 0.919054
C5    C     C_R   0.500021 0.052956 0.500004 0.068643
C6    C     C_R   0.500012 0.946385 0.500015 0.095310
C7    C     C_1   0.500007 0.499963 0.065434 -0.190766
C8    C     C_1   0.499986 0.499964 0.934566 -0.190865
C9    C     C_R   0.093666 0.578216 0.446983 -0.188331
C10   C     C_R   0.905357 0.419809 0.448941 -0.177760
C11   C     C_R   0.906355 0.578248 0.552641 -0.188307
C12   C     C_R   0.672144 0.499955 0.500276 0.832330
C13   C     C_R   0.094621 0.419814 0.550815 -0.177742
C14   C     C_R   0.185654 0.578816 0.448029 -0.199064
C15   C     C_R   0.813380 0.419900 0.449983 -0.208096
C16   C     C_R   0.814368 0.578843 0.551714 -0.199051
C17   C     C_R   0.186599 0.419910 0.549893 -0.208125
C18   C     C_R   0.232085 0.499613 0.499229 -0.029628
C19   C     C_R   0.767915 0.499617 0.500650 -0.029673
C20   C     C_R   0.048121 0.498941 0.499235 0.120185
C21   C     C_R   0.951879 0.498952 0.500409 0.120164
C22   C     C_3   0.334089 0.262694 0.278525 0.150114
C23   C     C_R   0.462890 0.203865 0.381753 0.533722
C24   C     C_3   0.283571 0.197966 0.169893 -0.395106
C25   C     C_3   0.183398 0.216495 0.174876 -0.957846
C26   C     C_3   0.619536 0.760101 0.815539 0.079281
C27   C     C_3   0.681379 0.691914 0.898921 -0.326186
C28   C     C_3   0.673438 0.702458 0.069270 -0.945406
C29   C     C_3   0.665938 0.262608 0.721624 0.149856
C30   C     C_3   0.716293 0.198095 0.830777 -0.394704
C31   C     C_3   0.816497 0.216444 0.825848 -0.958089
C32   C     C_3   0.380549 0.760066 0.184451 0.079404
C33   C     C_3   0.318634 0.691955 0.101043 -0.326237
C34   C     C_R   0.562586 0.795234 0.582635 0.535960
C35   C     C_3   0.326681 0.702436 0.930700 -0.945146
C36   C     C_R   0.537127 0.203883 0.618243 0.533808
C37   C     C_R   0.437418 0.795243 0.417381 0.535900
C38   C     C_R   0.465101 0.104686 0.378171 -0.366806
C39   C     C_R   0.565209 0.894700 0.579300 -0.398515
C40   C     C_R   0.534942 0.104701 0.621827 -0.366828
H1    H     H_    0.058119 0.639158 0.404607 0.134527
H2    H     H_    0.619051 0.930780 0.636785 0.156552
H3    H     H_    0.559974 0.068941 0.720914 0.161477
H4    H     H_    0.380967 0.930790 0.363250 0.156565
H5    H     H_    0.317220 0.336597 0.249319 0.171951
H6    H     H_    0.310278 0.250814 0.395985 0.111061
H7    H     H_    0.307561 0.209799 0.053345 0.243289
H8    H     H_    0.296103 0.123413 0.200545 0.210098
H9    H     H_    0.157773 0.204095 0.290175 0.263094
H10   H     H_    0.148442 0.168293 0.095742 0.266878
H11   H     H_    0.168703 0.290156 0.141143 0.267486
H12   H     H_    0.940101 0.358646 0.406445 0.131021
H13   H     H_    0.549819 0.747541 0.853248 0.137578
H14   H     H_    0.639619 0.833127 0.845420 0.122927
H15   H     H_    0.664454 0.618487 0.866817 0.225025
H16   H     H_    0.751483 0.705648 0.865847 0.214030
H17   H     H_    0.692698 0.774648 0.104513 0.260168
H18   H     H_    0.718289 0.651300 0.126333 0.269495
H19   H     H_    0.604019 0.688403 0.104932 0.269873
H20   H     H_    0.682852 0.336559 0.750439 0.171975
H21   H     H_    0.689847 0.250430 0.604302 0.110851
H22   H     H_    0.692250 0.210287 0.947193 0.243297
H23   H     H_    0.941920 0.639203 0.594935 0.134533
H24   H     H_    0.703664 0.123482 0.800621 0.210105
H25   H     H_    0.842183 0.203619 0.710713 0.263126
H26   H     H_    0.851324 0.168447 0.905450 0.266900
H27   H     H_    0.831281 0.290188 0.858996 0.267490
H28   H     H_    0.450267 0.747380 0.146835 0.137635
H29   H     H_    0.360594 0.833123 0.154494 0.122845
H30   H     H_    0.335427 0.618501 0.133225 0.224963
H31   H     H_    0.248527 0.705822 0.134009 0.214000
H32   H     H_    0.307610 0.774683 0.895388 0.260105
H33   H     H_    0.281726 0.651366 0.873616 0.269465
H34   H     H_    0.059859 0.358668 0.593331 0.131008
H35   H     H_    0.396100 0.688193 0.895152 0.269914
H36   H     H_    0.220269 0.640497 0.407429 0.189632
H37   H     H_    0.777964 0.358486 0.409062 0.149267
H38   H     H_    0.779771 0.640538 0.592306 0.189616
H39   H     H_    0.221997 0.358513 0.590914 0.149225
H40   H     H_    0.440078 0.068915 0.279081 0.161520
N1    N     N_R   0.500000 0.252470 0.500000 -0.180063
N2    N     N_R   0.500000 0.747530 0.500000 -0.155044
O1    O     O_R   0.369060 0.579480 0.500010 -0.571601
O2    O     O_3   0.627516 0.744880 0.659036 -0.623273
O3    O     O_3   0.572763 0.251839 0.739611 -0.614178
O4    O     O_3   0.372485 0.744905 0.340954 -0.623303
O5    O     O_R   0.630940 0.420520 0.499990 -0.648913
O6    O     O_R   0.630940 0.579480 0.499990 -0.571593
O7    O     O_R   0.369060 0.420520 0.500010 -0.649015
O8    O     O_R   0.500000 0.579460 0.285340 -0.623157
O9    O     O_R   0.500000 0.420540 0.714660 -0.562874
O10   O     O_R   0.500000 0.579460 0.714660 -0.623147
O11   O     O_R   0.500000 0.420540 0.285340 -0.562972
O12   O     O_3   0.427238 0.251796 0.260378 -0.614249
Zn1   Zn    Zn3+2 0.500000 0.606140 0.500000 0.992271
Zn2   Zn    Zn3+2 0.500000 0.393860 0.500000 0.982208

loop_
_geom_bond_atom_site_label_1
_geom_bond_atom_site_label_2
_ccdc_geom_bond_type
C31   H26   S    
C30   H24   S    
C14   C18   A    
C4    C8    S    
C10   H12   S    
C7    C8    T    
C15   H37   S    
C28   H17   S    
C31   H27   S    
C35   H35   S    
C26   C27   S    
C3    O8    A    
C3    C7    S    
C10   C15   A    
C30   C31   S    
C27   H15   S    
C17   H39   S    
C25   H10   S    
O9    Zn2   S    
C40   H3    S    
C2    H4    S    
C1    O7    A    
C29   O3    S    
C12   O5    A    
C32   H28   S    
C4    O9    A    
O6    Zn1   S    
C32   O4    S    
C5    C38   A    
C22   O12   S    
C2    C6    A    
C34   O2    S    
C26   H14   S    
C39   H2    S    
C10   C21   A    
C29   H21   S    
C12   O6    A    
C34   C39   A    
C24   H8    S    
C37   O4    S    
O8    Zn1   S    
C24   C25   S    
N1    Zn2   S    
C27   H16   S    
C11   C21   A    
O10   Zn1   S    
C14   H36   S    
C15   C19   A    
C9    C14   A    
C25   H11   S    
C29   C30   S    
C11   C16   A    
C9    C20   A    
C29   H20   S    
C36   C40   A    
C36   N1    A    
O1    Zn1   S    
O5    Zn2   S    
C17   C18   A    
C1    C18   S    
C3    O11   A    
C20   C21   S    
C33   H30   S    
C22   H6    S    
C35   H32   S    
O11   Zn2   S    
C30   H22   S    
C22   C24   S    
C37   N2    A    
C26   H13   S    
C28   H19   S    
C31   H25   S    
C35   H33   S    
C26   O2    S    
N2    Zn1   S    
C23   N1    A    
C13   C20   A    
C24   H7    S    
C9    H1    S    
C32   H29   S    
C28   H18   S    
C36   O3    S    
C1    O1    A    
C23   C38   A    
C11   H23   S    
C23   O12   S    
C13   C17   A    
C32   C33   S    
O7    Zn2   S    
C2    C37   A    
C5    C6    S    
C38   H40   S    
C16   C19   A    
C12   C19   S    
C33   C35   S    
C16   H38   S    
C25   H9    S    
C33   H31   S    
C22   H5    S    
C13   H34   S    
C5    C40   A    
C27   C28   S    
C6    C39   A    
C34   N2    A    
C4    O10   A    
