data_mof_unit_4252.cif
_audit_creation_date              2012-12-10T17:23:42-0500
_audit_creation_method            fapswitch 2.2
_symmetry_space_group_name_H-M    P1
_symmetry_Int_Tables_number       1
_space_group_crystal_system       triclinic
_cell_length_a                    9.592947
_cell_length_b                    10.820022
_cell_length_c                    17.302906
_cell_angle_alpha                 94.659041
_cell_angle_beta                  86.525847
_cell_angle_gamma                 91.126561
_cell_volume                      1786.55049539

loop_
_atom_site_label
_atom_site_type_symbol
_atom_type_description
_atom_site_fract_x
_atom_site_fract_y
_atom_site_fract_z
_atom_type_partial_charge
C1    C     C_R   0.501027 0.738071 0.505784 0.849414
C2    C     C_R   0.348941 0.430779 0.769026 -0.196569
C3    C     C_R   0.389752 0.483790 0.148345 0.191161
C4    C     C_R   0.395733 0.482799 0.228213 -0.204169
C5    C     C_R   0.645731 0.526806 0.218841 0.156900
C6    C     C_R   0.640003 0.524694 0.138442 -0.211457
C7    C     C_R   0.514280 0.501134 0.102651 0.089331
C8    C     C_2   0.458924 0.415278 0.972183 -0.239444
C9    C     C_2   0.517113 0.504670 0.018238 -0.216404
C10   C     C_R   0.522443 0.502811 0.264700 -0.142172
C11   C     C_R   0.381228 0.899568 0.643107 0.130812
C12   C     C_R   0.482315 0.488078 0.648584 0.827089
C13   C     C_R   0.284512 0.965984 0.692880 -0.147249
C14   C     C_R   0.250544 0.085697 0.678611 -0.178607
C15   C     C_R   0.319164 0.141733 0.617195 -0.185481
C16   C     C_R   0.411526 0.073384 0.563451 0.083293
C17   C     C_R   0.429944 0.945891 0.572058 0.056564
C18   C     C_R   0.506055 0.873375 0.512325 -0.099138
C19   C     C_R   0.582418 0.930672 0.453544 -0.187760
C20   C     C_R   0.579873 0.058057 0.451308 -0.199511
C21   C     C_R   0.493307 0.129383 0.504537 -0.070233
C22   C     C_R   0.864121 0.331432 0.395766 -0.087564
C23   C     C_R   0.498238 0.262634 0.500529 0.743397
C24   C     C_R   0.940595 0.248848 0.344983 -0.179188
C25   C     C_R   0.084415 0.249071 0.345169 -0.187093
C26   C     C_R   0.152603 0.331806 0.396190 -0.128492
C27   C     C_R   0.078756 0.417171 0.448971 0.153635
C28   C     C_R   0.929274 0.417082 0.448935 0.172980
C29   C     C_R   0.921603 0.579407 0.549101 0.193515
C30   C     C_R   0.071098 0.579226 0.549218 0.199048
C31   C     C_R   0.517688 0.501531 0.349888 0.797880
C32   C     C_R   0.475300 0.465977 0.731043 -0.012089
C33   C     C_R   0.597818 0.475328 0.771666 -0.164330
C34   C     C_R   0.593252 0.454806 0.849746 -0.148026
C35   C     C_R   0.466345 0.423875 0.888259 0.189121
C36   C     C_R   0.344888 0.408652 0.847405 -0.154820
Cu1   Cu    Cu3+1 0.359340 0.500010 0.500010 0.961483
Cu2   Cu    Cu3+1 0.640660 0.499990 0.499990 0.984041
H1    H     H_    0.697106 0.500432 0.743540 0.156883
H2    H     H_    0.734607 0.542686 0.103373 0.164189
H3    H     H_    0.643389 0.876245 0.408694 0.163773
H4    H     H_    0.246321 0.929879 0.746890 0.158498
H5    H     H_    0.180204 0.139013 0.719154 0.145577
H6    H     H_    0.299483 0.238766 0.614099 0.166043
H7    H     H_    0.642306 0.100924 0.406177 0.135537
H8    H     H_    0.754492 0.325100 0.390155 0.185308
H9    H     H_    0.887607 0.184620 0.304903 0.148081
H10   H     H_    0.298726 0.467805 0.261814 0.195882
H11   H     H_    0.143877 0.184913 0.305326 0.151482
H12   H     H_    0.263228 0.325363 0.391775 0.191709
H13   H     H_    0.575514 0.580191 0.992990 0.164108
H14   H     H_    0.246513 0.384064 0.876785 0.125255
H15   H     H_    0.253767 0.420589 0.738329 0.142592
H16   H     H_    0.403424 0.337270 0.995744 0.153167
H17   H     H_    0.688531 0.464499 0.880414 0.129816
N1    N     N_R   0.852190 0.498790 0.499250 -0.197135
N2    N     N_R   0.148060 0.498710 0.499220 -0.202616
O1    O     O_R   0.381190 0.680360 0.500010 -0.542625
O2    O     O_R   0.618760 0.680340 0.500000 -0.536868
O3    O     O_R   0.367440 0.500030 0.613600 -0.563632
O4    O     O_R   0.605010 0.500010 0.613590 -0.553194
O5    O     O_R   0.381240 0.319660 0.500000 -0.619079
O6    O     O_R   0.618810 0.319640 0.499990 -0.598631
O7    O     O_R   0.394990 0.499990 0.386410 -0.604974
O8    O     O_R   0.632560 0.499970 0.386400 -0.570199
I1    I     I_    0.505868 0.783260 0.700777 -0.408321
N3    N     N_3   0.841858 0.664154 0.601164 -0.502380
H18   H     H_    0.863114 0.649171 0.658149 0.193004
H19   H     H_    0.872538 0.754644 0.590366 0.210841
N4    N     N_3   0.142834 0.663393 0.601822 -0.510198
H20   H     H_    0.117994 0.754041 0.591670 0.203458
H21   H     H_    0.108651 0.647276 0.658666 0.193491
I2    I     I_    0.843825 0.576426 0.262340 -0.383001
N5    N     N_3   0.254856 0.475561 0.116628 -0.575063
H22   H     H_    0.242070 0.388571 0.087070 0.211018
H23   H     H_    0.246851 0.544669 0.078332 0.238337

loop_
_geom_bond_atom_site_label_1
_geom_bond_atom_site_label_2
_ccdc_geom_bond_type
C16   C21   A    
C19   C20   A    
C9    H13   S    
Cu1   O5    S    
C28   N1    A    
C26   C27   A    
C33   H1    S    
N5    H23   S    
Cu1   Cu2   S    
C15   H6    S    
C34   C35   A    
C3    C7    A    
C26   H12   S    
C5    C6    A    
C15   C16   A    
C30   N2    A    
C2    C32   A    
C18   C19   A    
C3    N5    S    
C29   N3    S    
C10   C31   S    
C23   O5    A    
C35   C36   A    
C8    C9    D    
N4    H20   S    
Cu1   O1    S    
C36   H14   S    
C11   I1    S    
Cu2   O4    S    
C23   O6    A    
C34   H17   S    
C22   C28   A    
C13   C14   A    
C12   C32   S    
C13   H4    S    
C30   N4    S    
C33   C34   A    
N5    H22   S    
N3    H18   S    
C24   C25   A    
C27   N2    A    
C8    H16   S    
C31   O8    A    
C16   C17   A    
C25   C26   A    
N3    H19   S    
C8    C35   S    
C29   C30   A    
Cu2   O8    S    
C17   C18   A    
C1    C18   S    
C22   H8    S    
C21   C23   S    
C22   C24   A    
C4    C10   A    
C3    C4    A    
Cu1   O7    S    
Cu2   O6    S    
C4    H10   S    
C2    C36   A    
C7    C9    S    
C11   C17   A    
C24   H9    S    
C31   O7    A    
C20   H7    S    
C2    H15   S    
C6    C7    A    
C29   N1    A    
C32   C33   A    
C1    O2    A    
C5    C10   A    
C1    O1    A    
C12   O4    A    
C11   C13   A    
C6    H2    S    
C5    I2    S    
C25   H11   S    
Cu1   O3    S    
Cu2   O2    S    
C12   O3    A    
Cu2   N1    S    
C20   C21   A    
C27   C28   A    
C14   C15   A    
N4    H21   S    
Cu1   N2    S    
C19   H3    S    
C14   H5    S    
