data_mof_unit_133.cif
_audit_creation_date              2012-10-26T20:32:58-0400
_audit_creation_method            fapswitch 2.2
_symmetry_space_group_name_H-M    P1
_symmetry_Int_Tables_number       1
_space_group_crystal_system       triclinic
_cell_length_a                    27.811126
_cell_length_b                    10.856457
_cell_length_c                    9.536696
_cell_angle_alpha                 90.01907
_cell_angle_beta                  90.151973
_cell_angle_gamma                 90.130228
_cell_volume                      2879.39969081

loop_
_atom_site_label
_atom_site_type_symbol
_atom_type_description
_atom_site_fract_x
_atom_site_fract_y
_atom_site_fract_z
_atom_type_partial_charge
C1    C     C_R   0.500139 0.262682 0.499834 0.555055
C2    C     C_R   0.974353 0.385607 0.501004 0.018935
C3    C     C_R   0.974587 0.612862 0.486437 0.018958
C4    C     C_R   0.407452 0.499877 0.499802 0.552797
C5    C     C_R   0.949218 0.499258 0.493539 0.033985
C6    C     C_R   0.947282 0.274992 0.500134 -0.139868
C7    C     C_R   0.897352 0.276208 0.497831 -0.111187
C8    C     C_R   0.872325 0.387494 0.495801 0.024769
C9    C     C_R   0.898079 0.499308 0.493323 -0.027164
C10   C     C_R   0.872558 0.611175 0.490794 0.024901
C11   C     C_R   0.822077 0.609187 0.491360 0.397842
C12   C     C_R   0.278860 0.512373 0.372247 -0.056289
C13   C     C_R   0.821845 0.389607 0.495868 0.398417
C14   C     C_R   0.720482 0.460174 0.377435 -0.055761
C15   C     C_R   0.670343 0.460500 0.378910 -0.144763
C16   C     C_R   0.500269 0.737314 0.499857 0.554741
C17   C     C_R   0.671564 0.539161 0.616899 -0.142712
C18   C     C_R   0.721692 0.539182 0.615106 -0.054784
C19   C     C_R   0.746308 0.499535 0.495501 0.241548
C20   C     C_R   0.025422 0.386036 0.508149 0.018815
C21   C     C_R   0.050794 0.499186 0.494774 0.034117
C22   C     C_R   0.025662 0.612356 0.480574 0.018814
C23   C     C_R   0.253628 0.499175 0.498135 0.244593
C24   C     C_R   0.052258 0.276926 0.529505 -0.140255
C25   C     C_R   0.102673 0.719958 0.458866 -0.111357
C26   C     C_R   0.947740 0.723525 0.486631 -0.139904
C27   C     C_R   0.897812 0.722404 0.488549 -0.111285
C28   C     C_R   0.592524 0.500024 0.499989 0.551304
C29   C     C_R   0.052744 0.721433 0.459997 -0.140215
C30   C     C_R   0.498368 0.062027 0.620923 0.024224
C31   C     C_R   0.500938 0.130085 0.498159 0.013933
C32   C     C_R   0.504398 0.064567 0.370650 -0.156374
C33   C     C_R   0.504510 0.935367 0.370697 -0.155673
C34   C     C_R   0.101931 0.499177 0.495667 -0.027110
C35   C     C_R   0.501145 0.869910 0.498259 0.012534
C36   C     C_R   0.498540 0.938043 0.621011 0.022671
C37   C     C_3   0.493042 0.929226 0.776056 -0.263694
C38   C     C_3   0.492805 0.071079 0.775899 -0.269961
C39   C     C_R   0.522048 0.592912 0.073999 0.156163
C40   C     C_R   0.177931 0.390574 0.515487 0.398460
C41   C     C_R   0.474171 0.415587 0.074214 -0.013995
C42   C     C_R   0.474120 0.415691 0.925261 -0.013465
C43   C     C_R   0.522281 0.592462 0.926508 0.156552
C44   C     C_3   0.574402 0.624389 0.922339 -0.280156
C45   C     C_R   0.127447 0.388468 0.514475 0.024508
C46   C     C_3   0.573896 0.627148 0.081226 -0.273002
C47   C     C_R   0.178165 0.607782 0.478645 0.398777
C48   C     C_R   0.278745 0.486106 0.624607 -0.056030
C49   C     C_R   0.328892 0.486621 0.625394 -0.142400
C50   C     C_R   0.328997 0.512269 0.372599 -0.141895
C51   C     C_R   0.102187 0.278383 0.532389 -0.111437
C52   C     C_R   0.127689 0.609882 0.477789 0.024359
C53   C     C_R   0.354491 0.499610 0.499287 0.005321
C54   C     C_R   0.645436 0.499659 0.498942 0.006195
Cu1   Cu    Cu3+1 0.500000 0.499980 0.640670 0.944052
Cu2   Cu    Cu3+1 0.500000 0.500020 0.359330 0.940290
H1    H     H_    0.347732 0.522562 0.273874 0.131722
H2    H     H_    0.506998 0.887535 0.271287 0.134295
H3    H     H_    0.259550 0.522365 0.274175 0.128300
H4    H     H_    0.525235 0.889066 0.827679 0.133413
H5    H     H_    0.457610 0.111203 0.806317 0.132421
H6    H     H_    0.524837 0.112810 0.827387 0.144088
H7    H     H_    0.454019 0.345814 0.129899 0.116502
H8    H     H_    0.453850 0.346193 0.869193 0.112327
H9    H     H_    0.596508 0.547756 0.880699 0.149676
H10   H     H_    0.581197 0.715919 0.874191 0.122405
H11   H     H_    0.596625 0.554155 0.128649 0.154094
H12   H     H_    0.259343 0.475979 0.722235 0.128188
H13   H     H_    0.579341 0.720929 0.125406 0.127794
H14   H     H_    0.120954 0.192220 0.548899 0.167514
H15   H     H_    0.651108 0.428989 0.286741 0.121627
H16   H     H_    0.739319 0.429606 0.284534 0.131635
H17   H     H_    0.878400 0.188893 0.497681 0.167049
H18   H     H_    0.963504 0.185081 0.498513 0.106273
H19   H     H_    0.035843 0.188441 0.547302 0.107543
H20   H     H_    0.347553 0.476421 0.724514 0.128903
H21   H     H_    0.458035 0.887778 0.806744 0.148081
H22   H     H_    0.121633 0.806109 0.442965 0.167690
H23   H     H_    0.964137 0.813418 0.488199 0.106210
H24   H     H_    0.653390 0.571832 0.709563 0.115099
H25   H     H_    0.879042 0.809758 0.488487 0.166866
H26   H     H_    0.741472 0.570004 0.706617 0.131320
H27   H     H_    0.036535 0.809920 0.441594 0.107585
H28   H     H_    0.506807 0.112347 0.271220 0.133631
N1    N     N_R   0.202110 0.499181 0.497506 -0.399500
N2    N     N_R   0.797863 0.499431 0.493961 -0.399226
N3    N     N_R   0.500300 0.500930 0.147930 -0.231582
N4    N     N_R   0.500310 0.500890 0.852020 -0.230731
O1    O     O_R   0.500000 0.319640 0.618810 -0.503935
O2    O     O_R   0.569730 0.499960 0.618810 -0.503047
O3    O     O_R   0.569740 0.500000 0.381220 -0.506954
O4    O     O_2   0.202695 0.284933 0.533318 -0.489615
O5    O     O_2   0.796897 0.282863 0.499123 -0.490251
O6    O     O_2   0.203157 0.713427 0.461686 -0.488516
O7    O     O_2   0.797348 0.715993 0.488379 -0.491298
O8    O     O_R   0.500010 0.319680 0.381230 -0.513801
O9    O     O_R   0.430260 0.500000 0.618780 -0.504474
O10   O     O_R   0.430270 0.500040 0.381190 -0.502858
O11   O     O_R   0.499990 0.680320 0.618770 -0.497963
O12   O     O_R   0.500000 0.680360 0.381190 -0.505394

loop_
_geom_bond_atom_site_label_1
_geom_bond_atom_site_label_2
_ccdc_geom_bond_type
C10   C27   A    
Cu1   Cu2   S    
C33   H2    S    
C22   C29   A    
C4    O10   A    
C4    C53   S    
C41   C42   A    
C44   H10   S    
C35   C36   A    
C39   N3    A    
C19   N2    S    
C7    C8    A    
C7    H17   S    
C12   C23   A    
C26   C27   A    
C8    C13   A    
C43   N4    A    
C47   N1    A    
C36   C37   S    
C29   H27   S    
Cu1   O2    S    
C16   C35   S    
C30   C31   A    
C45   C51   A    
C11   N2    A    
C1    C31   S    
C30   C38   S    
C18   C19   A    
Cu1   N4    S    
C46   H13   S    
C18   H26   S    
C12   H3    S    
Cu2   O3    S    
C20   C24   A    
C8    C9    A    
C13   N2    A    
C51   H14   S    
Cu2   O10   S    
C9    C10   A    
C38   H5    S    
C24   C51   A    
C21   C22   A    
C44   H9    S    
C2    C6    A    
C41   N3    A    
C44   C46   S    
C6    H18   S    
C25   C29   A    
C40   C45   A    
C32   H28   S    
C50   C53   A    
C2    C20   A    
C25   H22   S    
C15   C54   A    
C27   H25   S    
C28   C54   S    
C16   O12   A    
Cu2   N3    S    
C39   C43   A    
C21   C34   A    
C37   H21   S    
C17   H24   S    
C40   O4    S    
C13   O5    S    
C40   N1    A    
C43   C44   S    
C5    C9    A    
C37   C38   S    
C31   C32   A    
Cu1   O9    S    
C17   C18   A    
C49   H20   S    
C24   H19   S    
C34   C45   A    
C48   H12   S    
C47   C52   A    
C39   C46   S    
C48   C49   A    
C2    C5    A    
C42   N4    A    
Cu2   O12   S    
C42   H8    S    
C11   O7    S    
Cu2   O8    S    
C1    O1    A    
C23   C48   A    
C50   H1    S    
C14   H16   S    
C14   C19   A    
C3    C26   A    
C3    C5    A    
C12   C50   A    
C16   O11   A    
C6    C7    A    
C15   H15   S    
C34   C52   A    
C26   H23   S    
C30   C36   A    
C32   C33   A    
C25   C52   A    
C46   H11   S    
Cu1   O1    S    
C1    O8    A    
C49   C53   A    
C33   C35   A    
C47   O6    S    
C28   O3    A    
C37   H4    S    
C10   C11   A    
C20   C21   A    
C23   N1    S    
Cu1   O11   S    
C41   H7    S    
C14   C15   A    
C3    C22   A    
C28   O2    A    
C4    O9    A    
C17   C54   A    
C38   H6    S    
