data_mof_unit_2123.cif
_audit_creation_date              2012-10-26T19:45:12-0400
_audit_creation_method            fapswitch 2.2
_symmetry_space_group_name_H-M    P1
_symmetry_Int_Tables_number       1
_space_group_crystal_system       triclinic
_cell_length_a                    9.589413
_cell_length_b                    10.781471
_cell_length_c                    13.892457
_cell_angle_alpha                 91.722611
_cell_angle_beta                  83.791204
_cell_angle_gamma                 88.986959
_cell_volume                      1426.92619793

loop_
_atom_site_label
_atom_site_type_symbol
_atom_type_description
_atom_site_fract_x
_atom_site_fract_y
_atom_site_fract_z
_atom_type_partial_charge
C1    C     C_R   0.498483 0.737569 0.503663 0.590468
C2    C     C_R   0.939788 0.419441 0.439556 0.121195
C3    C     C_1   0.539181 0.494962 0.213859 -0.016478
C4    C     C_1   0.460803 0.505246 0.786136 -0.017842
C5    C     C_2   0.557561 0.484334 0.022661 0.040211
C6    C     C_2   0.444049 0.516401 0.977223 0.037503
C7    C     C_1   0.451402 0.510088 0.873049 -0.045285
C8    C     C_1   0.549053 0.490300 0.126937 -0.040661
C9    C     C_R   0.575111 0.940838 0.568599 0.000864
C10   C     C_R   0.425164 0.059176 0.431170 0.000974
C11   C     C_R   0.579721 0.068840 0.559902 -0.194200
C12   C     C_R   0.501540 0.262439 0.496284 0.592403
C13   C     C_R   0.420275 0.931187 0.440027 -0.189295
C14   C     C_3   0.110550 0.660556 0.641292 -0.247272
C15   C     C_3   0.070898 0.611081 0.742409 -0.449473
C16   C     C_3   0.887731 0.320716 0.373137 -0.249115
C17   C     C_3   0.910763 0.190751 0.410545 -0.442840
C18   C     C_3   0.304869 0.558719 0.031770 -0.266990
C19   C     C_3   0.212723 0.448153 0.057973 -0.434708
C20   C     C_3   0.696433 0.439092 0.969087 -0.264691
C21   C     C_3   0.804849 0.541174 0.966259 -0.439971
C22   C     C_2   0.648396 0.885672 0.646459 0.207345
C23   C     C_R   0.504108 0.128241 0.493374 0.024584
C24   C     C_2   0.352391 0.114269 0.353030 0.204313
C25   C     C_R   0.495982 0.871780 0.506511 0.023558
C26   C     C_R   0.476230 0.500773 0.682894 0.573469
C27   C     C_R   0.523749 0.499267 0.317105 0.572421
C28   C     C_R   0.912370 0.577317 0.560986 0.023749
C29   C     C_R   0.087705 0.423297 0.438550 0.024585
C30   C     C_R   0.059803 0.576138 0.563840 0.121057
Cu1   Cu    Cu3+1 0.359340 0.499980 0.500000 0.955914
Cu2   Cu    Cu3+1 0.640660 0.500020 0.500000 0.955818
H1    H     H_    0.845369 0.638897 0.609434 0.156195
H2    H     H_    0.860572 0.184095 0.486015 0.170972
H3    H     H_    0.863651 0.120943 0.364065 0.144233
H4    H     H_    0.024475 0.168363 0.408819 0.132957
H5    H     H_    0.777287 0.331023 0.362433 0.220383
H6    H     H_    0.945594 0.326896 0.299670 0.102911
H7    H     H_    0.111014 0.481613 0.096712 0.133940
H8    H     H_    0.264819 0.385732 0.105961 0.177522
H9    H     H_    0.191759 0.395278 0.991357 0.150013
H10   H     H_    0.320617 0.613544 0.098588 0.147282
H11   H     H_    0.248315 0.621287 0.986171 0.140206
H12   H     H_    0.154772 0.362317 0.389641 0.156330
H13   H     H_    0.768745 0.621583 0.926603 0.167919
H14   H     H_    0.906065 0.505108 0.928467 0.132353
H15   H     H_    0.822399 0.572239 0.040886 0.153560
H16   H     H_    0.736268 0.358203 0.006579 0.142872
H17   H     H_    0.685869 0.406095 0.893828 0.148278
H18   H     H_    0.732713 0.935563 0.675503 0.089935
H19   H     H_    0.268850 0.064009 0.323353 0.089580
H20   H     H_    0.637584 0.123553 0.608387 0.103538
H21   H     H_    0.362258 0.876472 0.391637 0.108485
H22   H     H_    0.113477 0.515259 0.747172 0.172680
H23   H     H_    0.115055 0.671449 0.797269 0.138325
H24   H     H_    0.955139 0.610634 0.759736 0.142321
H25   H     H_    0.223269 0.675365 0.632687 0.221152
H26   H     H_    0.061843 0.754428 0.637536 0.102505
N1    N     N_R   0.147930 0.499970 0.499980 -0.237586
N2    N     N_R   0.852070 0.500030 0.500020 -0.237599
O1    O     O_R   0.381260 0.680340 0.500000 -0.534068
O2    O     O_2   0.388565 0.212434 0.317647 -0.522817
O3    O     O_R   0.618740 0.319660 0.500000 -0.528035
O4    O     O_R   0.618830 0.680370 0.500010 -0.470623
O5    O     O_R   0.381170 0.319630 0.499990 -0.470734
O6    O     O_R   0.364420 0.499960 0.637840 -0.518964
O7    O     O_R   0.635580 0.500040 0.362160 -0.524884
O8    O     O_R   0.601990 0.499990 0.637850 -0.476108
O9    O     O_R   0.398010 0.500010 0.362150 -0.475905
O10   O     O_2   0.611830 0.787868 0.682296 -0.520735

loop_
_geom_bond_atom_site_label_1
_geom_bond_atom_site_label_2
_ccdc_geom_bond_type
Cu1   O6    S    
C4    C26   S    
C15   H22   S    
C6    C7    S    
C17   H4    S    
C10   C23   A    
C5    C8    S    
C2    C16   S    
C12   O5    A    
Cu1   O1    S    
C21   H13   S    
Cu1   Cu2   S    
C27   O9    A    
C22   H18   S    
C16   H5    S    
Cu2   O8    S    
C26   O8    A    
C30   N1    A    
C24   H19   S    
C28   C30   A    
C9    C25   A    
C5    C20   S    
C20   H16   S    
C18   H11   S    
C15   H24   S    
C1    C25   S    
C9    C11   A    
C12   C23   S    
C13   C25   A    
C20   H17   S    
C19   H7    S    
C14   C30   S    
C2    C29   A    
C14   H26   S    
C11   C23   A    
C15   H23   S    
C28   H1    S    
C18   C19   S    
C13   H21   S    
C3    C27   S    
C28   N2    A    
C29   H12   S    
C5    C6    D    
C6    C18   S    
C2    N2    A    
C9    C22   S    
C3    C8    T    
Cu2   O7    S    
C27   O7    A    
C19   H8    S    
Cu2   N2    S    
C26   O6    A    
C1    O4    A    
C29   N1    A    
Cu1   O9    S    
C20   C21   S    
Cu2   O4    S    
C10   C24   S    
C21   H14   S    
C17   H2    S    
Cu1   N1    S    
Cu1   O5    S    
C14   H25   S    
C14   C15   S    
C24   O2    D    
C11   H20   S    
C17   H3    S    
C18   H10   S    
C4    C7    T    
C12   O3    A    
C22   O10   D    
C19   H9    S    
Cu2   O3    S    
C16   H6    S    
C16   C17   S    
C21   H15   S    
C10   C13   A    
C1    O1    A    
