data_mof_unit_2983.cif
_audit_creation_date              2012-12-10T20:28:38-0500
_audit_creation_method            fapswitch 2.2
_symmetry_space_group_name_H-M    P1
_symmetry_Int_Tables_number       1
_space_group_crystal_system       triclinic
_cell_length_a                    10.71404
_cell_length_b                    10.637237
_cell_length_c                    9.874838
_cell_angle_alpha                 92.103036
_cell_angle_beta                  91.22813
_cell_angle_gamma                 89.092052
_cell_volume                      1124.26927755

loop_
_atom_site_label
_atom_site_type_symbol
_atom_type_description
_atom_site_fract_x
_atom_site_fract_y
_atom_site_fract_z
_atom_type_partial_charge
C1    C     C_R   0.504191 0.260419 0.497771 0.898389
C2    C     C_R   0.060342 0.518587 0.624264 0.019387
C3    C     C_R   0.124637 0.491407 0.500803 -0.127266
C4    C     C_R   0.060737 0.433545 0.387690 0.198216
C5    C     C_R   0.932231 0.429387 0.389861 -0.185338
C6    C     C_R   0.870787 0.458155 0.509591 -0.170646
C7    C     C_R   0.432832 0.069110 0.576914 0.053252
C8    C     C_R   0.514322 0.128242 0.495294 -0.134631
C9    C     C_R   0.616592 0.061827 0.437468 0.125777
C10   C     C_R   0.618620 0.929398 0.444110 0.148629
C11   C     C_R   0.520045 0.871550 0.510375 -0.220780
C12   C     C_R   0.258976 0.501178 0.499435 0.881974
C13   C     C_R   0.438064 0.942824 0.589672 0.066978
C14   C     C_3   0.299451 0.936547 0.603521 0.007759
C15   C     C_3   0.294111 0.076633 0.579344 -0.494065
C16   C     C_R   0.426806 0.418397 0.066247 0.203533
C17   C     C_R   0.562253 0.588233 0.078418 -0.084825
C18   C     C_R   0.562348 0.589785 0.934764 0.182481
C19   C     C_R   0.426911 0.418224 0.923881 0.200644
C20   C     C_3   0.434048 0.278085 0.913514 -0.466865
C21   C     C_3   0.433646 0.278450 0.067166 -0.489258
C22   C     C_R   0.504564 0.739771 0.502531 0.942538
C23   C     C_R   0.738858 0.484329 0.501918 0.911117
C24   C     C_R   0.112744 0.581473 0.741344 -0.152979
C25   C     C_R   0.056162 0.575997 0.867363 0.223379
C26   C     C_R   0.947026 0.509003 0.878396 -0.198607
C27   C     C_R   0.888061 0.459566 0.762057 -0.189761
C28   C     C_R   0.938390 0.476692 0.632509 0.109958
H1    H     H_    0.252126 0.099374 0.478998 0.185496
H2    H     H_    0.259404 0.136211 0.665597 0.221572
H3    H     H_    0.613461 0.657661 0.138749 0.185585
H4    H     H_    0.348304 0.237201 0.866004 0.219385
H5    H     H_    0.523224 0.241939 0.870311 0.220069
H6    H     H_    0.347796 0.237727 0.107687 0.217853
H7    H     H_    0.522585 0.242802 0.112405 0.214460
H8    H     H_    0.196454 0.635682 0.737325 0.199060
H9    H     H_    0.905795 0.498310 0.976399 0.164520
H10   H     H_    0.804522 0.406071 0.775316 0.175113
H11   H     H_    0.879835 0.401350 0.298783 0.167236
H12   H     H_    0.252521 0.877386 0.523018 0.146169
N1    N     N_R   0.499160 0.499140 0.142800 -0.128406
N2    N     N_R   0.499160 0.499180 0.857150 -0.118154
O1    O     O_R   0.500020 0.316790 0.614690 -0.625239
O2    O     O_R   0.500000 0.316760 0.385350 -0.629482
O3    O     O_R   0.316770 0.500020 0.614690 -0.627264
O4    O     O_R   0.316760 0.499980 0.385350 -0.595370
O5    O     O_R   0.500000 0.683240 0.614650 -0.611596
O6    O     O_R   0.499980 0.683210 0.385310 -0.592062
O7    O     O_R   0.683240 0.500020 0.614650 -0.645501
O8    O     O_R   0.683230 0.499980 0.385310 -0.606068
Zn1   Zn    Zn3+2 0.500010 0.500020 0.653130 0.943249
Zn2   Zn    Zn3+2 0.499990 0.499980 0.346870 0.964994
C29   C     C_3   0.124609 0.369920 0.267768 -0.833564
H13   H     H_    0.057458 0.319034 0.199092 0.225134
H14   H     H_    0.193943 0.299363 0.303963 0.228593
H15   H     H_    0.171334 0.439402 0.206604 0.278440
I1    I     I_    0.255753 0.902282 0.808411 -0.364727
C30   C     C_3   0.631300 0.694031 0.872085 -0.757716
H16   H     H_    0.691330 0.658105 0.789712 0.271503
H17   H     H_    0.563711 0.765626 0.835390 0.265517
H18   H     H_    0.693889 0.742874 0.947436 0.212825
I2    I     I_    0.136688 0.662597 0.043270 -0.347749
C31   C     C_3   0.719226 0.132852 0.371980 -0.837284
H19   H     H_    0.757971 0.203700 0.446027 0.213230
H20   H     H_    0.798208 0.072717 0.337809 0.268908
H21   H     H_    0.681270 0.181541 0.282320 0.237521
I3    I     I_    0.767110 0.816381 0.359388 -0.365239

loop_
_geom_bond_atom_site_label_1
_geom_bond_atom_site_label_2
_ccdc_geom_bond_type
C17   C18   A    
C22   O6    A    
C31   H20   S    
C26   H9    S    
C29   H13   S    
C16   C21   S    
C21   H7    S    
C13   C14   S    
C4    C29   S    
C1    C8    S    
C2    C28   A    
C9    C10   A    
C29   H14   S    
C11   C22   S    
O8    Zn2   S    
C19   C20   S    
C19   N2    A    
C7    C13   A    
N2    Zn1   S    
C1    O2    A    
O2    Zn2   S    
C30   H18   S    
C7    C15   S    
C2    C3    A    
C3    C12   S    
C31   H21   S    
C7    C8    A    
C10   I3    S    
C24   C25   A    
C4    C5    A    
C11   C13   A    
O1    Zn1   S    
C26   C27   A    
C24   H8    S    
C16   C19   A    
C6    C23   S    
C1    O1    A    
C15   H1    S    
C25   I2    S    
C5    H11   S    
C2    C24   A    
C5    C6    A    
C17   H3    S    
C17   N1    A    
C23   O7    A    
C10   C11   A    
C20   H5    S    
C27   H10   S    
C14   H12   S    
C31   H19   S    
O4    Zn2   S    
O6    Zn2   S    
C20   C21   S    
C15   H2    S    
C12   O4    A    
C20   H4    S    
C29   H15   S    
C27   C28   A    
C14   I1    S    
O3    Zn1   S    
C14   C15   S    
C12   O3    A    
C23   O8    A    
O5    Zn1   S    
C21   H6    S    
N1    Zn2   S    
C18   N2    A    
C25   C26   A    
C9    C31   S    
C30   H16   S    
C30   H17   S    
C16   N1    A    
C18   C30   S    
C22   O5    A    
C6    C28   A    
C3    C4    A    
C8    C9    A    
O7    Zn1   S    
