data_mof_unit_2082.cif
_audit_creation_date              2012-10-26T20:14:34-0400
_audit_creation_method            fapswitch 2.2
_symmetry_space_group_name_H-M    P1
_symmetry_Int_Tables_number       1
_space_group_crystal_system       triclinic
_cell_length_a                    7.786378
_cell_length_b                    9.096177
_cell_length_c                    17.330933
_cell_angle_alpha                 89.994011
_cell_angle_beta                  87.09774
_cell_angle_gamma                 90.007082
_cell_volume                      1225.91094516

loop_
_atom_site_label
_atom_site_type_symbol
_atom_type_description
_atom_site_fract_x
_atom_site_fract_y
_atom_site_fract_z
_atom_type_partial_charge
C1    C     C_R   0.500005 0.779967 0.500005 0.555405
C2    C     C_R   0.379990 0.534068 0.227119 -0.074208
C3    C     C_R   0.626817 0.485010 0.851914 0.254592
C4    C     C_R   0.373182 0.514911 0.148086 0.254591
C5    C     C_R   0.486560 0.549095 0.894153 0.002684
C6    C     C_R   0.513439 0.450808 0.105855 0.002684
C7    C     C_R   0.341731 0.599299 0.855262 -0.002587
C8    C     C_R   0.658267 0.400617 0.144751 -0.002585
C9    C     C_R   0.336917 0.576520 0.775329 -0.089325
C10   C     C_R   0.663083 0.423433 0.224681 -0.089335
C11   C     C_2   0.491063 0.560299 0.978473 -0.057212
C12   C     C_R   0.499995 0.220033 0.499995 0.555402
C13   C     C_2   0.508945 0.439597 0.021536 -0.057201
C14   C     C_2   0.196102 0.676498 0.896621 0.309424
C15   C     C_2   0.803893 0.323393 0.103403 0.309430
C16   C     C_1   0.500007 0.934630 0.500002 -0.030900
C17   C     C_1   0.499993 0.065370 0.499997 -0.030900
C18   C     C_R   0.479780 0.501007 0.650250 0.541361
C19   C     C_R   0.520220 0.498990 0.349750 0.541358
C20   C     C_R   0.475614 0.510554 0.734321 -0.051152
C21   C     C_R   0.524387 0.489417 0.265681 -0.051153
C22   C     C_R   0.620010 0.465885 0.772879 -0.074212
Cl1   Cl    Cl    0.180914 0.564697 0.105385 -0.578056
Cl2   Cl    Cl    0.819096 0.435222 0.894607 -0.578037
Cu1   Cu    Cu3+1 0.330920 0.500000 0.500000 1.053137
Cu2   Cu    Cu3+1 0.669080 0.500000 0.500000 1.053134
H1    H     H_    0.729614 0.417525 0.741257 0.174257
H2    H     H_    0.270388 0.582441 0.258736 0.174258
H3    H     H_    0.772247 0.385534 0.255600 0.187896
H4    H     H_    0.227753 0.614430 0.744415 0.187898
H5    H     H_    0.526333 0.332578 0.994388 0.151708
H6    H     H_    0.473668 0.667318 0.005620 0.151715
H7    H     H_    0.196948 0.697054 0.958035 0.171542
H8    H     H_    0.802995 0.302719 0.041998 0.171450
N1    N     N_1   0.923170 0.500000 0.500010 -0.075613
N2    N     N_1   0.076830 0.500000 0.499990 -0.075613
O1    O     O_R   0.357240 0.711600 0.500000 -0.497239
O2    O     O_2   0.926920 0.279665 0.137929 -0.445973
O3    O     O_R   0.642760 0.288400 0.500000 -0.497242
O4    O     O_R   0.642760 0.711600 0.500000 -0.492767
O5    O     O_R   0.357240 0.288400 0.500000 -0.492768
O6    O     O_R   0.340660 0.500000 0.613590 -0.500833
O7    O     O_R   0.659340 0.500000 0.386410 -0.500835
O8    O     O_R   0.626230 0.500000 0.613600 -0.506088
O9    O     O_R   0.373770 0.500000 0.386400 -0.506089
O10   O     O_2   0.073133 0.720341 0.862094 -0.446004

loop_
_geom_bond_atom_site_label_1
_geom_bond_atom_site_label_2
_ccdc_geom_bond_type
Cu1   O6    S    
C12   C17   S    
C2    C4    A    
C19   O9    A    
C15   O2    D    
C12   O5    A    
C18   O8    A    
C5    C7    A    
C15   H8    S    
N1    N2    T    
C1    O1    A    
C14   H7    S    
C11   H6    S    
Cu2   O8    S    
C14   O10   D    
C1    C16   S    
C6    C13   S    
C11   C13   D    
C10   H3    S    
Cu2   O4    S    
C3    Cl2   S    
C2    C21   A    
C9    H4    S    
C12   O3    A    
C4    C6    A    
C19   C21   S    
C20   C22   A    
Cu2   O7    S    
C5    C11   S    
C8    C15   S    
C18   C20   S    
C22   H1    S    
C18   O6    A    
C10   C21   A    
Cu2   O3    S    
C2    H2    S    
Cu1   N2    S    
Cu1   O9    S    
Cu2   N1    S    
C8    C10   A    
Cu1   O5    S    
C7    C9    A    
C4    Cl1   S    
C3    C22   A    
C6    C8    A    
C9    C20   A    
C1    O4    A    
Cu1   O1    S    
Cu1   Cu2   S    
C13   H5    S    
C7    C14   S    
C19   O7    A    
C16   C17   T    
C3    C5    A    
