data_mof_unit_2721.cif
_audit_creation_date              2012-12-10T18:10:44-0500
_audit_creation_method            fapswitch 2.2
_symmetry_space_group_name_H-M    P1
_symmetry_Int_Tables_number       1
_space_group_crystal_system       triclinic
_cell_length_a                    12.662502
_cell_length_b                    13.161685
_cell_length_c                    15.731885
_cell_angle_alpha                 91.410419
_cell_angle_beta                  102.603164
_cell_angle_gamma                 82.252736
_cell_volume                      2535.31281663

loop_
_atom_site_label
_atom_site_type_symbol
_atom_type_description
_atom_site_fract_x
_atom_site_fract_y
_atom_site_fract_z
_atom_type_partial_charge
C1    C     C_R   0.439157 0.691090 0.489676 0.849685
C2    C     C_R   0.599040 0.199668 0.514755 -0.161196
C3    C     C_R   0.331627 0.828179 0.552370 -0.180942
C4    C     C_R   0.500879 0.500746 0.661305 0.886377
C5    C     C_R   0.346904 0.910950 0.607968 -0.159712
C6    C     C_R   0.432283 0.968057 0.606968 0.029039
C7    C     C_R   0.485648 0.956903 0.535121 0.067516
C8    C     C_R   0.473984 0.869292 0.482585 -0.007001
C9    C     C_R   0.552862 0.027041 0.515145 0.031253
C10   C     C_R   0.632279 0.994626 0.464115 -0.117358
C11   C     C_R   0.630552 0.896837 0.424534 0.474021
C12   C     C_3   0.397127 0.603422 0.034137 -0.209636
C13   C     C_R   0.542693 0.844275 0.423781 -0.138976
C14   C     C_R   0.533015 0.131235 0.535839 0.433071
C15   C     C_R   0.689813 0.164182 0.480645 -0.262214
C16   C     C_R   0.560939 0.309029 0.511402 0.860137
C17   C     C_R   0.404583 0.800197 0.498130 -0.073643
C18   C     C_R   0.093407 0.339347 0.379274 -0.102917
C19   C     C_R   0.806991 0.620842 0.611092 0.028163
C20   C     C_R   0.916618 0.631972 0.642639 0.358526
C21   C     C_R   0.994195 0.579166 0.601644 -0.209331
C22   C     C_R   0.963036 0.520924 0.526197 0.011415
C23   C     C_3   0.489808 0.516641 0.081651 0.045179
C24   C     C_R   0.853207 0.502868 0.502867 0.154498
C25   C     C_R   0.039536 0.473431 0.478457 -0.077403
C26   C     C_R   0.010986 0.393388 0.418451 -0.025037
C27   C     C_R   0.902675 0.369274 0.401831 0.436439
C28   C     C_R   0.498847 0.500043 0.338626 0.872680
C29   C     C_R   0.825475 0.426603 0.441882 -0.275535
C30   C     C_R   0.144441 0.503448 0.488854 0.537555
C31   C     C_R   0.199580 0.363936 0.403299 -0.093762
C32   C     C_3   0.406296 0.607219 0.933152 0.164822
C33   C     C_3   0.610630 0.525354 0.972815 -0.257631
C34   C     C_3   0.471354 0.409118 0.042002 -0.439743
C35   C     C_3   0.603951 0.537102 0.069758 -0.427497
C36   C     C_1   0.494827 0.504578 0.249235 -0.101075
C37   C     C_3   0.494080 0.513901 0.916266 0.019505
C38   C     C_2   0.406165 0.709149 0.077924 0.968725
C39   C     C_2   0.285276 0.576285 0.044856 1.004704
C40   C     C_2   0.783399 0.044222 0.393206 0.934469
C41   C     C_2   0.475960 0.021856 0.688899 0.950273
C42   C     C_2   0.437209 0.709932 0.906702 0.926891
C43   C     C_2   0.074706 0.259022 0.312369 1.038215
C44   C     C_2   0.727381 0.676398 0.656902 1.073553
C45   C     C_3   0.457388 0.412462 0.942107 0.306195
C46   C     C_2   0.698874 0.439706 0.959112 1.075437
C47   C     C_1   0.492130 0.510115 0.173682 0.030824
C48   C     C_1   0.499153 0.509507 0.825150 -0.007000
C49   C     C_1   0.501469 0.505238 0.750251 -0.065110
C50   C     C_R   0.704031 0.064201 0.450151 -0.022380
H1    H     H_    0.542521 0.351875 0.070811 0.251024
H2    H     H_    0.620537 0.615202 0.091575 0.255276
H3    H     H_    0.669286 0.484628 0.112451 0.226099
H4    H     H_    0.369653 0.411517 0.910806 0.185774
H5    H     H_    0.399713 0.380788 0.058943 0.182857
H6    H     H_    0.481279 0.795945 0.174278 0.368859
H7    H     H_    0.306591 0.593046 0.817754 0.347856
H8    H     H_    0.161948 0.601179 0.108924 0.364463
H9    H     H_    0.782208 0.857427 0.426706 0.340760
H10   H     H_    0.937616 0.047761 0.379613 0.376292
H11   H     H_    0.458160 0.221210 0.609189 0.346670
H12   H     H_    0.740497 0.218472 0.465803 0.179790
H13   H     H_    0.446291 0.092245 0.798336 0.358032
H14   H     H_    0.537212 0.819495 0.931465 0.375575
H15   H     H_    0.793743 0.285602 0.339941 0.328724
H16   H     H_    0.117395 0.113971 0.276073 0.357407
H17   H     H_    0.241006 0.588371 0.557797 0.361213
H18   H     H_    0.622977 0.804065 0.664411 0.339560
H19   H     H_    0.026138 0.693215 0.727818 0.365041
H20   H     H_    0.785624 0.301811 0.996234 0.372550
H21   H     H_    0.479454 0.265972 0.920415 0.347454
H22   H     H_    0.276315 0.776384 0.563393 0.194589
H23   H     H_    0.301353 0.921409 0.659073 0.217631
H24   H     H_    0.535885 0.776460 0.383480 0.178430
H25   H     H_    0.264222 0.321985 0.376321 0.181495
H26   H     H_    0.078668 0.579989 0.633147 0.190385
H27   H     H_    0.745129 0.405773 0.427877 0.195691
H28   H     H_    0.638039 0.595763 0.952743 0.193093
N1    N     N_R   0.222200 0.444690 0.455710 -0.150365
N2    N     N_R   0.776960 0.554780 0.543830 -0.184802
O1    O     O_R   0.366740 0.627160 0.478850 -0.604113
O2    O     O_R   0.486604 0.722748 0.152347 -0.792349
O3    O     O_3   0.302549 0.595809 0.880041 -0.718414
O4    O     O_2   0.242264 0.508379 0.001671 -0.576392
O5    O     O_R   0.233484 0.626785 0.107227 -0.775297
O6    O     O_3   0.711901 0.849340 0.386341 -0.704344
O7    O     O_2   0.753117 0.018981 0.317383 -0.547241
O8    O     O_R   0.891596 0.061097 0.425000 -0.754903
O9    O     O_3   0.439775 0.167310 0.565271 -0.746615
O10   O     O_2   0.572723 0.032617 0.708807 -0.605234
O11   O     O_R   0.406958 0.057637 0.744623 -0.768142
O12   O     O_R   0.544830 0.662520 0.507140 -0.601605
O13   O     O_2   0.381530 0.757011 0.842666 -0.582316
O14   O     O_R   0.526911 0.751857 0.955945 -0.819783
O15   O     O_3   0.873151 0.288501 0.348062 -0.719401
O16   O     O_2   0.010170 0.279022 0.242977 -0.551321
O17   O     O_R   0.135964 0.162033 0.326895 -0.783211
O18   O     O_3   0.164942 0.596948 0.524528 -0.783338
O19   O     O_2   0.719427 0.644815 0.727383 -0.569226
O20   O     O_R   0.671643 0.771272 0.625206 -0.799137
O21   O     O_3   0.945955 0.692755 0.714672 -0.697782
O22   O     O_2   0.746873 0.447453 0.900482 -0.570993
O23   O     O_R   0.410920 0.482310 0.608710 -0.653462
O24   O     O_R   0.725823 0.352586 0.012695 -0.753064
O25   O     O_3   0.517317 0.325545 0.913313 -0.724358
O26   O     O_R   0.589010 0.517670 0.637000 -0.582681
O27   O     O_R   0.455170 0.337480 0.492860 -0.582631
O28   O     O_R   0.633260 0.372840 0.521150 -0.630246
O29   O     O_R   0.410990 0.482330 0.363000 -0.600476
O30   O     O_R   0.589080 0.517690 0.391290 -0.625777
O31   O     O_2   0.339020 0.782588 0.048455 -0.541605
Zn1   Zn    Zn3+2 0.381090 0.476390 0.481110 0.981574
Zn2   Zn    Zn3+2 0.618910 0.523610 0.518890 0.982392

loop_
_geom_bond_atom_site_label_1
_geom_bond_atom_site_label_2
_ccdc_geom_bond_type
C8    C13   A    
C35   H3    S    
C42   O13   D    
C44   O20   S    
O27   Zn1   S    
C27   O15   S    
C19   C20   A    
C18   C26   A    
H10   O8    S    
C7    C8    A    
C46   O22   D    
C12   C23   S    
C26   C27   A    
N1    Zn1   S    
C40   O7    D    
C39   O4    D    
C5    C6    A    
C44   O19   D    
H20   O24   S    
C33   H28   S    
C27   C29   A    
C11   O6    S    
C1    O1    A    
C4    O23   A    
C36   C47   T    
C15   C50   A    
C24   C29   A    
H17   O18   S    
C24   N2    A    
C45   O25   S    
C22   C25   A    
H7    O3    S    
C2    C16   S    
C9    C10   A    
C16   O27   A    
C41   O10   D    
C34   H5    S    
C21   C22   A    
C38   O2    S    
C12   C38   S    
C33   C46   S    
H11   O9    S    
C23   C47   S    
O26   Zn2   S    
O29   Zn1   S    
C20   O21   S    
C28   O30   A    
C25   C26   A    
C4    O26   A    
C6    C41   S    
C33   C37   S    
O23   Zn1   S    
O28   Zn2   S    
C9    C14   A    
H18   O20   S    
C14   O9    S    
C31   H25   S    
C21   H26   S    
O1    Zn1   S    
C23   C34   S    
C43   O16   D    
C34   H1    S    
C34   C45   S    
C32   C37   S    
C20   C21   A    
C37   C48   S    
H6    O2    S    
C2    C15   A    
O30   Zn2   S    
C30   N1    A    
C48   C49   T    
C41   O11   S    
C45   H4    S    
C1    O12   A    
C23   C35   S    
H21   O25   S    
C22   C24   A    
C39   O5    S    
C37   C45   S    
C10   C50   A    
H8    O5    S    
C19   C44   S    
H16   O17   S    
O12   Zn2   S    
C25   C30   A    
C7    C9    A    
C32   O3    S    
C42   O14   S    
C43   O17   S    
C3    C5    A    
C31   N1    A    
C6    C7    A    
H19   O21   S    
C28   O29   A    
C30   O18   S    
C1    C17   S    
C8    C17   A    
C4    C49   S    
C40   O8    S    
C12   C39   S    
C3    H22   S    
H9    O6    S    
H14   O14   S    
C18   C43   S    
C11   C13   A    
C46   O24   S    
C40   C50   S    
C33   C35   S    
C15   H12   S    
C3    C17   A    
C5    H23   S    
C19   N2    A    
C2    C14   A    
C10   C11   A    
C16   O28   A    
H15   O15   S    
C29   H27   S    
N2    Zn2   S    
C28   C36   S    
H13   O11   S    
C35   H2    S    
C32   C42   S    
C18   C31   A    
C38   O31   D    
C12   C32   S    
C13   H24   S    
