data_mof_unit_789.cif
_audit_creation_date              2012-12-10T16:46:47-0500
_audit_creation_method            fapswitch 2.2
_symmetry_space_group_name_H-M    P1
_symmetry_Int_Tables_number       1
_space_group_crystal_system       triclinic
_cell_length_a                    15.843766
_cell_length_b                    8.681835
_cell_length_c                    7.616592
_cell_angle_alpha                 103.48329
_cell_angle_beta                  92.754695
_cell_angle_gamma                 92.876067
_cell_volume                      1015.59718427

loop_
_atom_site_label
_atom_site_type_symbol
_atom_type_description
_atom_site_fract_x
_atom_site_fract_y
_atom_site_fract_z
_atom_type_partial_charge
C1    C     C_R   0.496944 0.200367 0.453386 0.850164
C2    C     C_3   0.944073 0.403533 0.639662 -0.056271
C3    C     C_3   0.916631 0.487480 0.487539 0.250539
C4    C     C_3   0.959956 0.656378 0.517927 -0.375745
C5    C     C_3   0.056288 0.651270 0.553570 -0.453534
C6    C     C_1   0.824113 0.492957 0.476351 -0.065620
C7    C     C_1   0.176130 0.484761 0.522050 -0.015879
C8    C     C_1   0.251695 0.493038 0.516280 -0.118621
C9    C     C_2   0.494392 0.031542 0.428683 -0.329572
C10   C     C_2   0.503543 0.968507 0.571885 -0.358139
C11   C     C_R   0.340976 0.499172 0.504592 0.803295
C12   C     C_R   0.502272 0.799642 0.546788 0.872687
C13   C     C_R   0.659175 0.499902 0.495204 0.817852
C14   C     C_3   0.043042 0.398649 0.658002 -0.119777
C15   C     C_3   0.047304 0.390978 0.317360 0.311873
C16   C     C_3   0.948343 0.388321 0.308782 -0.486028
C17   C     C_1   0.748583 0.496637 0.482024 -0.163628
C18   C     C_3   0.083321 0.475955 0.512316 0.211725
Cu1   Cu    Cu3+1 0.509300 0.517380 0.684380 1.000523
Cu2   Cu    Cu3+1 0.490700 0.482620 0.315620 1.014116
H1    H     H_    0.917698 0.278423 0.589902 0.127631
H2    H     H_    0.065456 0.479062 0.785664 0.208814
H3    H     H_    0.947905 0.702389 0.395068 0.185470
H4    H     H_    0.484907 0.958917 0.291466 0.200376
H5    H     H_    0.512506 0.041243 0.709245 0.183802
H6    H     H_    0.434000 0.377609 0.952116 0.202376
H7    H     H_    0.920581 0.264285 0.282395 0.180987
H8    H     H_    0.924107 0.435619 0.196279 0.181534
H9    H     H_    0.075728 0.713041 0.695627 0.178610
H10   H     H_    0.089214 0.722833 0.471582 0.217748
H11   H     H_    0.933732 0.744014 0.627512 0.188338
N1    N     N_2   0.476670 0.456430 0.038530 -0.178101
N2    N     N_2   0.523330 0.543570 0.961470 -0.006870
O1    O     O_R   0.506050 0.286130 0.619770 -0.595564
O2    O     O_R   0.490330 0.256780 0.308370 -0.581910
O3    O     O_R   0.387300 0.514690 0.655770 -0.597336
O4    O     O_R   0.371580 0.485340 0.344370 -0.555288
O5    O     O_R   0.509670 0.743220 0.691630 -0.567886
O6    O     O_R   0.493950 0.713870 0.380230 -0.552305
O7    O     O_R   0.628420 0.514660 0.655630 -0.562970
O8    O     O_R   0.612700 0.485310 0.344230 -0.550620
C19   C     C_3   0.902672 0.457122 0.823638 -0.390397
C20   C     C_3   0.920004 0.632248 0.929065 -0.309435
C21   C     C_3   0.843177 0.731045 0.926813 -0.799535
H12   H     H_    0.818592 0.728308 0.787745 0.256632
H13   H     H_    0.792492 0.683946 0.998491 0.274389
H14   H     H_    0.860557 0.856225 0.998377 0.243278
H15   H     H_    0.935523 0.637043 0.073006 0.221352
H16   H     H_    0.975963 0.690114 0.885337 0.234429
H17   H     H_    0.833333 0.426466 0.804718 0.214846
H18   H     H_    0.926308 0.379078 0.908276 0.182941
I1    I     I_    0.615993 0.713109 0.096166 -0.270480
C22   C     C_3   0.067613 0.229625 0.673409 -0.396832
C23   C     C_3   0.162869 0.208681 0.701397 -0.295421
C24   C     C_3   0.179352 0.046275 0.735718 -0.788866
H19   H     H_    0.139585 0.018699 0.841404 0.284824
H20   H     H_    0.165593 0.953744 0.608861 0.249151
H21   H     H_    0.247026 0.043660 0.779615 0.246179
H22   H     H_    0.195646 0.214559 0.578115 0.240472
H23   H     H_    0.191219 0.302793 0.816819 0.253889
H24   H     H_    0.036862 0.204752 0.792926 0.230472
H25   H     H_    0.039677 0.136732 0.557231 0.227255
I2    I     I_    0.103049 0.516465 0.134859 -0.509728
I3    I     I_    0.086965 0.154249 0.214199 -0.496212

loop_
_geom_bond_atom_site_label_1
_geom_bond_atom_site_label_2
_ccdc_geom_bond_type
C16   H8    S    
C15   C18   S    
C15   I3    S    
C9    H4    S    
H6    N1    S    
Cu1   O5    S    
C20   H15   S    
C14   C18   S    
Cu1   Cu2   S    
C21   H14   S    
C13   C17   S    
C19   H18   S    
Cu1   O3    S    
C3    C6    S    
N1    N2    D    
C14   H2    S    
C16   H7    S    
C13   O8    A    
Cu2   O8    S    
C7    C8    T    
C23   H23   S    
C22   C23   S    
N2    I1    S    
Cu2   O4    S    
C2    H1    S    
C10   C12   S    
C19   H17   S    
C8    C11   S    
C10   H5    S    
C11   O3    A    
C2    C19   S    
C1    O1    A    
C2    C3    S    
C5    H9    S    
C23   H22   S    
C24   H20   S    
C20   C21   S    
C12   O5    A    
C2    C14   S    
C24   H19   S    
C4    H11   S    
Cu1   O7    S    
C12   O6    A    
C3    C4    S    
C9    C10   D    
C14   C22   S    
C1    C9    S    
C21   H12   S    
C1    O2    A    
C11   O4    A    
C5    H10   S    
C22   H25   S    
C24   H21   S    
C6    C17   T    
Cu2   O6    S    
C15   I2    S    
C23   C24   S    
C20   H16   S    
C13   O7    A    
C5    C18   S    
Cu1   N2    S    
C7    C18   S    
Cu2   O2    S    
C22   H24   S    
Cu1   O1    S    
C4    H3    S    
C3    C16   S    
C15   C16   S    
C19   C20   S    
C21   H13   S    
C4    C5    S    
Cu2   N1    S    
