data_mof_unit_2261.cif
_audit_creation_date              2012-12-10T18:13:35-0500
_audit_creation_method            fapswitch 2.2
_symmetry_space_group_name_H-M    P1
_symmetry_Int_Tables_number       1
_space_group_crystal_system       triclinic
_cell_length_a                    12.637704
_cell_length_b                    13.204567
_cell_length_c                    16.723244
_cell_angle_alpha                 89.26965
_cell_angle_beta                  98.060796
_cell_angle_gamma                 97.376282
_cell_volume                      2740.21983223

loop_
_atom_site_label
_atom_site_type_symbol
_atom_type_description
_atom_site_fract_x
_atom_site_fract_y
_atom_site_fract_z
_atom_type_partial_charge
C1    C     C_R   0.559083 0.690725 0.513852 0.877021
C2    C     C_R   0.477540 0.494691 0.736916 -0.187255
C3    C     C_R   0.269937 0.057121 0.516850 0.441974
C4    C     C_R   0.509317 0.487759 0.349271 0.900106
C5    C     C_R   0.404487 0.200450 0.499342 -0.164512
C6    C     C_R   0.697008 0.838334 0.505462 -0.318651
C7    C     C_R   0.716777 0.938332 0.479840 0.373651
C8    C     C_R   0.634015 0.000102 0.472377 0.421480
C9    C     C_R   0.537912 0.968184 0.507123 -0.061549
C10   C     C_R   0.519384 0.867181 0.533609 -0.046331
C11   C     C_R   0.457558 0.031840 0.512646 0.012207
C12   C     C_R   0.581261 0.405252 0.235632 0.490165
C13   C     C_R   0.352472 0.991911 0.528685 -0.089918
C14   C     C_R   0.338882 0.892019 0.560200 0.370024
C15   C     C_R   0.424357 0.834205 0.566989 -0.169638
C16   C     C_R   0.440140 0.308987 0.493782 0.874720
C17   C     C_R   0.483280 0.136200 0.508798 -0.157369
C18   C     C_R   0.296842 0.160621 0.500226 -0.245369
C19   C     C_R   0.594576 0.799960 0.523282 -0.168296
C20   C     C_R   0.892368 0.330491 0.600999 0.384837
C21   C     C_R   0.205876 0.615975 0.394773 0.642497
C22   C     C_R   0.099782 0.613062 0.357381 -0.379281
C23   C     C_R   0.538286 0.420057 0.866493 0.522649
C24   C     C_R   0.018181 0.557974 0.393117 -0.203734
C25   C     C_R   0.038836 0.513015 0.469117 0.095744
C26   C     C_R   0.146520 0.500792 0.495791 0.135362
C27   C     C_R   0.956040 0.466731 0.511978 -0.201313
C28   C     C_R   0.486935 0.502938 0.651021 0.896496
C29   C     C_R   0.978782 0.386819 0.567628 -0.092555
C30   C     C_R   0.087151 0.368564 0.589286 0.496656
C31   C     C_R   0.168821 0.426783 0.553839 -0.280147
C32   C     C_R   0.852986 0.500981 0.504550 0.584401
C33   C     C_R   0.790369 0.360601 0.584825 -0.171678
C34   C     C_R   0.550169 0.440418 0.785840 -0.362696
C35   C     C_R   0.497318 0.446884 0.266485 -0.181304
C36   C     C_R   0.393304 0.436563 0.221779 -0.395483
C37   C     C_R   0.373871 0.396090 0.143753 0.514404
C38   C     C_R   0.460017 0.365026 0.110513 0.014242
C39   C     C_R   0.561855 0.368007 0.155758 -0.367167
C40   C     C_3   0.606536 0.062693 0.343605 0.127286
C41   C     C_3   0.512669 0.121665 0.313781 -0.870460
C42   C     C_3   0.182444 0.332761 0.711607 0.122947
C43   C     C_3   0.184600 0.253929 0.778690 -0.705638
C44   C     C_3   0.792574 0.618681 0.406365 0.124648
C45   C     C_R   0.395074 0.534685 0.770497 0.365641
C46   C     C_3   0.851324 0.711361 0.367435 -0.830821
C47   C     C_3   0.282259 0.768106 0.347630 0.109232
C48   C     C_3   0.385043 0.820875 0.320176 -0.827403
C49   C     C_3   0.633070 0.281490 0.887751 0.072935
C50   C     C_3   0.690366 0.222640 0.955843 -0.795936
C51   C     C_3   0.735713 0.324243 0.269657 0.042222
C52   C     C_3   0.805476 0.300317 0.347538 -0.733372
C53   C     C_3   0.220583 0.472687 0.099494 0.073879
C54   C     C_3   0.137316 0.473338 0.024470 -0.774989
C55   C     C_R   0.383762 0.515312 0.850665 -0.297883
C56   C     C_R   0.453074 0.457219 0.898011 -0.000501
C57   C     C_2   0.453040 0.358988 0.023326 -0.076047
C58   C     C_2   0.439459 0.445030 0.982523 -0.121213
Cl1   Cl    Cl    0.223576 0.836344 0.600556 -0.451199
Cl2   Cl    Cl    0.131551 0.016112 0.516038 -0.426243
Cl3   Cl    Cl    0.840923 0.981662 0.447106 -0.506964
Cl4   Cl    Cl    0.902804 0.220120 0.660683 -0.513477
Cl5   Cl    Cl    0.306010 0.612434 0.716977 -0.580810
H1    H     H_    0.326110 0.459339 0.247549 0.197649
H2    H     H_    0.080932 0.646852 0.298657 0.158587
H3    H     H_    0.248600 0.407937 0.569059 0.205572
H4    H     H_    0.419845 0.511068 0.013045 0.145887
H5    H     H_    0.627542 0.347239 0.126764 0.172763
H6    H     H_    0.473121 0.291796 0.995174 0.162526
H7    H     H_    0.580745 0.979709 0.330601 0.114762
H8    H     H_    0.673071 0.086223 0.307835 0.177312
H9    H     H_    0.533256 0.203514 0.331000 0.274391
H10   H     H_    0.493784 0.115423 0.247018 0.215512
H11   H     H_    0.440099 0.089795 0.340573 0.256273
H12   H     H_    0.320528 0.546163 0.876486 0.189137
H13   H     H_    0.154759 0.402389 0.734610 0.168730
H14   H     H_    0.266101 0.351382 0.697627 0.127413
H15   H     H_    0.212553 0.183552 0.758078 0.269948
H16   H     H_    0.240615 0.285193 0.832400 0.189073
H17   H     H_    0.102763 0.234603 0.796004 0.284736
H18   H     H_    0.711145 0.638437 0.407156 0.188749
H19   H     H_    0.782010 0.550396 0.366989 0.172888
H20   H     H_    0.860978 0.692852 0.304478 0.214605
H21   H     H_    0.804432 0.777189 0.364949 0.248431
H22   H     H_    0.931924 0.735853 0.402108 0.321918
H23   H     H_    0.234448 0.210453 0.491773 0.203569
H24   H     H_    0.271256 0.804443 0.405110 0.164794
H25   H     H_    0.214220 0.780363 0.300222 0.138122
H26   H     H_    0.396005 0.788812 0.261255 0.250814
H27   H     H_    0.379910 0.903842 0.313206 0.211278
H28   H     H_    0.455727 0.809760 0.365243 0.253684
H29   H     H_    0.685540 0.292425 0.839476 0.170419
H30   H     H_    0.555473 0.234472 0.864051 0.132895
H31   H     H_    0.640103 0.208694 0.005234 0.233430
H32   H     H_    0.705252 0.148010 0.932762 0.225901
H33   H     H_    0.768811 0.266827 0.980244 0.262087
H34   H     H_    0.566958 0.168321 0.516565 0.228026
H35   H     H_    0.788377 0.343049 0.222191 0.158640
H36   H     H_    0.679385 0.253999 0.251371 0.144628
H37   H     H_    0.843286 0.230428 0.339431 0.240554
H38   H     H_    0.870076 0.364482 0.363808 0.218545
H39   H     H_    0.755619 0.287629 0.397301 0.286853
H40   H     H_    0.278310 0.544114 0.099453 0.131678
H41   H     H_    0.178043 0.472138 0.153383 0.157293
H42   H     H_    0.076447 0.404572 0.023390 0.262292
H43   H     H_    0.095950 0.542606 0.024635 0.213816
H44   H     H_    0.177300 0.473617 0.969389 0.250782
H45   H     H_    0.758109 0.788476 0.503657 0.250167
H46   H     H_    0.414827 0.761507 0.597495 0.223146
H47   H     H_    0.723278 0.317588 0.608970 0.182429
H48   H     H_    0.616727 0.414247 0.761351 0.183144
H49   H     H_    0.942054 0.541598 0.356418 0.168845
N1    N     N_R   0.774070 0.445420 0.541180 -0.162633
N2    N     N_R   0.226730 0.554050 0.459240 -0.140898
O1    O     O_R   0.631480 0.627510 0.519670 -0.595094
O2    O     O_3   0.113193 0.291386 0.642698 -0.540211
O3    O     O_3   0.844391 0.603488 0.485938 -0.583153
O4    O     O_3   0.290840 0.663021 0.358227 -0.594313
O5    O     O_3   0.616453 0.376950 0.917849 -0.610611
O6    O     O_3   0.681962 0.409117 0.282480 -0.626176
O7    O     O_3   0.271940 0.383741 0.098292 -0.602036
O8    O     O_R   0.455770 0.662400 0.493360 -0.577172
O9    O     O_R   0.598240 0.480510 0.398910 -0.605186
O10   O     O_R   0.422540 0.515400 0.372600 -0.572976
O11   O     O_R   0.544230 0.337600 0.506640 -0.626144
O12   O     O_R   0.368520 0.372490 0.480330 -0.646139
O13   O     O_R   0.577460 0.484600 0.627400 -0.612565
O14   O     O_R   0.401760 0.519490 0.601090 -0.599035
O15   O     O_3   0.644856 0.087149 0.425745 -0.611192
Zn1   Zn    Zn3+2 0.617320 0.476700 0.517570 0.976392
Zn2   Zn    Zn3+2 0.382680 0.523300 0.482430 0.994224

loop_
_geom_bond_atom_site_label_1
_geom_bond_atom_site_label_2
_ccdc_geom_bond_type
C31   H3    S    
C55   C56   A    
C40   H8    S    
C27   C29   A    
C39   H5    S    
C15   H46   S    
C35   C36   A    
C24   H49   S    
C32   O3    S    
C40   O15   S    
C23   C56   A    
C30   O2    S    
C53   C54   S    
C43   H15   S    
C6    C19   A    
C52   H39   S    
C29   C30   A    
C40   H7    S    
C54   H44   S    
O12   Zn2   S    
C21   C22   A    
C36   C37   A    
C37   C38   A    
C44   H19   S    
C10   C15   A    
C23   O5    S    
C30   C31   A    
C50   H32   S    
C5    C17   A    
C53   H41   S    
C43   H16   S    
C4    O10   A    
C3    C18   A    
N2    Zn2   S    
C1    O8    A    
C7    Cl3   S    
C5    C16   S    
C41   H11   S    
C12   O6    S    
O11   Zn1   S    
C47   O4    S    
C8    C9    A    
C48   H28   S    
C32   N1    A    
C16   O11   A    
C3    C13   A    
C28   O13   A    
C46   H22   S    
C55   H12   S    
C3    Cl2   S    
C2    C34   A    
C51   H35   S    
C4    C35   S    
C26   C31   A    
C48   H27   S    
C13   C14   A    
C34   H48   S    
C44   C46   S    
C20   C29   A    
C2    C45   A    
C51   H36   S    
C52   H38   S    
C1    C19   S    
N1    Zn1   S    
C54   H43   S    
C51   C52   S    
C7    C8    A    
C24   C25   A    
C44   H18   S    
C50   H31   S    
C5    C18   A    
C25   C26   A    
C52   H37   S    
C4    O9    A    
C47   H24   S    
C26   N2    A    
C22   H2    S    
C21   O4    S    
C14   Cl1   S    
C38   C57   S    
C47   C48   S    
C10   C19   A    
C23   C34   A    
C51   O6    S    
C18   H23   S    
C12   C35   A    
C9    C11   A    
C45   C55   A    
C41   H9    S    
C37   O7    S    
C20   C33   A    
C42   O2    S    
C40   C41   S    
C48   H26   S    
O9    Zn1   S    
C46   H21   S    
C42   C43   S    
C49   H29   S    
O14   Zn2   S    
O8    Zn2   S    
C9    C10   A    
C11   C17   A    
C54   H42   S    
C27   C32   A    
C42   H13   S    
C21   N2    A    
C6    C7    A    
C25   C27   A    
C49   O5    S    
C33   N1    A    
C49   H30   S    
C47   H25   S    
C12   C39   A    
C43   H17   S    
O13   Zn1   S    
C53   O7    S    
C11   C13   A    
C50   H33   S    
C57   C58   D    
C38   C39   A    
C45   Cl5   S    
C44   O3    S    
C53   H40   S    
C56   C58   S    
C22   C24   A    
C20   Cl4   S    
C41   H10   S    
C46   H20   S    
C58   H4    S    
O10   Zn2   S    
C42   H14   S    
C17   H34   S    
C49   C50   S    
C8    O15   S    
C6    H45   S    
C14   C15   A    
C2    C28   S    
C33   H47   S    
C1    O1    A    
C57   H6    S    
C36   H1    S    
C16   O12   A    
C28   O14   A    
O1    Zn1   S    
