data_mof_unit_737.cif
_audit_creation_date              2013-03-05T16:43:31-0500
_audit_creation_method            fapswitch 2.2
_symmetry_space_group_name_H-M    P1
_symmetry_Int_Tables_number       1
_space_group_crystal_system       triclinic
_cell_length_a                    10.503392
_cell_length_b                    10.695271
_cell_length_c                    9.882277
_cell_angle_alpha                 89.796137
_cell_angle_beta                  90.864586
_cell_angle_gamma                 90.395067
_cell_volume                      1109.98223432

loop_
_atom_site_label
_atom_site_type_symbol
_atom_site_description
_atom_site_fract_x
_atom_site_fract_y
_atom_site_fract_z
_atom_type_partial_charge
O1    O     O_R   0.500020 0.316790 0.614690 -0.586946
O2    O     O_R   0.500000 0.316760 0.385350 -0.623781
C1    C     C_R   0.503092 0.260011 0.500256 0.937236
O3    O     O_R   0.313960 0.499990 0.614650 -0.621737
O4    O     O_R   0.313940 0.499950 0.385310 -0.622864
C2    C     C_R   0.257273 0.501265 0.499151 0.896002
Zn1   Zn    Zn3+2 0.500010 0.500020 0.653130 0.975049
Zn2   Zn    Zn3+2 0.499990 0.499980 0.346870 0.957964
O5    O     O_R   0.500000 0.683240 0.614650 -0.620023
O6    O     O_R   0.499980 0.683210 0.385310 -0.625862
O7    O     O_R   0.686060 0.500050 0.614690 -0.632275
O8    O     O_R   0.686040 0.500010 0.385350 -0.636511
C3    C     C_R   0.505007 0.739829 0.499882 0.878041
C4    C     C_R   0.742627 0.500308 0.501085 0.859024
C5    C     C_3   0.042931 0.393840 0.552858 -0.148671
C6    C     C_3   0.955657 0.405661 0.426462 -0.166927
H1    H     H_    0.915145 0.327103 0.366160 0.151467
H2    H     H_    0.082070 0.305840 0.595520 0.206791
C7    C     C_3   0.877581 0.501207 0.503242 0.023103
C8    C     C_3   0.962200 0.489454 0.629833 -0.154718
C9    C     C_3   0.044089 0.598395 0.575323 -0.175127
C10   C     C_3   0.956469 0.610275 0.449138 -0.170307
C11   C     C_3   0.037149 0.514808 0.372069 -0.142765
C12   C     C_3   0.122094 0.502672 0.498249 0.009814
H3    H     H_    0.927673 0.479005 0.734943 0.146976
H4    H     H_    0.084922 0.676862 0.635526 0.151288
H5    H     H_    0.916343 0.698306 0.407224 0.143419
H6    H     H_    0.069272 0.528372 0.266927 0.136935
C13   C     C_R   0.522945 0.062359 0.622571 0.044328
C14   C     C_R   0.520625 0.128440 0.500770 -0.077679
C15   C     C_R   0.543186 0.065385 0.379096 -0.189604
H7    H     H_    0.550853 0.114698 0.283572 0.197963
C16   C     C_R   0.545128 0.936000 0.378764 -0.195927
H8    H     H_    0.552792 0.887833 0.283003 0.181181
C17   C     C_R   0.526092 0.871037 0.500429 -0.070654
C18   C     C_R   0.529600 0.935263 0.622595 0.025069
C19   C     C_3   0.452315 0.920828 0.747558 -0.496536
C20   C     C_3   0.442168 0.062759 0.747344 0.486948
H9    H     H_    0.360547 0.870940 0.728054 0.209708
H10   H     H_    0.509717 0.882546 0.833361 0.211949
C21   C     C_R   0.388234 0.501914 0.069223 0.202640
N1    N     N_R   0.499140 0.499140 0.142800 -0.105244
C22   C     C_R   0.610818 0.507205 0.073476 -0.106206
H11   H     H_    0.700569 0.511321 0.128230 0.151662
C23   C     C_R   0.610824 0.506972 0.929832 -0.078909
H12   H     H_    0.700461 0.510674 0.877626 0.143832
N2    N     N_R   0.499140 0.499180 0.857150 -0.099056
C24   C     C_R   0.388244 0.503680 0.926764 0.188613
C25   C     C_3   0.283304 0.409921 0.917520 -0.419500
C26   C     C_3   0.285567 0.404764 0.070890 -0.465338
H13   H     H_    0.194407 0.450893 0.874558 0.191908
H14   H     H_    0.313406 0.322006 0.869023 0.275942
H15   H     H_    0.196414 0.439565 0.115015 0.186978
H16   H     H_    0.319133 0.313782 0.112455 0.246130
N3    N     N_R   0.309914 0.103167 0.727297 0.199108
O9    O     O_R   0.230536 0.090962 0.826359 -0.387622
O10   O     O_R   0.266128 0.135644 0.608499 -0.452483
Br1   Br    Br    0.527467 0.142289 0.900893 -0.543795

loop_
_geom_bond_atom_site_label_1
_geom_bond_atom_site_label_2
_geom_bond_distance
_ccdc_geom_bond_type
C13   C20   1.507294 S    
C5    H2    1.108979 S    
C11   C12   1.527952 S    
C15   C16   1.384116 A    
C19   C20   1.522455 S    
O4    Zn2   1.996351 S    
C13   C14   1.393632 A    
C21   N1    1.364292 A    
C15   H7    1.083487 S    
C17   C18   1.391023 A    
C14   C15   1.404761 A    
Zn2   O8    1.985170 S    
C25   H14   1.107083 S    
C2    C12   1.419907 S    
N3    O9    1.301056 A    
C23   N2    1.368423 A    
C16   H8    1.083399 S    
C19   H9    1.113072 S    
O1    Zn1   1.997501 S    
C11   H6    1.106045 S    
Zn1   O7    1.996352 S    
C22   C23   1.419535 A    
C13   C18   1.361600 A    
C26   H16   1.112399 S    
C18   C19   1.494986 S    
C6    C7    1.525892 S    
C1    C14   1.420429 S    
C9    C10   1.544008 S    
C24   C25   1.487009 S    
C16   C17   1.402749 A    
C9    H4    1.110440 S    
Zn2   N1    2.016613 S    
C3    C17   1.419176 S    
C6    C11   1.542707 S    
O2    C1    1.285737 A    
C10   H5    1.110444 S    
N3    O10   1.301314 A    
C22   H11   1.080553 S    
O4    C2    1.280835 A    
O7    C4    1.278090 A    
C26   H15   1.106268 S    
C25   H13   1.111966 S    
C8    H3    1.110378 S    
C5    C6    1.543503 S    
N2    C24   1.362897 A    
C23   H12   1.080806 S    
C21   C26   1.492546 S    
C7    C10   1.526035 S    
C8    C9    1.543780 S    
O3    C2    1.279442 A    
C25   C26   1.516291 S    
N1    C22   1.369354 A    
C9    C12   1.528236 S    
Zn1   O5    1.994814 S    
C19   H10   1.111592 S    
O5    C3    1.285257 A    
C10   C11   1.541955 S    
C5    C12   1.527480 S    
C5    C8    1.542847 S    
O3    Zn1   1.985169 S    
C20   Br1   1.945862 S    
C4    C7    1.417273 S    
C21   C24   1.407879 A    
Zn2   O6    1.997500 S    
O2    Zn2   1.994814 S    
C20   N3    1.467995 S    
C7    C8    1.528936 S    
O8    C4    1.280961 A    
C6    H1    1.110449 S    
O1    C1    1.286443 A    
O6    C3    1.286111 A    
Zn1   N2    2.016330 S    
