data_mof_unit_4083.cif
_audit_creation_date              2012-12-10T18:16:15-0500
_audit_creation_method            fapswitch 2.2
_symmetry_space_group_name_H-M    P1
_symmetry_Int_Tables_number       1
_space_group_crystal_system       triclinic
_cell_length_a                    12.597216
_cell_length_b                    13.10978
_cell_length_c                    27.642246
_cell_angle_alpha                 90.677466
_cell_angle_beta                  103.261712
_cell_angle_gamma                 82.051078
_cell_volume                      4399.65817022

loop_
_atom_site_label
_atom_site_type_symbol
_atom_type_description
_atom_site_fract_x
_atom_site_fract_y
_atom_site_fract_z
_atom_type_partial_charge
C1    C     C_R   0.438556 0.691427 0.495995 0.848081
C2    C     C_R   0.419895 0.530394 0.017199 -0.014651
C3    C     C_R   0.612744 0.448684 0.036285 0.003640
C4    C     C_R   0.501075 0.501471 0.593883 0.880565
C5    C     C_R   0.516199 0.487236 0.052143 0.025657
C6    C     C_R   0.318243 0.542718 0.031821 0.435238
C7    C     C_R   0.317193 0.535621 0.081815 -0.181007
C8    C     C_R   0.415211 0.509304 0.117702 -0.096812
C9    C     C_R   0.515053 0.481222 0.102994 -0.107889
C10   C     C_R   0.613071 0.447048 0.138923 -0.129774
C11   C     C_R   0.608140 0.447368 0.189383 0.599524
C12   C     C_R   0.430762 0.467652 0.716915 -0.171353
C13   C     C_R   0.414824 0.506533 0.168047 0.602009
C14   C     C_R   0.550025 0.560508 0.282777 0.496355
C15   C     C_R   0.548131 0.563779 0.332916 -0.375665
C16   C     C_R   0.561420 0.308660 0.506053 0.882703
C17   C     C_R   0.455412 0.411019 0.324454 0.280306
C18   C     C_R   0.462612 0.404299 0.274688 0.421198
C19   C     C_R   0.508385 0.480131 0.253885 0.016076
C20   C     C_R   0.428703 0.554478 0.968621 -0.017863
C21   C     C_R   0.518916 0.503102 0.951409 0.012937
C22   C     C_R   0.609114 0.445638 0.984780 0.098291
C23   C     C_R   0.510652 0.517359 0.748312 0.228936
C24   C     C_R   0.354828 0.632563 0.938221 0.532652
C25   C     C_R   0.688510 0.389231 0.914823 -0.111095
C26   C     C_R   0.709515 0.414633 0.072312 -0.253528
C27   C     C_R   0.711123 0.414709 0.122832 0.444684
C28   C     C_R   0.499428 0.497534 0.406285 0.973287
C29   C     C_R   0.692408 0.387530 0.965441 -0.196399
C30   C     C_R   0.703372 0.066003 0.574213 -0.169729
C31   C     C_R   0.598347 0.200042 0.516733 -0.057494
C32   C     C_R   0.299213 0.837538 0.459601 -0.184569
C33   C     C_R   0.271552 0.941952 0.447984 -0.129873
C34   C     C_R   0.519432 0.509978 0.900698 -0.063428
C35   C     C_R   0.345869 0.009701 0.467070 -0.173857
C36   C     C_R   0.447552 0.974050 0.500486 0.083467
C37   C     C_R   0.466775 0.871255 0.517982 0.095043
C38   C     C_R   0.530797 0.036767 0.517224 0.072429
C39   C     C_R   0.622943 0.001920 0.556452 0.170968
C40   C     C_R   0.436398 0.578758 0.817837 0.577435
C41   C     C_R   0.631878 0.904834 0.578113 -0.219705
C42   C     C_R   0.554463 0.840256 0.559218 -0.200053
C43   C     C_R   0.525324 0.133132 0.495608 -0.234185
C44   C     C_R   0.689922 0.166009 0.555013 -0.195370
C45   C     C_R   0.436316 0.575722 0.868457 -0.068349
C46   C     C_R   0.398563 0.801377 0.493180 -0.113212
C47   C     C_R   0.088090 0.343976 0.432552 -0.277843
C48   C     C_R   0.799891 0.630257 0.558567 -0.114885
C49   C     C_R   0.905368 0.659111 0.571204 0.448255
C50   C     C_R   0.985461 0.611374 0.547748 -0.263746
C51   C     C_R   0.962457 0.531529 0.513720 -0.060423
C52   C     C_R   0.598663 0.454769 0.831297 0.574917
C53   C     C_R   0.854714 0.504020 0.503297 0.211206
C54   C     C_R   0.041649 0.477956 0.489754 0.021499
C55   C     C_R   0.011431 0.398237 0.456216 0.178311
C56   C     C_R   0.357854 0.639704 0.887562 -0.282887
C57   C     C_R   0.905251 0.372771 0.446829 -0.254114
C58   C     C_R   0.828317 0.424791 0.470121 -0.165712
C59   C     C_R   0.150553 0.499283 0.497836 -0.050504
C60   C     C_R   0.194232 0.368598 0.442346 0.043218
C61   C     C_R   0.586175 0.563970 0.728910 0.455640
C62   C     C_R   0.582823 0.558215 0.678332 -0.270370
C63   C     C_R   0.426740 0.463009 0.666309 -0.206339
C64   C     C_3   0.501859 0.242652 0.247164 0.121186
C65   C     C_3   0.453960 0.157339 0.215258 -0.742244
C66   C     C_3   0.918537 0.714536 0.650883 0.077493
C67   C     C_R   0.603170 0.451043 0.882241 -0.015931
C68   C     C_3   0.962064 0.795840 0.686866 -0.734429
C69   C     C_3   0.520900 0.723360 0.250934 0.087200
C70   C     C_3   0.567184 0.799080 0.222881 -0.757497
C71   C     C_3   0.205252 0.767006 0.929310 0.125191
C72   C     C_3   0.132973 0.827756 0.959883 -0.708298
C73   C     C_R   0.503581 0.507251 0.646862 -0.094751
C74   C     C_R   0.499338 0.490872 0.353677 -0.255877
Cl1   Cl    Cl    0.684565 0.630727 0.767136 -0.588376
Cl2   Cl    Cl    0.396791 0.315203 0.349677 -0.615796
Cl3   Cl    Cl    0.839869 0.371707 0.163089 -0.488922
Cl4   Cl    Cl    0.190168 0.543583 0.989055 -0.593890
H1    H     H_    0.364868 0.423560 0.642610 0.172815
H2    H     H_    0.244911 0.784723 0.440963 0.167764
H3    H     H_    0.320371 0.089608 0.456022 0.138779
H4    H     H_    0.194434 0.969914 0.422344 0.154603
H5    H     H_    0.562894 0.766088 0.577497 0.151735
H6    H     H_    0.254989 0.326778 0.424824 0.181029
H7    H     H_    0.881485 0.311916 0.421414 0.164086
H8    H     H_    0.066302 0.282809 0.407026 0.163415
H9    H     H_    0.181398 0.557781 0.522681 0.132453
H10   H     H_    0.735257 0.668504 0.574732 0.137597
H11   H     H_    0.301255 0.696183 0.862822 0.175951
H12   H     H_    0.753258 0.342478 0.901405 0.195911
H13   H     H_    0.064721 0.637935 0.557316 0.166243
H14   H     H_    0.748675 0.400873 0.461528 0.211209
H15   H     H_    0.583113 0.624521 0.355430 0.199986
H16   H     H_    0.238665 0.547721 0.092285 0.225166
H17   H     H_    0.641458 0.594412 0.663649 0.172358
H18   H     H_    0.534639 0.211836 0.285893 0.169233
H19   H     H_    0.570902 0.264321 0.232403 0.151580
H20   H     H_    0.422146 0.185267 0.176139 0.259215
H21   H     H_    0.518777 0.090139 0.216429 0.197565
H22   H     H_    0.385619 0.132687 0.229427 0.274359
H23   H     H_    0.786893 0.391113 0.062133 0.185001
H24   H     H_    0.966936 0.638286 0.664230 0.157524
H25   H     H_    0.830676 0.713639 0.651456 0.137167
H26   H     H_    0.914466 0.872738 0.674963 0.241751
H27   H     H_    0.953716 0.777162 0.724784 0.226297
H28   H     H_    0.050354 0.798133 0.687870 0.264344
H29   H     H_    0.505492 0.760301 0.285627 0.146105
H30   H     H_    0.441364 0.706801 0.226890 0.163024
H31   H     H_    0.582096 0.764658 0.187708 0.262764
H32   H     H_    0.507643 0.870816 0.213932 0.203887
H33   H     H_    0.645951 0.818533 0.246018 0.264222
H34   H     H_    0.759350 0.336972 0.988468 0.155103
H35   H     H_    0.153618 0.717425 0.903696 0.174924
H36   H     H_    0.235918 0.823357 0.907958 0.139382
H37   H     H_    0.181626 0.878713 0.985740 0.251074
H38   H     H_    0.062897 0.875916 0.934830 0.204054
H39   H     H_    0.100036 0.774364 0.981755 0.285823
H40   H     H_    0.746908 0.218102 0.571858 0.164144
H41   H     H_    0.699422 0.878297 0.609232 0.161489
H42   H     H_    0.773477 0.040495 0.604397 0.149906
H43   H     H_    0.372515 0.431770 0.731965 0.160191
H44   H     H_    0.461178 0.160653 0.463603 0.167435
N1    N     N_R   0.515928 0.517747 0.800402 -0.342770
N2    N     N_R   0.510381 0.477167 0.202458 -0.326543
N3    N     N_R   0.222180 0.444690 0.474320 -0.111015
N4    N     N_R   0.776980 0.554780 0.525420 -0.146191
O1    O     O_R   0.366730 0.627160 0.487740 -0.617583
O2    O     O_R   0.410930 0.482330 0.420550 -0.563522
O3    O     O_R   0.589030 0.517690 0.436960 -0.635134
O4    O     O_2   0.357621 0.641610 0.786169 -0.554706
O5    O     O_3   0.418498 0.327423 0.245311 -0.538787
O6    O     O_3   0.929415 0.739647 0.602847 -0.608765
O7    O     O_3   0.597611 0.632836 0.262174 -0.568655
O8    O     O_3   0.294577 0.707133 0.961755 -0.596367
O9    O     O_2   0.320051 0.534335 0.182783 -0.528960
O10   O     O_2   0.675611 0.395524 0.812589 -0.531611
O11   O     O_2   0.699125 0.418317 0.225438 -0.477672
O12   O     O_R   0.544830 0.662520 0.504140 -0.608990
O13   O     O_R   0.410970 0.482310 0.563040 -0.621023
O14   O     O_R   0.589070 0.517670 0.579450 -0.627811
O15   O     O_R   0.455170 0.337480 0.495860 -0.606848
O16   O     O_R   0.633270 0.372840 0.512260 -0.642855
Zn1   Zn    Zn3+2 0.381080 0.476390 0.489050 0.974723
Zn2   Zn    Zn3+2 0.618920 0.523610 0.510950 0.935526

loop_
_geom_bond_atom_site_label_1
_geom_bond_atom_site_label_2
_ccdc_geom_bond_type
C10   C27   A    
C66   C68   S    
C8    C13   A    
C22   C29   A    
C41   C42   A    
C66   H24   S    
C29   H34   S    
C35   C36   A    
C25   C67   A    
C28   C74   S    
C71   O8    S    
C1    O1    A    
C35   H3    S    
C7    C8    A    
C39   C41   A    
O3    Zn2   S    
C63   H1    S    
C61   Cl1   S    
C16   C31   S    
C12   C23   A    
C26   C27   A    
C31   C43   A    
C36   C37   A    
C65   H20   S    
C18   C19   A    
O15   Zn1   S    
C26   H23   S    
C38   C39   A    
C52   N1    A    
C1    C46   S    
C6    Cl4   S    
C32   H2    S    
C70   H33   S    
C71   H35   S    
C28   O3    A    
C37   C42   A    
C40   N1    A    
C70   H32   S    
C47   C60   A    
O13   Zn1   S    
C12   H43   S    
C11   N2    A    
C45   C56   A    
C8    C9    A    
C72   H39   S    
C17   Cl2   S    
C48   H10   S    
C62   C73   A    
C33   H4    S    
C61   C62   A    
C21   C22   A    
C13   O9    S    
C30   C44   A    
C18   O5    S    
C2    C6    A    
C68   H28   S    
C14   C19   A    
C69   H30   S    
C50   C51   A    
C66   O6    S    
C54   C59   A    
C25   C29   A    
C40   C45   A    
C49   O6    S    
C19   N2    S    
C31   C44   A    
C2    C20   A    
C47   H8    S    
C20   C24   A    
C64   H18   S    
C10   C11   A    
C13   N2    A    
C23   N1    S    
C21   C34   A    
C63   C73   A    
C60   N3    A    
C71   H36   S    
C51   C53   A    
C16   O16   A    
C5    C9    A    
C70   H31   S    
C4    O14   A    
C72   H37   S    
C64   O5    S    
C44   H40   S    
C17   C18   A    
C25   H12   S    
C34   C45   A    
O1    Zn1   S    
C41   H41   S    
C43   H44   S    
C65   H21   S    
C4    C73   S    
C52   C67   A    
C56   H11   S    
C55   C57   A    
C17   C74   A    
C52   O10   S    
O16   Zn2   S    
C2    C5    A    
C59   N3    A    
C68   H27   S    
C3    C5    A    
C47   C55   A    
C9    C10   A    
C24   O8    S    
C12   C63   A    
C7    H16   S    
C40   O4    S    
C54   C55   A    
C64   H19   S    
C69   O7    S    
C32   C46   A    
C66   H25   S    
C3    C26   A    
C42   H5    S    
O14   Zn2   S    
C65   H22   S    
C27   Cl3   S    
C34   C67   A    
C15   H15   S    
C53   C58   A    
C6    C7    A    
C14   O7    S    
C24   C56   A    
C72   H38   S    
C51   C54   A    
C64   C65   S    
C36   C38   A    
C16   O15   A    
C11   O11   S    
C38   C43   A    
O12   Zn2   S    
C32   C33   A    
C4    O13   A    
C60   H6    S    
C57   C58   A    
C30   H42   S    
N3    Zn1   S    
C48   C49   A    
N4    Zn2   S    
C33   C35   A    
C57   H7    S    
C30   C39   A    
C69   C70   S    
O2    Zn1   S    
C59   H9    S    
C53   N4    A    
C48   N4    A    
C50   H13   S    
C23   C61   A    
C15   C74   A    
C71   C72   S    
C20   C21   A    
C49   C50   A    
C14   C15   A    
C3    C22   A    
C68   H26   S    
C37   C46   A    
C62   H17   S    
C58   H14   S    
C69   H29   S    
C1    O12   A    
C28   O2    A    
