data_mof_unit_1224.cif
_audit_creation_date              2012-12-10T20:38:18-0500
_audit_creation_method            fapswitch 2.2
_symmetry_space_group_name_H-M    P1
_symmetry_Int_Tables_number       1
_space_group_crystal_system       triclinic
_cell_length_a                    9.856754
_cell_length_b                    10.683085
_cell_length_c                    16.653658
_cell_angle_alpha                 90.030464
_cell_angle_beta                  85.25012
_cell_angle_gamma                 89.725691
_cell_volume                      1747.59584198

loop_
_atom_site_label
_atom_site_type_symbol
_atom_type_description
_atom_site_fract_x
_atom_site_fract_y
_atom_site_fract_z
_atom_type_partial_charge
C1    C     C_R   0.500148 0.740170 0.497387 0.886762
C2    C     C_R   0.345008 0.423466 0.775902 -0.220671
C3    C     C_R   0.433621 0.325842 0.160794 -0.161557
C4    C     C_R   0.422062 0.378526 0.236942 -0.207820
C5    C     C_R   0.651890 0.459571 0.214944 -0.207877
C6    C     C_R   0.662593 0.408269 0.137758 -0.167456
C7    C     C_R   0.551689 0.345040 0.109668 0.205133
C8    C     C_2   0.443367 0.360644 0.985744 -0.224079
C9    C     C_2   0.550861 0.321583 0.023409 -0.254358
C10   C     C_R   0.529771 0.448233 0.263850 -0.027334
C11   C     C_R   0.379900 0.937099 0.481063 0.142053
C12   C     C_R   0.480924 0.496815 0.653574 0.875276
C13   C     C_R   0.501833 0.871568 0.483905 -0.109491
C14   C     C_R   0.626257 0.934699 0.470541 -0.227820
C15   C     C_R   0.626648 0.064175 0.470317 -0.221996
C16   C     C_R   0.502630 0.128760 0.483492 -0.105317
C17   C     C_R   0.380382 0.064851 0.480896 0.132807
C18   C     C_3   0.252296 0.073553 0.535295 -0.470677
C19   C     C_3   0.251722 0.931774 0.535566 -0.500780
C20   C     C_R   0.918967 0.520652 0.569657 0.226750
C21   C     C_R   0.937566 0.468361 0.432780 -0.145626
C22   C     C_R   0.081469 0.468445 0.432764 -0.135497
C23   C     C_R   0.500696 0.259950 0.497181 0.880750
C24   C     C_R   0.061547 0.519721 0.569782 0.211929
C25   C     C_3   0.060448 0.633338 0.621584 -0.517162
C26   C     C_3   0.906649 0.635679 0.620554 -0.507486
C27   C     C_R   0.518787 0.492628 0.346764 0.855205
C28   C     C_R   0.467900 0.470516 0.739672 -0.082661
C29   C     C_R   0.581779 0.478362 0.783843 -0.213302
C30   C     C_R   0.573844 0.438911 0.863139 -0.201222
C31   C     C_R   0.452478 0.388040 0.899367 0.191674
C32   C     C_R   0.336304 0.380412 0.855268 0.234500
H1    H     H_    0.677297 0.514564 0.757110 0.151947
H2    H     H_    0.754234 0.423790 0.098528 0.124105
H3    H     H_    0.722824 0.885275 0.466177 0.170809
H4    H     H_    0.723355 0.112498 0.465853 0.172106
H5    H     H_    0.268478 0.115004 0.595030 0.204519
H6    H     H_    0.166966 0.115141 0.504487 0.204615
H7    H     H_    0.267667 0.890978 0.595516 0.201790
H8    H     H_    0.165888 0.891787 0.504810 0.203807
H9    H     H_    0.891261 0.444657 0.378177 0.149258
H10   H     H_    0.143007 0.444828 0.378105 0.144960
H11   H     H_    0.095215 0.612540 0.682004 0.200180
H12   H     H_    0.329132 0.363322 0.275010 0.145399
H13   H     H_    0.111069 0.713997 0.590199 0.214708
H14   H     H_    0.853296 0.618004 0.680723 0.193304
H15   H     H_    0.867981 0.717592 0.587961 0.214351
H16   H     H_    0.737527 0.509761 0.235811 0.144153
H17   H     H_    0.645918 0.296238 0.989496 0.152370
H18   H     H_    0.348168 0.274702 0.140468 0.129789
H19   H     H_    0.256694 0.415482 0.741536 0.161785
H20   H     H_    0.350905 0.390852 0.020548 0.162341
H21   H     H_    0.662474 0.451477 0.896513 0.140053
N1    N     N_R   0.857140 0.500860 0.500530 -0.106533
N2    N     N_R   0.142780 0.500820 0.500530 -0.104405
O1    O     O_R   0.385310 0.683210 0.499990 -0.609789
O2    O     O_R   0.614650 0.683240 0.500000 -0.620211
O3    O     O_R   0.371780 0.500000 0.615800 -0.620789
O4    O     O_R   0.601120 0.500040 0.615800 -0.611385
O5    O     O_R   0.385350 0.316760 0.500000 -0.618375
O6    O     O_R   0.614690 0.316790 0.500010 -0.618937
O7    O     O_R   0.398880 0.499960 0.384200 -0.624394
O8    O     O_R   0.628220 0.500000 0.384200 -0.622854
Zn1   Zn    Zn3+2 0.346870 0.499980 0.499990 0.938647
Zn2   Zn    Zn3+2 0.653130 0.500020 0.500010 0.942483
C33   C     C_3   0.202998 0.325056 0.889036 -0.975846
H22   H     H_    0.210273 0.276862 0.947421 0.244504
H23   H     H_    0.124802 0.400172 0.896983 0.242036
H24   H     H_    0.168565 0.254223 0.846390 0.246854

loop_
_geom_bond_atom_site_label_1
_geom_bond_atom_site_label_2
_ccdc_geom_bond_type
C10   C27   S    
C33   H23   S    
O1    Zn1   S    
C22   N2    A    
C27   O7    A    
O6    Zn2   S    
C8    H20   S    
C32   C33   S    
O7    Zn1   S    
C31   C32   A    
C21   N1    A    
O5    Zn1   S    
C6    C7    A    
C12   O3    A    
N2    Zn1   S    
C25   H11   S    
O8    Zn2   S    
C17   C18   S    
C18   H6    S    
C5    C10   A    
N1    Zn2   S    
C22   H10   S    
C21   C22   A    
O4    Zn2   S    
C24   N2    A    
C11   C13   A    
C30   C31   A    
C11   C19   S    
C29   C30   A    
C27   O8    A    
C26   H15   S    
C12   C28   S    
C21   H9    S    
C5    C6    A    
C19   H7    S    
C2    C32   A    
C28   C29   A    
C30   H21   S    
C18   H5    S    
C33   H22   S    
C16   C23   S    
C3    C7    A    
C12   O4    A    
O3    Zn1   S    
C23   O5    A    
C5    H16   S    
C1    O1    A    
C33   H24   S    
C1    C13   S    
C19   H8    S    
C26   H14   S    
C4    C10   A    
C15   C16   A    
C16   C17   A    
C25   H13   S    
C15   H4    S    
C23   O6    A    
C9    H17   S    
C24   C25   S    
C20   N1    A    
C18   C19   S    
C2    H19   S    
C14   H3    S    
C7    C9    S    
C20   C24   A    
C14   C15   A    
C11   C17   A    
C2    C28   A    
C4    H12   S    
C25   C26   S    
C13   C14   A    
C8    C31   S    
C3    H18   S    
C3    C4    A    
C6    H2    S    
C29   H1    S    
O2    Zn2   S    
C8    C9    D    
C20   C26   S    
C1    O2    A    
