data_mof_unit_1155.cif
_audit_creation_date              2012-12-11T14:42:05-0500
_audit_creation_method            fapswitch 2.2
_symmetry_space_group_name_H-M    P1
_symmetry_Int_Tables_number       1
_space_group_crystal_system       triclinic
_cell_length_a                    18.873021
_cell_length_b                    10.916936
_cell_length_c                    18.658073
_cell_angle_alpha                 90.027195
_cell_angle_beta                  90.20551
_cell_angle_gamma                 90.011131
_cell_volume                      3844.20132813

loop_
_atom_site_label
_atom_site_type_symbol
_atom_type_description
_atom_site_fract_x
_atom_site_fract_y
_atom_site_fract_z
_atom_type_partial_charge
C1    C     C_R   0.728131 0.952854 0.852792 0.537095
C2    C     C_R   0.271865 0.952826 0.147213 0.537116
C3    C     C_R   0.228131 0.452853 0.852792 0.537070
C4    C     C_R   0.771865 0.452826 0.147213 0.537139
C5    C     C_R   0.688773 0.443017 0.043223 -0.138743
C6    C     C_R   0.311218 0.443062 0.956802 -0.138839
C7    C     C_R   0.188773 0.943018 0.043223 -0.138750
C8    C     C_R   0.811218 0.943061 0.956802 -0.138833
C9    C     C_R   0.747540 0.396286 0.080509 0.033961
C10   C     C_R   0.252430 0.396366 0.919495 0.033935
C11   C     C_R   0.247540 0.896286 0.080509 0.033953
C12   C     C_R   0.752430 0.896366 0.919495 0.033940
C13   C     C_R   0.790197 0.306887 0.048309 -0.123791
C14   C     C_R   0.209726 0.307019 0.951668 -0.123815
C15   C     C_R   0.290197 0.806888 0.048309 -0.123801
C16   C     C_R   0.709727 0.807019 0.951668 -0.123804
C17   C     C_R   0.779934 0.276529 0.977158 -0.128421
C18   C     C_R   0.219979 0.276660 0.022805 -0.128489
C19   C     C_R   0.279934 0.776530 0.977157 -0.128427
C20   C     C_R   0.719980 0.776659 0.022805 -0.128483
C21   C     C_R   0.726614 0.333982 0.937121 0.020989
C22   C     C_R   0.273336 0.334060 0.062865 0.021004
C23   C     C_R   0.226614 0.833983 0.937121 0.020991
C24   C     C_R   0.773336 0.834059 0.062865 0.021002
C25   C     C_R   0.489564 0.273089 0.538487 -0.148471
C26   C     C_R   0.496438 0.274508 0.466444 -0.147772
C27   C     C_R   0.991204 0.773307 0.537882 -0.148473
C28   C     C_R   0.998195 0.774421 0.465857 -0.147959
C29   C     C_R   0.497603 0.164971 0.427863 0.007111
C30   C     C_R   0.495795 0.163197 0.575649 0.005351
C31   C     C_R   0.998487 0.664807 0.427420 0.006932
C32   C     C_R   0.996581 0.663400 0.575206 0.005572
C33   C     C_R   0.500483 0.049490 0.463415 -0.025914
C34   C     C_R   0.495692 0.048483 0.539235 -0.024617
C35   C     C_R   0.001058 0.549404 0.463051 -0.025726
C36   C     C_R   0.996242 0.548593 0.538870 -0.024750
C37   C     C_R   0.776390 0.270337 0.519520 -0.141256
C38   C     C_R   0.223841 0.270051 0.480486 -0.140850
C39   C     C_R   0.276355 0.770297 0.519498 -0.141252
C40   C     C_R   0.723784 0.770122 0.480459 -0.140860
C41   C     C_R   0.782560 0.296174 0.447035 -0.134178
C42   C     C_R   0.217642 0.295975 0.552968 -0.134192
C43   C     C_R   0.282506 0.796096 0.447005 -0.134157
C44   C     C_R   0.717573 0.796067 0.552934 -0.134208
C45   C     C_R   0.559593 0.181982 0.858293 0.545307
C46   C     C_R   0.440420 0.181921 0.141704 0.545616
C47   C     C_R   0.059598 0.681983 0.858292 0.545358
C48   C     C_R   0.940425 0.681920 0.141703 0.545563
C49   C     C_R   0.743754 0.392327 0.416613 0.027293
C50   C     C_R   0.256251 0.392440 0.583366 0.027523
C51   C     C_R   0.243728 0.892296 0.416594 0.027341
C52   C     C_R   0.756234 0.892447 0.583353 0.027465
C53   C     C_R   0.687932 0.444176 0.455576 -0.144637
C54   C     C_R   0.311818 0.444866 0.544326 -0.145774
C55   C     C_R   0.187923 0.944184 0.455569 -0.144768
C56   C     C_R   0.811857 0.944758 0.544340 -0.145633
C57   C     C_R   0.679556 0.414788 0.527845 -0.130810
C58   C     C_R   0.320046 0.415798 0.472005 -0.131584
C59   C     C_R   0.179562 0.914828 0.527845 -0.130864
C60   C     C_R   0.820125 0.915611 0.472031 -0.131477
C61   C     C_R   0.727270 0.333594 0.561361 0.027716
C62   C     C_R   0.272660 0.333867 0.438590 0.028646
C63   C     C_R   0.227265 0.833604 0.561354 0.027810
C64   C     C_R   0.772677 0.833813 0.438589 0.028526
C65   C     C_R   0.723516 0.311210 0.860015 0.554899
C66   C     C_R   0.276465 0.311226 0.139960 0.554682
C67   C     C_R   0.223516 0.811210 0.860015 0.554900
C68   C     C_R   0.776465 0.811226 0.139960 0.554680
C69   C     C_R   0.729791 0.950609 0.649033 0.543832
C70   C     C_R   0.270203 0.950616 0.350967 0.543675
C71   C     C_R   0.229796 0.450599 0.649041 0.543810
C72   C     C_R   0.770209 0.450627 0.350974 0.543714
C73   C     C_R   0.527269 0.175171 0.646066 0.547492
C74   C     C_R   0.471364 0.175510 0.355139 0.546024
C75   C     C_R   0.027424 0.675202 0.645922 0.547302
C76   C     C_R   0.971554 0.675478 0.354979 0.546221
C77   C     C_R   0.724810 0.310277 0.638771 0.575861
C78   C     C_R   0.275176 0.310348 0.361222 0.575196
C79   C     C_R   0.224811 0.810285 0.638768 0.575778
C80   C     C_R   0.775182 0.810327 0.361218 0.575318
C81   C     C_2   0.537584 0.176908 0.932452 -0.101083
C82   C     C_2   0.462451 0.176770 0.067554 -0.101189
C83   C     C_2   0.037599 0.676910 0.932454 -0.101116
C84   C     C_2   0.962466 0.676767 0.067556 -0.101155
C85   C     C_2   0.486431 0.073846 0.036722 -0.145697
C86   C     C_2   0.513942 0.073852 0.963366 -0.145758
C87   C     C_2   0.986461 0.573847 0.036731 -0.145696
C88   C     C_2   0.013973 0.573851 0.963375 -0.145761
C89   C     C_R   0.678417 0.412290 0.971424 -0.146555
C90   C     C_R   0.321563 0.412338 0.028591 -0.146519
C91   C     C_R   0.178418 0.912292 0.971424 -0.146559
C92   C     C_R   0.821564 0.912336 0.028591 -0.146514
Cr1   Cr    Cr6+3 0.769270 0.163730 0.750710 0.975834
Cr2   Cr    Cr6+3 0.230730 0.163730 0.249290 0.976373
Cr3   Cr    Cr6+3 0.269270 0.663730 0.750710 0.975735
Cr4   Cr    Cr6+3 0.730730 0.663730 0.249290 0.976477
Cr5   Cr    Cr6+3 0.612620 0.009790 0.748780 1.015404
Cr6   Cr    Cr6+3 0.387380 0.009790 0.251220 1.015515
Cr7   Cr    Cr6+3 0.112620 0.509790 0.748780 1.015458
Cr8   Cr    Cr6+3 0.887380 0.509790 0.251220 1.015464
Cr9   Cr    Cr6+3 0.614160 0.322500 0.747710 0.998181
Cr10  Cr    Cr6+3 0.385840 0.322500 0.252290 0.998399
Cr11  Cr    Cr6+3 0.114160 0.822500 0.747710 0.998219
Cr12  Cr    Cr6+3 0.885840 0.822500 0.252290 0.998349
H1    H     H_    0.485802 0.987194 0.065290 0.152191
H2    H     H_    0.514854 0.987098 0.934865 0.152247
H3    H     H_    0.985842 0.487200 0.065304 0.152182
H4    H     H_    0.014894 0.487093 0.934879 0.152254
H5    H     H_    0.821370 0.247124 0.415928 0.126601
H6    H     H_    0.179019 0.246665 0.584125 0.126635
H7    H     H_    0.321298 0.747003 0.415885 0.126600
H8    H     H_    0.678907 0.746831 0.584070 0.126616
H9    H     H_    0.653415 0.511722 0.431440 0.114852
H10   H     H_    0.346232 0.512617 0.568463 0.113552
H11   H     H_    0.153409 0.011739 0.431435 0.114684
H12   H     H_    0.846287 0.012481 0.568483 0.113704
H13   H     H_    0.638155 0.459964 0.557930 0.123541
H14   H     H_    0.361116 0.461679 0.441833 0.120710
H15   H     H_    0.138181 0.960048 0.557938 0.123225
H16   H     H_    0.861266 0.961349 0.441883 0.121134
H17   H     H_    0.458564 0.262116 0.038167 0.097145
H18   H     H_    0.541222 0.262392 0.961784 0.097330
H19   H     H_    0.958572 0.762108 0.038165 0.097150
H20   H     H_    0.041230 0.762400 0.961781 0.097325
H21   H     H_    0.635041 0.454068 0.942202 0.125530
H22   H     H_    0.364969 0.454072 0.057827 0.125534
H23   H     H_    0.135042 0.954070 0.942202 0.125530
H24   H     H_    0.864970 0.954070 0.057827 0.125533
H25   H     H_    0.653464 0.508342 0.068121 0.117531
H26   H     H_    0.346565 0.508330 0.931926 0.117364
H27   H     H_    0.153464 0.008343 0.068121 0.117515
H28   H     H_    0.846565 0.008329 0.931925 0.117379
H29   H     H_    0.834706 0.266390 0.076439 0.132608
H30   H     H_    0.165197 0.266541 0.923525 0.132619
H31   H     H_    0.334706 0.766391 0.076438 0.132609
H32   H     H_    0.665197 0.766541 0.923525 0.132619
H33   H     H_    0.816314 0.212979 0.952397 0.123957
H34   H     H_    0.183576 0.213124 0.047533 0.123900
H35   H     H_    0.316314 0.712980 0.952397 0.123950
H36   H     H_    0.683577 0.713123 0.047533 0.123907
H37   H     H_    0.486763 0.361040 0.565416 0.136326
H38   H     H_    0.495178 0.363621 0.440811 0.136298
H39   H     H_    0.988805 0.861417 0.564663 0.136370
H40   H     H_    0.997448 0.863431 0.440090 0.136360
H41   H     H_    0.811860 0.204489 0.543419 0.121551
H42   H     H_    0.188627 0.203680 0.456629 0.121431
H43   H     H_    0.311826 0.704453 0.543396 0.121486
H44   H     H_    0.688527 0.703827 0.456589 0.121489
O1    O     O_R   0.784320 0.290430 0.830510 -0.517610
O2    O     O_R   0.215680 0.290430 0.169490 -0.517623
O3    O     O_R   0.284320 0.790430 0.830510 -0.517704
O4    O     O_R   0.715680 0.790430 0.169490 -0.517516
O5    O     O_R   0.554640 0.080370 0.673500 -0.482373
O6    O     O_R   0.445360 0.080370 0.326500 -0.481522
O7    O     O_R   0.054640 0.580370 0.673500 -0.482287
O8    O     O_R   0.945360 0.580370 0.326500 -0.481586
O9    O     O_R   0.543920 0.282180 0.666790 -0.532701
O10   O     O_R   0.456080 0.282180 0.333210 -0.533053
O11   O     O_R   0.043920 0.782180 0.666790 -0.532779
O12   O     O_R   0.956080 0.782180 0.333210 -0.533077
O13   O     O_R   0.679040 0.374160 0.674430 -0.496302
O14   O     O_R   0.320960 0.374160 0.325570 -0.497046
O15   O     O_R   0.179040 0.874160 0.674430 -0.496370
O16   O     O_R   0.820960 0.874160 0.325570 -0.496948
O17   O     O_3   0.665350 0.165340 0.749070 -0.296129
O18   O     O_3   0.334650 0.165340 0.250930 -0.296430
O19   O     O_3   0.165350 0.665340 0.749070 -0.296148
O20   O     O_3   0.834650 0.665340 0.250930 -0.296399
O21   O     O_R   0.762640 0.040960 0.825200 -0.525256
O22   O     O_R   0.237360 0.040960 0.174800 -0.525021
O23   O     O_R   0.262640 0.540960 0.825200 -0.525281
O24   O     O_R   0.737360 0.540960 0.174800 -0.525000
O25   O     O_R   0.667400 0.923970 0.829950 -0.526151
O26   O     O_R   0.332600 0.923970 0.170050 -0.526204
O27   O     O_R   0.167400 0.423970 0.829950 -0.526170
O28   O     O_R   0.832600 0.423970 0.170050 -0.526188
O29   O     O_R   0.553960 0.081340 0.821780 -0.490968
O30   O     O_R   0.446040 0.081340 0.178220 -0.490376
O31   O     O_R   0.053960 0.581340 0.821780 -0.490880
O32   O     O_R   0.946040 0.581340 0.178220 -0.490474
O33   O     O_R   0.543180 0.283240 0.826740 -0.518167
O34   O     O_R   0.456820 0.283240 0.173260 -0.517149
O35   O     O_R   0.043180 0.783240 0.826740 -0.518042
O36   O     O_R   0.956820 0.783240 0.173260 -0.517280
O37   O     O_R   0.678360 0.375140 0.822710 -0.503495
O38   O     O_R   0.321640 0.375140 0.177290 -0.503531
O39   O     O_R   0.178360 0.875140 0.822710 -0.503492
O40   O     O_R   0.821640 0.875140 0.177290 -0.503534
O41   O     O_R   0.785050 0.289380 0.670560 -0.529048
O42   O     O_R   0.214950 0.289380 0.329440 -0.528825
O43   O     O_R   0.285050 0.789380 0.670560 -0.528977
O44   O     O_R   0.714950 0.789380 0.329440 -0.528924
O45   O     O_R   0.763320 0.039990 0.676930 -0.519987
O46   O     O_R   0.236680 0.039990 0.323070 -0.519806
O47   O     O_R   0.263320 0.539990 0.676930 -0.520006
O48   O     O_R   0.736680 0.539990 0.323070 -0.519794
O49   O     O_R   0.668130 0.922920 0.670000 -0.505557
O50   O     O_R   0.331870 0.922920 0.330000 -0.505761
O51   O     O_R   0.168130 0.422920 0.670000 -0.505533
O52   O     O_R   0.831870 0.422920 0.330000 -0.505781
C93   C     C_R   0.507856 0.933632 0.420694 0.037030
C94   C     C_R   0.558855 0.925915 0.365894 -0.064184
C95   C     C_R   0.560504 0.824322 0.320216 -0.080836
C96   C     C_R   0.515429 0.725202 0.332023 -0.115784
C97   C     C_R   0.466446 0.729641 0.387699 -0.115525
C98   C     C_R   0.461093 0.834724 0.430264 -0.072245
H45   H     H_    0.595093 0.001116 0.356487 0.114761
H46   H     H_    0.596434 0.822592 0.275227 0.156513
H47   H     H_    0.518000 0.645482 0.297613 0.103462
H48   H     H_    0.431690 0.652452 0.396851 0.093061
H49   H     H_    0.420952 0.838744 0.471206 0.116627
C99   C     C_R   0.490770 0.931546 0.581346 0.037531
C100  C     C_R   0.440629 0.920836 0.636788 -0.063259
C101  C     C_R   0.440223 0.817668 0.681213 -0.083107
C102  C     C_R   0.486020 0.720222 0.667799 -0.118035
C103  C     C_R   0.534499 0.727929 0.611821 -0.115561
C104  C     C_R   0.538573 0.834525 0.570448 -0.071681
H50   H     H_    0.403717 0.994564 0.647357 0.116694
H51   H     H_    0.404535 0.813220 0.726333 0.155406
H52   H     H_    0.484397 0.639241 0.701197 0.104010
H53   H     H_    0.569762 0.651940 0.601454 0.093390
H54   H     H_    0.578520 0.841044 0.529414 0.117300
C105  C     C_R   0.008183 0.433464 0.420359 0.036978
C106  C     C_R   0.059064 0.425543 0.365462 -0.064091
C107  C     C_R   0.060522 0.323928 0.319803 -0.080827
C108  C     C_R   0.015348 0.224991 0.331690 -0.115924
C109  C     C_R   0.966472 0.229627 0.387442 -0.115513
C110  C     C_R   0.961307 0.334744 0.430003 -0.072180
H55   H     H_    0.095377 0.500598 0.355984 0.114913
H56   H     H_    0.096398 0.322021 0.274782 0.156381
H57   H     H_    0.017761 0.145260 0.297281 0.103409
H58   H     H_    0.931651 0.152559 0.396652 0.093176
H59   H     H_    0.921204 0.338941 0.470972 0.116655
C111  C     C_R   0.991071 0.431730 0.581012 0.037540
C112  C     C_R   0.940817 0.421235 0.636365 -0.063340
C113  C     C_R   0.940225 0.318092 0.680824 -0.083035
C114  C     C_R   0.985909 0.220438 0.667493 -0.117922
C115  C     C_R   0.034482 0.227933 0.611584 -0.115638
C116  C     C_R   0.038758 0.334511 0.570202 -0.071742
H60   H     H_    0.903982 0.495116 0.646859 0.116497
H61   H     H_    0.904496 0.313838 0.725920 0.155543
H62   H     H_    0.984117 0.139451 0.700897 0.104019
H63   H     H_    0.069664 0.151796 0.601278 0.093283
H64   H     H_    0.078751 0.340848 0.529202 0.117304

loop_
_geom_bond_atom_site_label_1
_geom_bond_atom_site_label_2
_ccdc_geom_bond_type
C58   C62   A    
C95   C96   A    
Cr6   O6    S    
Cr11  O19   S    
C73   O5    A    
C55   C59   A    
C26   C29   A    
C80   O44   A    
C112  H60   S    
C14   C18   A    
Cr1   O1    S    
C35   C36   A    
C78   O42   A    
C84   C87   D    
C6    H26   S    
C3    O23   A    
C106  C107  A    
Cr2   O18   S    
C32   C75   S    
C31   C76   S    
C45   O33   A    
C89   H21   S    
C97   C98   A    
C84   H19   S    
C7    C11   A    
Cr1   O21   S    
C50   C54   A    
C91   H23   S    
C114  H62   S    
C23   C67   S    
Cr11  O35   S    
C32   C36   A    
C59   H15   S    
C17   H33   S    
C56   C60   A    
Cr4   O48   S    
C66   O2    A    
C35   C105  S    
C101  H51   S    
Cr6   O26   S    
C49   C53   A    
C15   H31   S    
C99   C104  A    
C36   C111  S    
C108  H57   S    
Cr4   O4    S    
C73   O9    A    
C8    H28   S    
C58   H14   S    
C113  C114  A    
C74   O6    A    
C93   C94   A    
Cr7   O31   S    
C33   C93   S    
C57   C61   A    
C18   H34   S    
C46   O30   A    
C103  H53   S    
C80   O16   A    
C9    C13   A    
C52   C69   S    
C46   C82   S    
C52   C56   A    
C11   C15   A    
C98   H49   S    
C22   C66   S    
C38   H42   S    
C105  C106  A    
C29   C33   A    
C53   H9    S    
C49   C72   S    
Cr7   O7    S    
C96   H47   S    
Cr8   O28   S    
C47   O31   A    
C112  C113  A    
Cr4   O20   S    
C60   H16   S    
C116  H64   S    
C28   H40   S    
C51   C70   S    
Cr5   O5    S    
C83   H20   S    
Cr6   O30   S    
C18   C22   A    
C82   H17   S    
C7    H27   S    
C81   C86   D    
C2    O26   A    
C70   O46   A    
C71   O47   A    
C44   C52   A    
C5    H25   S    
C109  H58   S    
Cr1   O17   S    
Cr10  O18   S    
C79   O43   A    
C114  C115  A    
C69   O49   A    
C64   C80   S    
Cr10  O10   S    
C86   H2    S    
C1    C12   S    
C43   H7    S    
Cr12  O12   S    
Cr9   O37   S    
C2    C11   S    
C92   H24   S    
C41   C49   A    
C67   O39   A    
C107  C108  A    
Cr7   O19   S    
Cr11  O11   S    
C77   O13   A    
Cr12  O40   S    
C65   O37   A    
Cr5   O25   S    
C94   C95   A    
Cr6   O50   S    
C67   O3    A    
Cr10  O34   S    
C12   C16   A    
C106  H55   S    
Cr11  O39   S    
C103  C104  A    
C47   O35   A    
C10   C14   A    
C61   C77   S    
C48   O36   A    
C30   C73   S    
C30   C34   A    
C101  C102  A    
C25   C30   A    
C21   C89   A    
C29   C74   S    
C14   H30   S    
C51   C55   A    
C25   C26   A    
C85   C86   S    
C115  H63   S    
C76   O8    A    
C17   C21   A    
C48   C84   S    
C113  H61   S    
C115  C116  A    
C15   C19   A    
C102  C103  A    
Cr2   O42   S    
C5    C9    A    
C68   O4    A    
Cr5   O49   S    
C72   O52   A    
C22   C90   A    
Cr5   O29   S    
C109  C110  A    
C100  C101  A    
C16   C20   A    
C1    O25   A    
C69   O45   A    
C33   C34   A    
C56   H12   S    
C25   H37   S    
C27   H39   S    
C50   C71   S    
Cr10  O38   S    
C96   C97   A    
C74   O10   A    
Cr9   O17   S    
C110  H59   S    
Cr6   O18   S    
C34   C99   S    
C2    O22   A    
C8    C92   A    
C44   H8    S    
C3    O27   A    
Cr12  O36   S    
C42   C50   A    
C78   O14   A    
C47   C83   S    
C94   H45   S    
C66   O38   A    
Cr4   O24   S    
C24   C92   A    
C23   C91   A    
C59   C63   A    
Cr3   O3    S    
C111  C112  A    
C39   H43   S    
C16   H32   S    
Cr8   O52   S    
C7    C91   A    
C48   O32   A    
Cr9   O33   S    
Cr10  O14   S    
C19   C23   A    
C57   H13   S    
C54   C58   A    
C75   O11   A    
C104  H54   S    
C20   H36   S    
C76   O12   A    
C40   H44   S    
Cr3   O47   S    
Cr3   O43   S    
C4    O24   A    
C21   C65   S    
C27   C32   A    
Cr2   O46   S    
C13   H29   S    
C62   C78   S    
C28   C31   A    
Cr1   O45   S    
C79   O15   A    
C87   H3    S    
Cr3   O19   S    
C72   O48   A    
C37   C61   A    
Cr12  O20   S    
C71   O51   A    
C63   C79   S    
Cr1   O41   S    
Cr2   O2    S    
C82   C85   D    
C39   C63   A    
C95   H46   S    
Cr11  O15   S    
C107  H56   S    
C40   C64   A    
C60   C64   A    
C81   H18   S    
Cr8   O20   S    
C100  H50   S    
C77   O41   A    
C46   O34   A    
Cr9   O13   S    
C42   H6    S    
C3    C10   S    
C6    C90   A    
C102  H52   S    
Cr2   O22   S    
C45   O29   A    
C105  C110  A    
C43   C51   A    
Cr12  O16   S    
C55   H11   S    
C97   H48   S    
Cr5   O17   S    
C54   H10   S    
C31   C35   A    
C1    O21   A    
C53   C57   A    
C83   C88   D    
C93   C98   A    
C45   C81   S    
C111  C116  A    
C37   C41   A    
Cr4   O44   S    
C6    C10   A    
C24   C68   S    
C38   C42   A    
Cr9   O9    S    
C13   C17   A    
C88   H4    S    
C75   O7    A    
C90   H22   S    
C40   C44   A    
Cr7   O27   S    
C99   C100  A    
C68   O40   A    
C87   C88   S    
C70   O50   A    
C108  C109  A    
C4    O28   A    
C39   C43   A    
Cr7   O51   S    
C27   C28   A    
C65   O1    A    
C41   H5    S    
C85   H1    S    
C37   H41   S    
C4    C9    S    
C26   H38   S    
Cr8   O8    S    
Cr3   O23   S    
C20   C24   A    
C19   H35   S    
C5    C89   A    
C8    C12   A    
C38   C62   A    
Cr8   O32   S    
