data_mof_unit_1723.cif
_audit_creation_date              2012-10-26T17:11:14-0400
_audit_creation_method            fapswitch 2.2
_symmetry_space_group_name_H-M    P1
_symmetry_Int_Tables_number       1
_space_group_crystal_system       monoclinic
_cell_length_a                    27.994966
_cell_length_b                    18.779833
_cell_length_c                    16.863002
_cell_angle_alpha                 90.0
_cell_angle_beta                  62.496112
_cell_angle_gamma                 90.0
_cell_volume                      7863.57698968

loop_
_atom_site_label
_atom_site_type_symbol
_atom_type_description
_atom_site_fract_x
_atom_site_fract_y
_atom_site_fract_z
_atom_type_partial_charge
C1    C     C_R   0.294992 0.728208 0.329668 0.553636
C2    C     C_R   0.459772 0.123760 0.474038 -0.134478
C3    C     C_R   0.926534 0.096838 0.066610 0.554335
C4    C     C_R   0.426501 0.403207 0.066635 0.553030
C5    C     C_R   0.573466 0.596838 0.933390 0.554336
C6    C     C_R   0.573461 0.403155 0.933394 0.554153
C7    C     C_R   0.426536 0.596839 0.066609 0.553453
C8    C     C_R   0.057754 0.500952 0.476891 0.047647
C9    C     C_R   0.964614 0.500381 0.451293 0.048103
C10   C     C_R   0.535386 0.000381 0.548707 0.048103
C11   C     C_R   0.442245 0.000952 0.523109 0.047647
C12   C     C_R   0.028037 0.564130 0.488213 0.011583
C13   C     C_R   0.421533 0.880023 0.577590 -0.132715
C14   C     C_R   0.993732 0.436562 0.440575 0.012778
C15   C     C_R   0.985251 0.564989 0.465667 0.011821
C16   C     C_R   0.042923 0.438210 0.446717 0.012900
C17   C     C_R   0.514749 0.064989 0.534333 0.011821
C18   C     C_R   0.457077 0.938210 0.553283 0.012900
C19   C     C_R   0.471963 0.064130 0.511787 0.011583
C20   C     C_R   0.506268 0.936562 0.559425 0.012778
C21   C     C_R   0.133831 0.438421 0.480693 -0.049110
C22   C     C_R   0.889320 0.565543 0.447778 -0.047419
C23   C     C_R   0.890829 0.435155 0.442112 -0.047268
C24   C     C_R   0.535740 0.128739 0.548005 -0.137194
C25   C     C_R   0.117903 0.563642 0.524245 -0.045596
C26   C     C_R   0.609171 0.935155 0.557888 -0.047268
C27   C     C_R   0.382097 0.063642 0.475755 -0.045596
C28   C     C_R   0.366169 0.938421 0.519307 -0.049110
C29   C     C_R   0.610680 0.065544 0.552222 -0.047419
C30   C     C_R   0.174400 0.436296 0.509646 -0.014960
C31   C     C_R   0.835987 0.565412 0.456471 -0.015875
C32   C     C_R   0.836546 0.434766 0.454535 -0.017347
C33   C     C_R   0.166618 0.564626 0.532145 -0.014588
C34   C     C_R   0.663454 0.934766 0.545465 -0.017347
C35   C     C_R   0.078466 0.380022 0.422410 -0.132715
C36   C     C_R   0.333382 0.064626 0.467855 -0.014587
C37   C     C_R   0.325600 0.936296 0.490354 -0.014959
C38   C     C_R   0.664013 0.065412 0.543529 -0.015875
C39   C     C_R   0.190808 0.499881 0.533316 0.328589
C40   C     C_R   0.810841 0.500047 0.459484 0.326194
C41   C     C_R   0.689159 0.000047 0.540516 0.326194
C42   C     C_R   0.309192 0.999881 0.466684 0.328589
C43   C     C_R   0.103007 0.500889 0.494481 0.019432
C44   C     C_R   0.914664 0.500250 0.447399 0.020105
C45   C     C_R   0.585336 0.000250 0.552601 0.020105
C46   C     C_R   0.964260 0.628739 0.451995 -0.137194
C47   C     C_R   0.396993 0.000889 0.505519 0.019432
C48   C     C_R   0.576966 0.873371 0.577342 -0.113210
C49   C     C_R   0.416755 0.122802 0.454305 -0.108523
C50   C     C_R   0.376366 0.881085 0.563469 -0.111761
C51   C     C_R   0.580521 0.128392 0.562709 -0.111284
C52   C     C_R   0.123634 0.381085 0.436531 -0.111761
C53   C     C_R   0.919479 0.628392 0.437291 -0.111284
C54   C     C_R   0.923034 0.373371 0.422658 -0.113210
C55   C     C_R   0.083244 0.622802 0.545695 -0.108523
C56   C     C_R   0.972694 0.373760 0.423200 -0.132644
C57   C     C_R   0.040228 0.623760 0.525962 -0.134478
C58   C     C_R   0.220998 0.768228 0.953293 0.029332
C59   C     C_R   0.779280 0.232203 0.046438 0.030880
C60   C     C_R   0.779363 0.767675 0.046356 0.030774
C61   C     C_R   0.705001 0.271780 0.670338 0.546399
C62   C     C_R   0.220483 0.232575 0.953782 0.030076
C63   C     C_R   0.720637 0.267675 0.953644 0.030774
C64   C     C_R   0.279516 0.732575 0.046218 0.030076
C65   C     C_R   0.279002 0.268228 0.046707 0.029332
C66   C     C_R   0.720720 0.732203 0.953562 0.030880
C67   C     C_R   0.241769 0.699271 0.947271 -0.111104
C68   C     C_R   0.758456 0.301129 0.052458 -0.109862
C69   C     C_R   0.758543 0.698747 0.052371 -0.109710
C70   C     C_R   0.241239 0.301543 0.947778 -0.110143
C71   C     C_R   0.741457 0.198747 0.947629 -0.109710
C72   C     C_R   0.705003 0.728214 0.670336 0.545109
C73   C     C_R   0.258761 0.801543 0.052221 -0.110143
C74   C     C_R   0.258231 0.199271 0.052729 -0.111104
C75   C     C_R   0.741544 0.801129 0.947542 -0.109862
C76   C     C_R   0.270667 0.681592 0.993350 -0.110391
C77   C     C_R   0.729495 0.318717 0.006446 -0.108701
C78   C     C_R   0.729581 0.681159 0.006358 -0.108404
C79   C     C_R   0.270144 0.319222 0.993860 -0.110467
C80   C     C_R   0.770419 0.181159 0.993642 -0.108404
C81   C     C_R   0.229856 0.819222 0.006140 -0.110467
C82   C     C_R   0.229333 0.181592 0.006650 -0.110391
C83   C     C_R   0.294962 0.271849 0.329686 0.536487
C84   C     C_R   0.770505 0.818717 0.993554 -0.108702
C85   C     C_R   0.144703 0.830164 0.943675 -0.118222
C86   C     C_R   0.855516 0.170183 0.056152 -0.117842
C87   C     C_R   0.855569 0.829733 0.056109 -0.118598
C88   C     C_R   0.144367 0.170370 0.943939 -0.119010
C89   C     C_R   0.644430 0.329733 0.943891 -0.118598
C90   C     C_R   0.355633 0.670370 0.056061 -0.119010
C91   C     C_R   0.355297 0.330164 0.056325 -0.118222
C92   C     C_R   0.644484 0.670183 0.943848 -0.117842
C93   C     C_R   0.117938 0.852169 0.895006 -0.014088
C94   C     C_R   0.794996 0.228214 0.329664 0.545109
C95   C     C_R   0.882181 0.148010 0.104910 -0.013425
C96   C     C_R   0.882202 0.851961 0.104896 -0.013487
C97   C     C_R   0.117797 0.148035 0.895099 -0.013853
C98   C     C_R   0.617798 0.351961 0.895104 -0.013487
C99   C     C_R   0.382203 0.648035 0.104901 -0.013853
C100  C     C_R   0.382062 0.352169 0.104994 -0.014088
C101  C     C_R   0.617819 0.648010 0.895090 -0.013425
C102  C     C_R   0.136523 0.829750 0.806911 -0.135624
C103  C     C_R   0.863568 0.170385 0.193032 -0.134088
C104  C     C_R   0.863571 0.829615 0.193033 -0.133780
C105  C     C_R   0.205037 0.771849 0.670314 0.536487
C106  C     C_R   0.136472 0.170302 0.806926 -0.134384
C107  C     C_R   0.636429 0.329615 0.806967 -0.133780
C108  C     C_R   0.363528 0.670302 0.193074 -0.134384
C109  C     C_R   0.363477 0.329750 0.193089 -0.135624
C110  C     C_R   0.636432 0.670385 0.806968 -0.134088
C111  C     C_R   0.182546 0.787686 0.765893 -0.011208
C112  C     C_R   0.817596 0.212554 0.234001 -0.011222
C113  C     C_R   0.817612 0.787419 0.233988 -0.011348
C114  C     C_R   0.182401 0.212556 0.765999 -0.011474
C115  C     C_R   0.682388 0.287419 0.766012 -0.011348
C116  C     C_R   0.205008 0.228208 0.670332 0.553636
C117  C     C_R   0.317599 0.712556 0.234001 -0.011474
C118  C     C_R   0.317454 0.287686 0.234107 -0.011208
C119  C     C_R   0.682404 0.712554 0.765999 -0.011222
C120  C     C_R   0.209359 0.765881 0.814694 -0.118050
C121  C     C_R   0.790911 0.234582 0.185072 -0.115188
C122  C     C_R   0.790958 0.765338 0.185028 -0.114898
C123  C     C_R   0.209005 0.234727 0.815002 -0.114058
C124  C     C_R   0.709042 0.265338 0.814971 -0.114898
C125  C     C_R   0.290995 0.734727 0.184998 -0.114058
C126  C     C_R   0.290641 0.265881 0.185305 -0.118050
C127  C     C_R   0.794999 0.771780 0.329662 0.546399
C128  C     C_R   0.709089 0.734582 0.814928 -0.115188
C129  C     C_R   0.190782 0.787337 0.903718 -0.009613
C130  C     C_R   0.809498 0.213128 0.096035 -0.009435
C131  C     C_R   0.809563 0.786767 0.095978 -0.009484
C132  C     C_R   0.190355 0.213369 0.904087 -0.009667
C133  C     C_R   0.690437 0.286768 0.904022 -0.009484
C134  C     C_R   0.309645 0.713369 0.095913 -0.009667
C135  C     C_R   0.309218 0.287337 0.096282 -0.009613
C136  C     C_R   0.690502 0.713129 0.903964 -0.009435
C137  C     C_R   0.196820 0.631585 0.526208 0.575134
C138  C     C_R   0.527306 0.873760 0.576800 -0.132644
C139  C     C_R   0.803684 0.368199 0.471609 0.575406
C140  C     C_R   0.803351 0.631746 0.472702 0.577301
C141  C     C_R   0.200445 0.368999 0.514605 0.578519
C142  C     C_R   0.696649 0.131745 0.527298 0.577301
C143  C     C_R   0.299555 0.868999 0.485395 0.578519
C144  C     C_R   0.303180 0.131585 0.473792 0.575134
C145  C     C_R   0.696315 0.868199 0.528391 0.575405
C146  C     C_R   0.926539 0.903155 0.066606 0.554152
C147  C     C_R   0.073463 0.096839 0.933391 0.553453
C148  C     C_R   0.073498 0.903207 0.933365 0.553031
Cu1   Cu    Cu3+1 0.209920 0.785290 0.495070 0.978238
Cu2   Cu    Cu3+1 0.504760 0.500000 0.075850 0.931215
Cu3   Cu    Cu3+1 0.995240 0.000000 0.924150 0.931215
Cu4   Cu    Cu3+1 0.004760 1.000000 0.075850 0.930205
Cu5   Cu    Cu3+1 0.790080 0.214710 0.504930 0.980502
Cu6   Cu    Cu3+1 0.790080 0.785290 0.504930 0.976886
Cu7   Cu    Cu3+1 0.209920 0.214710 0.495070 0.976824
Cu8   Cu    Cu3+1 0.709920 0.285290 0.495070 0.976886
Cu9   Cu    Cu3+1 0.290080 0.714710 0.504930 0.976825
Cu10  Cu    Cu3+1 0.290080 0.285290 0.504930 0.978238
Cu11  Cu    Cu3+1 0.709920 0.714710 0.495070 0.980502
Cu12  Cu    Cu3+1 0.495240 0.500000 0.924150 0.930205
F1    F     F_    0.231314 0.499183 0.556528 -0.602749
F2    F     F_    0.759667 0.499959 0.470104 -0.601561
F3    F     F_    0.740332 0.999959 0.529896 -0.601561
F4    F     F_    0.268686 0.999183 0.443472 -0.602749
H1    H     H_    0.588041 0.823925 0.596759 0.150728
H2    H     H_    0.484830 0.170854 0.455368 0.107546
H3    H     H_    0.426677 0.833610 0.610549 0.103051
H4    H     H_    0.516069 0.179244 0.552467 0.106436
H5    H     H_    0.073323 0.333610 0.389451 0.103051
H6    H     H_    0.983931 0.679244 0.447533 0.106436
H7    H     H_    0.993132 0.323258 0.411925 0.104087
H8    H     H_    0.015170 0.670854 0.544632 0.107546
H9    H     H_    0.215159 0.873179 0.010711 0.106202
H10   H     H_    0.785143 0.127218 0.989079 0.106531
H11   H     H_    0.785226 0.872659 0.988993 0.106557
H12   H     H_    0.412812 0.168221 0.418567 0.148445
H13   H     H_    0.214661 0.127624 0.011202 0.106332
H14   H     H_    0.714774 0.372659 0.011007 0.106557
H15   H     H_    0.285339 0.627624 0.988798 0.106332
H16   H     H_    0.284841 0.373179 0.989289 0.106202
H17   H     H_    0.714857 0.627218 0.010921 0.106531
H18   H     H_    0.234996 0.658722 0.907901 0.111065
H19   H     H_    0.765220 0.341717 0.091793 0.108534
H20   H     H_    0.765305 0.658161 0.091710 0.108524
H21   H     H_    0.234479 0.342080 0.908382 0.111062
H22   H     H_    0.734695 0.158161 0.908289 0.108524
H23   H     H_    0.348980 0.836892 0.590773 0.151396
H24   H     H_    0.265521 0.842080 0.091618 0.111062
H25   H     H_    0.265004 0.158722 0.092099 0.111065
H26   H     H_    0.734780 0.841717 0.908207 0.108534
H27   H     H_    0.130277 0.847230 0.012301 0.130891
H28   H     H_    0.869956 0.153125 0.987520 0.131500
H29   H     H_    0.870024 0.846770 0.987466 0.130523
H30   H     H_    0.129874 0.153399 0.012615 0.130014
H31   H     H_    0.629976 0.346770 0.012534 0.130523
H32   H     H_    0.370126 0.653399 0.987385 0.130014
H33   H     H_    0.369723 0.347230 0.987699 0.130891
H34   H     H_    0.589258 0.178264 0.584562 0.154204
H35   H     H_    0.630044 0.653125 0.012480 0.131500
H36   H     H_    0.116331 0.847461 0.768963 0.156873
H37   H     H_    0.883674 0.152524 0.231054 0.157489
H38   H     H_    0.883651 0.847521 0.231077 0.157791
H39   H     H_    0.116439 0.152310 0.768844 0.158510
H40   H     H_    0.616349 0.347521 0.768923 0.157791
H41   H     H_    0.383561 0.652310 0.231156 0.158510
H42   H     H_    0.383669 0.347461 0.231037 0.156873
H43   H     H_    0.616326 0.652524 0.768946 0.157489
H44   H     H_    0.245939 0.734669 0.782519 0.130432
H45   H     H_    0.151020 0.336892 0.409227 0.151395
H46   H     H_    0.754387 0.265907 0.217186 0.133444
H47   H     H_    0.754444 0.733993 0.217129 0.134139
H48   H     H_    0.245502 0.266107 0.782924 0.134582
H49   H     H_    0.745556 0.233993 0.782871 0.134139
H50   H     H_    0.254498 0.766107 0.217076 0.134582
H51   H     H_    0.254061 0.234670 0.217481 0.130432
H52   H     H_    0.745613 0.765907 0.782814 0.133444
H53   H     H_    0.910742 0.678264 0.415438 0.154204
H54   H     H_    0.911959 0.323925 0.403241 0.150728
H55   H     H_    0.087188 0.668221 0.581433 0.148445
H56   H     H_    0.506868 0.823258 0.588075 0.104087
O1    O     O_R   0.255040 0.869590 0.478480 -0.419834
O2    O     O_R   0.817950 0.203450 0.375560 -0.517340
O3    O     O_R   0.817950 0.796550 0.375560 -0.516498
O4    O     O_R   0.182050 0.203450 0.624440 -0.511260
O5    O     O_R   0.682050 0.296550 0.624440 -0.516498
O6    O     O_R   0.317950 0.703450 0.375560 -0.511260
O7    O     O_R   0.317950 0.296550 0.375560 -0.521932
O8    O     O_R   0.682050 0.703450 0.624440 -0.517340
O9    O     O_R   0.250530 0.763330 0.367210 -0.510913
O10   O     O_R   0.749470 0.236670 0.632790 -0.516039
O11   O     O_R   0.749470 0.763330 0.632790 -0.517072
O12   O     O_R   0.744960 0.130410 0.521520 -0.414951
O13   O     O_R   0.250530 0.236670 0.367210 -0.527026
O14   O     O_R   0.750530 0.263330 0.367210 -0.517073
O15   O     O_R   0.249470 0.736670 0.632790 -0.527026
O16   O     O_R   0.249470 0.263330 0.632790 -0.510913
O17   O     O_R   0.750530 0.736670 0.367210 -0.516039
O18   O     O_R   0.177260 0.690030 0.513710 -0.543281
O19   O     O_R   0.822740 0.309970 0.486290 -0.543689
O20   O     O_R   0.822740 0.690030 0.486290 -0.547002
O21   O     O_R   0.177260 0.309970 0.513710 -0.541471
O22   O     O_R   0.677260 0.190030 0.513710 -0.547003
O23   O     O_R   0.744960 0.869590 0.521520 -0.414344
O24   O     O_R   0.322740 0.809970 0.486290 -0.541471
O25   O     O_R   0.322740 0.190030 0.486290 -0.543280
O26   O     O_R   0.677260 0.809970 0.513710 -0.543689
O27   O     O_R   0.051640 0.926880 0.885090 -0.510389
O28   O     O_R   0.948360 0.073120 0.114910 -0.509420
O29   O     O_R   0.948360 0.926880 0.114910 -0.509093
O30   O     O_R   0.051640 0.073120 0.885090 -0.509314
O31   O     O_R   0.551640 0.426880 0.885090 -0.509093
O32   O     O_R   0.448360 0.573120 0.114910 -0.509314
O33   O     O_R   0.448360 0.426880 0.114910 -0.510388
O34   O     O_R   0.255040 0.130410 0.478480 -0.420526
O35   O     O_R   0.551640 0.573120 0.885090 -0.509420
O36   O     O_R   0.940620 0.926560 0.986760 -0.515881
O37   O     O_R   0.059380 0.073440 0.013240 -0.516428
O38   O     O_R   0.059380 0.926560 0.013240 -0.516009
O39   O     O_R   0.940620 0.073440 0.986760 -0.515109
O40   O     O_R   0.440620 0.426560 0.986760 -0.516009
O41   O     O_R   0.559380 0.573440 0.013240 -0.515109
O42   O     O_R   0.559380 0.426560 0.013240 -0.515881
O43   O     O_R   0.440620 0.573440 0.986760 -0.516428
O44   O     O_R   0.755040 0.369590 0.478480 -0.414345
O45   O     O_R   0.244960 0.630410 0.521520 -0.420525
O46   O     O_R   0.244960 0.369590 0.521520 -0.419834
O47   O     O_R   0.755040 0.630410 0.478480 -0.414951
O48   O     O_R   0.182050 0.796550 0.624440 -0.521931

loop_
_geom_bond_atom_site_label_1
_geom_bond_atom_site_label_2
_ccdc_geom_bond_type
C125  C134  A    
C1    O6    A    
C14   C56   A    
C11   C18   A    
C116  O4    A    
C65   C79   A    
C72   O11   A    
C123  C132  A    
C105  O15   A    
C122  C131  A    
C11   C47   A    
C8    C43   A    
Cu12  O40   S    
C121  C130  A    
C76   H15   S    
C112  C121  A    
C25   C43   A    
C61   O10   A    
C69   C78   A    
Cu3   O39   S    
C59   C130  S    
C83   O7    A    
C105  O48   A    
C99   C108  A    
C11   C19   A    
C33   C39   A    
C30   C141  S    
Cu2   Cu12  S    
C145  O26   A    
C106  C114  A    
Cu10  O46   S    
C6    C98   S    
Cu12  O35   S    
C24   H4    S    
Cu9   O24   S    
C29   C51   A    
C102  H36   S    
C128  C136  A    
C16   C35   A    
Cu3   O27   S    
C90   C134  A    
C34   C145  S    
C42   F4    S    
C75   C84   A    
C13   H3    S    
Cu7   O13   S    
C58   C129  S    
C87   C131  A    
C89   H31   S    
Cu6   O20   S    
C140  O20   A    
C144  O25   A    
C31   C40   A    
C145  O23   A    
C93   C148  S    
C141  O21   A    
C38   C41   A    
C20   C138  A    
C37   C42   A    
Cu8   O5    S    
C71   C80   A    
Cu11  O17   S    
C70   H21   S    
C85   C129  A    
C106  H39   S    
Cu8   O44   S    
C85   C93   A    
Cu4   O37   S    
C26   C34   A    
C22   C44   A    
C48   H1    S    
C83   O13   A    
C10   C20   A    
C6    O31   A    
C29   C38   A    
C61   C115  S    
Cu12  O43   S    
C64   C73   A    
Cu5   O12   S    
C7    O43   A    
C110  H43   S    
Cu8   O22   S    
Cu10  O25   S    
C91   C100  A    
C39   F1    S    
C84   H11   S    
C2    H2    S    
C21   C30   A    
C88   C97   A    
C26   C45   A    
C127  O3    A    
C57   H8    S    
Cu10  O16   S    
C119  C128  A    
C24   C51   A    
C105  C111  S    
C138  H56   S    
C100  C109  A    
C8    C16   A    
C21   C43   A    
C139  O44   A    
C87   C96   A    
Cu7   Cu10  S    
C5    O41   A    
C97   C147  S    
Cu12  O31   S    
C12   C57   A    
Cu7   O4    S    
C92   C136  A    
C34   C41   A    
Cu1   O1    S    
C4    O33   A    
C74   C82   A    
C1    O9    A    
C50   H23   S    
C60   C131  S    
C73   C81   A    
Cu4   O29   S    
C95   C103  A    
C109  C118  A    
C54   H54   S    
C22   C53   A    
C5    C101  S    
C124  H49   S    
C53   H53   S    
C66   C78   A    
C54   C56   A    
C17   C24   A    
C89   C133  A    
C22   C31   A    
C113  C122  A    
C146  O29   A    
C139  O19   A    
C120  C129  A    
C120  H44   S    
C64   C134  S    
C62   C132  S    
C96   C104  A    
C75   H26   S    
C87   H29   S    
C32   C139  S    
C82   H13   S    
C58   C81   A    
C33   C137  S    
C13   C18   A    
Cu5   O19   S    
C94   O14   A    
Cu2   O33   S    
C55   H55   S    
Cu2   O41   S    
C101  C110  A    
Cu11  O8    S    
C144  O34   A    
C148  O27   A    
C61   O5    A    
C65   C74   A    
C46   H6    S    
C29   C45   A    
C111  C120  A    
C81   H9    S    
C147  O37   A    
Cu9   O15   S    
C9    C14   A    
C103  H37   S    
Cu11  O26   S    
C40   F2    S    
C2    C49   A    
C36   C42   A    
C59   C68   A    
C74   H25   S    
C125  H50   S    
C58   C67   A    
C59   C80   A    
C142  O12   A    
C12   C15   A    
Cu3   Cu4   S    
C123  H48   S    
C116  O16   A    
C51   H34   S    
Cu1   O18   S    
C64   C76   A    
C140  O47   A    
C90   H32   S    
C6    O42   A    
C1    C117  S    
C121  H46   S    
Cu6   O11   S    
Cu5   Cu8   S    
C102  C111  A    
C88   H30   S    
C107  C115  A    
C65   C135  S    
C7    C99   S    
Cu9   O6    S    
C128  H52   S    
C27   C49   A    
C66   C136  S    
C114  C123  A    
C124  C133  A    
C28   C47   A    
C148  O38   A    
Cu2   O42   S    
C126  C135  A    
C127  O17   A    
C41   F3    S    
C56   H7    S    
C137  O45   A    
C52   H45   S    
C35   H5    S    
Cu5   O2    S    
C14   C16   A    
Cu5   O10   S    
Cu6   O3    S    
C3    O28   A    
C97   C106  A    
C71   H22   S    
C17   C19   A    
C92   H35   S    
Cu7   O21   S    
C90   C99   A    
C73   H24   S    
C96   C146  S    
C21   C52   A    
C83   C118  S    
C23   C54   A    
C63   C77   A    
C27   C47   A    
C68   C77   A    
Cu1   Cu9   S    
C114  C116  S    
Cu6   O23   S    
C9    C44   A    
C115  C124  A    
C37   C143  S    
C146  O36   A    
C2    C19   A    
C137  O18   A    
C93   C102  A    
C108  C117  A    
C86   C130  A    
C25   C55   A    
C63   C71   A    
C108  H41   S    
C110  C119  A    
C143  O1    A    
Cu8   O14   S    
C62   C70   A    
Cu2   O32   S    
C92   C101  A    
C113  C127  S    
C26   C48   A    
C27   C36   A    
C85   H27   S    
Cu9   O45   S    
C63   C133  S    
C7    O32   A    
C86   H28   S    
C77   H14   S    
C15   C46   A    
C4    C100  S    
C48   C138  A    
C89   C98   A    
C78   H17   S    
Cu1   O9    S    
C23   C32   A    
C5    O35   A    
C55   C57   A    
C9    C15   A    
C28   C37   A    
C80   H10   S    
Cu6   Cu11  S    
C122  H47   S    
C142  O22   A    
C141  O46   A    
C68   H19   S    
C60   C84   A    
C70   C79   A    
C117  C125  A    
C60   C69   A    
C143  O24   A    
C3    O39   A    
C66   C75   A    
C46   C53   A    
C94   C112  S    
C104  C113  A    
Cu7   O34   S    
C30   C39   A    
C38   C142  S    
C147  O30   A    
C18   C20   A    
C32   C40   A    
C62   C82   A    
C109  H42   S    
C118  C126  A    
C28   C50   A    
Cu4   O28   S    
C72   C119  S    
C126  H51   S    
C23   C44   A    
C69   H20   S    
C13   C50   A    
C91   H33   S    
Cu4   O38   S    
Cu3   O30   S    
C107  H40   S    
C91   C135  A    
C4    O40   A    
C72   O8    A    
C10   C45   A    
C25   C33   A    
C35   C52   A    
C94   O2    A    
C88   C132  A    
C79   H16   S    
C103  C112  A    
C3    C95   S    
C67   C76   A    
C10   C17   A    
Cu1   O48   S    
C86   C95   A    
C31   C140  S    
C36   C144  S    
Cu11  O47   S    
Cu10  O7    S    
C49   H12   S    
C8    C12   A    
C67   H18   S    
C104  H38   S    
Cu3   O36   S    
C98   C107  A    
