data_mof_unit_2433.cif
_audit_creation_date              2012-12-11T16:29:23-0500
_audit_creation_method            fapswitch 2.2
_symmetry_space_group_name_H-M    P1
_symmetry_Int_Tables_number       1
_space_group_crystal_system       triclinic
_cell_length_a                    6.948992
_cell_length_b                    17.236547
_cell_length_c                    18.885348
_cell_angle_alpha                 106.051214
_cell_angle_beta                  89.875656
_cell_angle_gamma                 90.381468
_cell_volume                      2173.78984943

loop_
_atom_site_label
_atom_site_type_symbol
_atom_type_description
_atom_site_fract_x
_atom_site_fract_y
_atom_site_fract_z
_atom_type_partial_charge
O1    O     O_R   0.494360 0.415680 0.413760 -0.523597
O2    O     O_R   0.818810 0.432910 0.557230 -0.525804
O3    O     O_R   0.994290 0.584320 0.586240 -0.517130
C1    C     C_R   0.649872 0.415816 0.580512 0.686171
O4    O     O_R   0.823740 0.406440 0.412520 -0.524085
O5    O     O_R   0.999250 0.557660 0.440500 -0.482365
C2    C     C_R   0.653876 0.382808 0.385316 0.696357
O6    O     O_R   0.489400 0.442340 0.559500 -0.530438
O7    O     O_3   0.662500 0.549650 0.509350 -0.350680
V1    V     V_3+5 0.935340 0.490790 0.498270 1.578540
O8    O     O_R   0.329270 0.567090 0.442770 -0.549715
C3    C     C_R   0.161276 0.582310 0.417923 0.745782
O9    O     O_R   0.324340 0.593560 0.587480 -0.555668
C4    C     C_R   0.155867 0.617679 0.614306 0.737812
V2    V     V_3+5 0.435970 0.509210 0.501730 1.482075
O10   O     O_3   0.158940 0.450350 0.490650 -0.345896
C5    C     C_R   0.081732 0.587275 0.756710 0.079223
C6    C     C_R   0.967893 0.571937 0.813684 0.033591
C7    C     C_R   0.918558 0.637226 0.874107 0.042352
C8    C     C_R   0.009197 0.712248 0.881042 -0.004519
C9    C     C_R   0.075482 0.732662 0.816838 0.015220
C10   C     C_R   0.099523 0.668293 0.751315 0.001001
C11   C     C_R   0.118461 0.814132 0.816555 -0.146042
C12   C     C_R   0.175725 0.831045 0.749549 -0.066705
C13   C     C_R   0.192219 0.766717 0.683551 0.032343
C14   C     C_R   0.148909 0.685430 0.683848 -0.115386
C15   C     C_R   0.212206 0.911783 0.745658 -0.057797
C16   C     C_R   0.328102 0.924041 0.687738 0.165549
C17   C     C_R   0.359600 0.858252 0.625314 0.119045
C18   C     C_R   0.254629 0.786476 0.618778 -0.041888
C19   C     C_1   0.112529 0.866251 0.134619 -0.155040
C20   C     C_1   0.120378 0.823045 0.177630 0.065193
C21   C     C_1   0.129651 0.771856 0.228669 0.032208
C22   C     C_1   0.137405 0.728693 0.271732 0.031505
C23   C     C_1   0.146401 0.677492 0.322766 0.083700
C24   C     C_1   0.153485 0.634254 0.365769 -0.105981
C25   C     C_1   0.640109 0.362762 0.631550 -0.173684
C26   C     C_1   0.634151 0.319332 0.674403 0.065377
C27   C     C_1   0.630750 0.269031 0.726243 0.031494
C28   C     C_1   0.629060 0.227047 0.770356 0.008356
C29   C     C_1   0.626868 0.177355 0.822704 0.004860
C30   C     C_1   0.623206 0.135080 0.866554 -0.172423
C31   C     C_R   0.697128 0.408803 0.235781 -0.070020
C32   C     C_R   0.758490 0.414984 0.165831 0.019585
C33   C     C_R   0.716423 0.351356 0.102783 0.066627
C34   C     C_R   0.616193 0.283603 0.111570 -0.048375
C35   C     C_R   0.624776 0.265392 0.180473 0.054562
C36   C     C_R   0.652518 0.330709 0.245103 -0.041395
C37   C     C_R   0.614545 0.183912 0.184812 -0.100267
C38   C     C_R   0.623162 0.167887 0.255329 0.010106
C39   C     C_R   0.616992 0.234420 0.320073 0.035383
C40   C     C_R   0.637145 0.315520 0.315703 -0.115134
C41   C     C_R   0.637664 0.088150 0.265256 0.082220
C42   C     C_R   0.696894 0.079747 0.334667 0.050699
C43   C     C_R   0.674666 0.145453 0.397760 0.049947
C44   C     C_R   0.598242 0.217458 0.389209 -0.050221
O11   O     O_R   0.775690 0.057750 0.940570 -0.521461
O12   O     O_R   0.441200 0.093570 0.087490 -0.520118
O13   O     O_R   0.265840 0.942320 0.059480 -0.517583
C45   C     C_R   0.609618 0.116761 0.115068 0.695876
O14   O     O_R   0.446270 0.067110 0.942790 -0.496536
O15   O     O_R   0.270950 0.915660 0.913750 -0.504733
C46   C     C_R   0.614978 0.083583 0.918973 0.713951
O16   O     O_R   0.770580 0.084400 0.086300 -0.539499
O17   O     O_3   0.602640 0.950400 0.990690 -0.366438
V3    V     V_3+5 0.329740 0.009200 0.001730 1.586442
O18   O     O_R   0.940900 0.906360 0.912450 -0.557268
C47   C     C_R   0.109685 0.881857 0.886025 0.753411
O19   O     O_R   0.935830 0.932820 0.057160 -0.544399
C48   C     C_R   0.103906 0.918158 0.082453 0.722708
V4    V     V_3+5 0.829130 0.990680 0.998180 1.474110
O20   O     O_3   0.106100 0.049590 0.009310 -0.332144
C49   C     C_3   0.483158 0.868039 0.562044 -0.761481
H1    H     H_    0.621410 0.898150 0.583013 0.224709
H2    H     H_    0.523522 0.808925 0.524079 0.211816
H3    H     H_    0.405948 0.904171 0.530817 0.205153
C50   C     C_2   0.641993 0.484117 0.292094 0.385248
H4    H     H_    0.498590 0.488843 0.315396 0.045010
O21   O     O_2   0.752908 0.540972 0.312595 -0.506748
C51   C     C_2   0.849769 0.489888 0.156840 0.452667
H5    H     H_    0.806150 0.514263 0.112210 0.028615
O22   O     O_2   0.981831 0.522431 0.196819 -0.510015
C52   C     C_3   0.766939 0.358035 0.026611 -0.803905
H6    H     H_    0.916881 0.380499 0.025907 0.223157
H7    H     H_    0.762055 0.298583 0.984654 0.211180
H8    H     H_    0.666630 0.400075 0.010528 0.202365
C53   C     C_2   0.462100 0.248877 0.057504 0.390740
H9    H     H_    0.481731 0.242031 0.999285 0.035807
O23   O     O_2   0.303796 0.233649 0.078700 -0.508003
C54   C     C_3   0.566868 0.012929 0.208493 -0.664662
H10   H     H_    0.533969 0.962862 0.233073 0.207065
H11   H     H_    0.426895 0.025140 0.186027 0.186016
H12   H     H_    0.675463 0.990772 0.164728 0.215580
C55   C     C_2   0.773417 0.001747 0.342025 0.355976
H13   H     H_    0.757017 0.985163 0.393079 0.063664
O24   O     O_2   0.860957 0.956043 0.291464 -0.536126
C56   C     C_2   0.452395 0.259747 0.443588 0.394117
H14   H     H_    0.467173 0.264570 0.501631 0.026904
O25   O     O_2   0.304000 0.283938 0.422716 -0.509053
C57   C     C_3   0.217478 0.521848 0.714851 -0.653217
H15   H     H_    0.147911 0.483772 0.664141 0.220653
H16   H     H_    0.353909 0.548462 0.701532 0.177633
H17   H     H_    0.263213 0.482715 0.749537 0.211769
C58   C     C_2   0.913819 0.487968 0.813789 0.343111
H18   H     H_    0.862833 0.474883 0.863562 0.068820
O26   O     O_2   0.924388 0.431945 0.758022 -0.539352
C59   C     C_3   0.789897 0.624938 0.935025 -0.803119
H19   H     H_    0.662273 0.587897 0.911059 0.215332
H20   H     H_    0.870816 0.594614 0.970358 0.205414
H21   H     H_    0.731887 0.682899 0.969585 0.225848
C60   C     C_2   0.078349 0.755140 0.955397 0.342655
H22   H     H_    0.981528 0.767437 0.002032 0.042233
O27   O     O_2   0.249175 0.771327 0.965708 -0.538172
C61   C     C_2   0.093759 0.979383 0.790316 0.357903
H23   H     H_    0.938682 0.971796 0.791336 0.037575
O28   O     O_2   0.166215 0.041047 0.829288 -0.528517
C62   C     C_3   0.405019 0.006599 0.687484 -0.736991
H24   H     H_    0.564553 0.005269 0.684917 0.197420
H25   H     H_    0.348131 0.023601 0.638985 0.204048
H26   H     H_    0.367852 0.055623 0.736566 0.249463
C63   C     C_2   0.168460 0.747625 0.545933 0.334409
H27   H     H_    0.251199 0.740361 0.496046 0.033940
O29   O     O_2   0.997865 0.729454 0.540866 -0.533038
C64   C     C_3   0.722992 0.137693 0.473630 -0.818289
H28   H     H_    0.868815 0.111646 0.473290 0.219537
H29   H     H_    0.728013 0.197053 0.515667 0.207609
H30   H     H_    0.615384 0.098302 0.490461 0.206583

loop_
_geom_bond_atom_site_label_1
_geom_bond_atom_site_label_2
_ccdc_geom_bond_type
C53   H9    S    
C59   H20   S    
C29   C30   T    
C60   H22   S    
C12   C15   A    
C1    O6    A    
C58   O26   D    
C61   H23   S    
C35   C37   A    
C41   C42   A    
C17   C18   A    
C37   C45   S    
C16   C17   A    
C2    C40   S    
C6    C7    A    
C16   C62   S    
C62   H25   S    
O13   V3    S    
O5    C3    A    
C26   C27   S    
C17   C49   S    
O12   C45   A    
V2    O10   S    
C56   H14   S    
O14   C46   A    
C22   C23   S    
C49   H1    S    
O16   V4    S    
O19   V4    S    
C42   C43   A    
O8    V2    S    
O14   V3    S    
O12   V3    S    
C19   C48   S    
V3    O20   S    
C19   C20   T    
C59   H19   S    
O1    V2    S    
C3    C24   S    
C31   C36   A    
C50   H4    S    
O9    C4    A    
C49   H2    S    
C33   C52   S    
C44   C56   S    
C58   H18   S    
C56   O25   D    
O11   C46   A    
C50   O21   D    
C38   C41   A    
C42   C55   S    
O15   V3    S    
C39   C40   A    
C35   C36   A    
C32   C51   S    
C12   C13   A    
C51   O22   D    
C62   H26   S    
C27   C28   T    
O4    C2    A    
C38   C39   A    
C13   C14   A    
O17   V4    S    
C57   H17   S    
O11   V4    S    
O18   C47   A    
C23   C24   T    
C11   C47   S    
O2    C1    A    
C31   C32   A    
C25   C26   T    
C8    C60   S    
C54   H11   S    
C52   H6    S    
C18   C63   S    
C11   C12   A    
C8    C9    A    
C43   C44   A    
C57   H16   S    
C5    C6    A    
C60   O27   D    
C6    C58   S    
C4    C14   S    
C55   O24   D    
C63   H27   S    
O3    C4    A    
C64   H30   S    
C28   C29   S    
C52   H7    S    
O17   V3    S    
O6    V2    S    
C9    C11   A    
C59   H21   S    
O2    V1    S    
C15   C16   A    
C32   C33   A    
C54   H12   S    
C64   H29   S    
C34   C53   S    
O7    V1    S    
C13   C18   A    
C43   C64   S    
O1    C2    A    
C39   C44   A    
C51   H5    S    
O5    V1    S    
C61   O28   D    
O8    C3    A    
C31   C50   S    
C5    C10   A    
O15   C47   A    
C45   O16   A    
C20   C21   S    
C7    C8    A    
O9    V2    S    
O7    V2    S    
O4    V1    S    
O3    V1    S    
V1    O10   S    
C62   H24   S    
C54   H10   S    
C57   H15   S    
C49   H3    S    
C21   C22   T    
O18   V4    S    
C55   H13   S    
C5    C57   S    
O19   C48   A    
C63   O29   D    
C34   C35   A    
O13   C48   A    
C15   C61   S    
C33   C34   A    
C36   C40   A    
C52   H8    S    
V4    O20   S    
C1    C25   S    
C37   C38   A    
C10   C14   A    
C41   C54   S    
C53   O23   D    
C9    C10   A    
C30   C46   S    
C64   H28   S    
C7    C59   S    
