data_mof_unit_4749.cif
_audit_creation_date              2012-12-10T17:09:34-0500
_audit_creation_method            fapswitch 2.2
_symmetry_space_group_name_H-M    P1
_symmetry_Int_Tables_number       1
_space_group_crystal_system       triclinic
_cell_length_a                    10.497562
_cell_length_b                    10.666876
_cell_length_c                    10.045521
_cell_angle_alpha                 90.703685
_cell_angle_beta                  90.467302
_cell_angle_gamma                 91.530353
_cell_volume                      1124.33266776

loop_
_atom_site_label
_atom_site_type_symbol
_atom_type_description
_atom_site_fract_x
_atom_site_fract_y
_atom_site_fract_z
_atom_type_partial_charge
C1    C     C_R   0.493620 0.262042 0.499046 0.900027
C2    C     C_2   0.586522 0.556845 0.076412 -0.151844
C3    C     C_R   0.257415 0.502363 0.499460 0.864325
C4    C     C_R   0.514291 0.736566 0.500657 0.924889
C5    C     C_R   0.742420 0.503029 0.500639 0.851289
C6    C     C_3   0.039140 0.402993 0.558942 -0.185943
C7    C     C_3   0.953880 0.405690 0.433376 -0.192404
C8    C     C_3   0.877299 0.507396 0.501710 -0.006295
C9    C     C_3   0.960507 0.505004 0.627253 -0.159619
C10   C     C_3   0.046370 0.609377 0.567164 -0.195792
C11   C     C_3   0.377965 0.067515 0.590137 -0.413242
C12   C     C_3   0.960669 0.611041 0.442059 0.125418
C13   C     C_3   0.252308 0.136887 0.598857 -0.370497
C14   C     C_3   0.154608 0.062677 0.680841 -0.899160
C15   C     C_3   0.635867 0.691251 0.865588 -0.321838
C16   C     C_3   0.732346 0.765069 0.954257 -0.452113
C17   C     C_3   0.793245 0.874217 0.878408 -0.882926
C18   C     C_3   0.908204 0.729000 0.379193 -0.437400
C19   C     C_3   0.015890 0.817706 0.333593 -0.330211
C20   C     C_3   0.962988 0.938946 0.279404 -0.881755
C21   C     C_3   0.039205 0.510060 0.372388 -0.162893
C22   C     C_3   0.122339 0.506779 0.498479 0.008122
C23   C     C_2   0.538922 0.932332 0.390460 -0.168708
C24   C     C_2   0.549222 0.866706 0.501650 -0.387893
C25   C     C_2   0.537885 0.067007 0.399334 -0.209023
C26   C     C_2   0.473413 0.128476 0.494326 -0.033599
C27   C     C_2   0.571025 0.577229 0.927902 0.109249
H1    H     H_    0.912067 0.322469 0.379864 0.140175
H2    H     H_    0.133603 0.969514 0.633850 0.256875
H3    H     H_    0.191437 0.049233 0.783525 0.264813
H4    H     H_    0.064160 0.113779 0.686810 0.248229
H5    H     H_    0.269589 0.229910 0.647352 0.235136
H6    H     H_    0.212845 0.150669 0.497145 0.222020
H7    H     H_    0.350838 0.970782 0.557833 0.231892
H8    H     H_    0.422242 0.064228 0.690904 0.200124
H9    H     H_    0.844793 0.838929 0.789915 0.259865
H10   H     H_    0.719183 0.939833 0.845476 0.259128
H11   H     H_    0.862437 0.926191 0.944097 0.255020
H12   H     H_    0.464151 0.422024 0.896232 0.151066
H13   H     H_    0.683783 0.803473 0.043259 0.228862
H14   H     H_    0.809288 0.702412 0.986874 0.226195
H15   H     H_    0.687614 0.661242 0.776033 0.241214
H16   H     H_    0.560316 0.756492 0.835948 0.211221
H17   H     H_    0.088619 0.692189 0.621020 0.128576
H18   H     H_    0.897456 0.918228 0.194144 0.262386
H19   H     H_    0.910617 0.989392 0.358462 0.263604
H20   H     H_    0.042650 0.000641 0.244946 0.247719
H21   H     H_    0.081043 0.841309 0.418541 0.218668
H22   H     H_    0.071638 0.771046 0.254432 0.220750
H23   H     H_    0.668811 0.597076 0.128461 0.158362
H24   H     H_    0.846690 0.701189 0.292651 0.202509
H25   H     H_    0.848810 0.777384 0.454074 0.198721
H26   H     H_    0.572393 0.911910 0.596753 0.160736
H27   H     H_    0.418272 0.472536 0.100361 0.159779
H28   H     H_    0.072691 0.318636 0.609156 0.142044
H29   H     H_    0.924639 0.502710 0.730910 0.149634
H30   H     H_    0.074820 0.512875 0.268669 0.138088
H31   H     H_    0.524004 0.888332 0.293247 0.181040
H32   H     H_    0.595085 0.117279 0.326471 0.157954
N1    N     N_2   0.501360 0.501330 0.852150 -0.215298
N2    N     N_2   0.501400 0.501360 0.147810 -0.205735
O1    O     O_R   0.499980 0.319060 0.613040 -0.615800
O2    O     O_R   0.500020 0.319100 0.386900 -0.616540
O3    O     O_R   0.313930 0.499950 0.613050 -0.616851
O4    O     O_R   0.313970 0.499990 0.386910 -0.622911
O5    O     O_R   0.499980 0.680900 0.613100 -0.639049
O6    O     O_R   0.500020 0.680940 0.386960 -0.605855
O7    O     O_R   0.686030 0.500010 0.613090 -0.637727
O8    O     O_R   0.686070 0.500050 0.386950 -0.622211
Zn1   Zn    Zn3+2 0.499970 0.499970 0.650990 0.912263
Zn2   Zn    Zn3+2 0.500030 0.500030 0.349010 0.923144

loop_
_geom_bond_atom_site_label_1
_geom_bond_atom_site_label_2
_ccdc_geom_bond_type
C23   H31   S    
C5    O8    A    
C23   C24   D    
C13   H6    S    
C6    C7    S    
H27   N2    S    
O3    Zn1   S    
C4    O6    A    
C25   H32   S    
C9    C10   S    
C19   H22   S    
C13   H5    S    
C15   C27   S    
C19   C20   S    
C11   C26   S    
C2    N2    D    
N1    Zn1   S    
C6    H28   S    
C8    C12   S    
C2    C27   S    
C1    O1    A    
N2    Zn2   S    
C6    C9    S    
C11   H8    S    
C25   C26   D    
C18   H25   S    
C7    C8    S    
C9    H29   S    
O5    Zn1   S    
C3    O3    A    
C10   C22   S    
C4    O5    A    
C11   C13   S    
C3    O4    A    
C10   C12   S    
C16   H13   S    
C5    O7    A    
H12   N1    S    
C1    O2    A    
C21   C22   S    
C17   H9    S    
C14   H3    S    
C18   H24   S    
O6    Zn2   S    
C27   N1    D    
C23   C25   S    
C7    C21   S    
C1    C26   S    
C4    C24   S    
C20   H20   S    
C14   H2    S    
C15   H16   S    
C15   C16   S    
C6    C22   S    
C21   H30   S    
C17   H11   S    
O1    Zn1   S    
O7    Zn1   S    
C18   C19   S    
C12   C18   S    
O8    Zn2   S    
C14   H4    S    
C5    C8    S    
C19   H21   S    
C8    C9    S    
C3    C22   S    
C17   H10   S    
C2    H23   S    
C13   C14   S    
C24   H26   S    
O4    Zn2   S    
C10   H17   S    
C12   C21   S    
C11   H7    S    
C20   H19   S    
C7    H1    S    
C20   H18   S    
C15   H15   S    
O2    Zn2   S    
C16   C17   S    
C16   H14   S    
