data_mof_unit_3614.cif
_audit_creation_date              2012-12-10T16:37:24-0500
_audit_creation_method            fapswitch 2.2
_symmetry_space_group_name_H-M    P1
_symmetry_Int_Tables_number       1
_space_group_crystal_system       triclinic
_cell_length_a                    16.735771
_cell_length_b                    16.795033
_cell_length_c                    16.799599
_cell_angle_alpha                 65.634827
_cell_angle_beta                  65.103738
_cell_angle_gamma                 64.995032
_cell_volume                      3720.29363688

loop_
_atom_site_label
_atom_site_type_symbol
_atom_type_description
_atom_site_fract_x
_atom_site_fract_y
_atom_site_fract_z
_atom_type_partial_charge
C1    C     C_R   0.457795 0.936029 0.692928 0.084000
C2    C     C_R   0.402352 0.674996 0.035760 0.073038
C3    C     C_R   0.879988 0.593488 0.386124 0.091192
C4    C     C_R   0.069842 0.396229 0.648833 0.084316
C5    C     C_R   0.980611 0.176358 0.429419 0.959442
C6    C     C_R   0.020789 0.822924 0.569810 0.954025
C7    C     C_R   0.180163 0.438261 0.960054 0.929221
C8    C     C_R   0.819795 0.561951 0.039422 0.926824
C9    C     C_R   0.429202 0.980317 0.176659 0.913848
C10   C     C_R   0.570068 0.020874 0.822808 0.959769
C11   C     C_R   0.560645 0.820281 0.040886 0.954904
C12   C     C_R   0.500459 0.101922 0.317464 0.119665
C13   C     C_R   0.439479 0.179798 0.958504 0.920836
C14   C     C_R   0.040469 0.560442 0.820052 0.927275
C15   C     C_R   0.958006 0.439775 0.179829 0.922918
C16   C     C_R   0.819863 0.042083 0.560073 0.939496
C17   C     C_R   0.179857 0.956390 0.440249 0.935708
C18   C     C_R   0.515448 0.936793 0.733741 0.056733
C19   C     C_R   0.458514 0.084681 0.270961 0.050469
C20   C     C_R   0.936026 0.734868 0.514774 0.057519
C21   C     C_R   0.083454 0.268062 0.461646 0.051530
C22   C     C_R   0.711011 0.448447 0.054979 0.137176
C23   C     C_R   0.935744 0.693361 0.457483 0.085383
C24   C     C_R   0.288559 0.551708 0.944201 0.083210
C25   C     C_R   0.325110 0.882040 0.552983 0.048943
C26   C     C_R   0.694177 0.087628 0.440073 0.054998
C27   C     C_R   0.559113 0.291558 0.930353 0.084279
C28   C     C_R   0.440047 0.707610 0.072466 0.064927
C29   C     C_R   0.883382 0.552493 0.325731 0.059432
C30   C     C_R   0.084701 0.440341 0.694956 0.068662
C31   C     C_R   0.548730 0.008136 0.543548 -0.080978
C32   C     C_R   0.447301 0.989221 0.456204 -0.086513
C33   C     C_R   0.007532 0.543723 0.548818 -0.079347
C34   C     C_R   0.101918 0.314590 0.502940 0.087909
C35   C     C_R   0.990363 0.455412 0.447480 -0.081475
C36   C     C_R   0.538676 0.541221 0.028134 -0.064399
C37   C     C_R   0.460476 0.459246 0.972039 -0.061632
C38   C     C_R   0.567868 0.042918 0.447114 0.052426
C39   C     C_R   0.436051 0.944386 0.550658 0.046885
C40   C     C_R   0.042130 0.446869 0.568341 0.050546
C41   C     C_R   0.945159 0.550372 0.436131 0.049686
C42   C     C_R   0.447723 0.586572 0.020570 0.051222
C43   C     C_R   0.550862 0.413667 0.980693 0.038151
C44   C     C_R   0.508368 0.043256 0.405335 0.041264
C45   C     C_R   0.685275 0.421945 0.003429 0.089822
C46   C     C_R   0.480084 0.962028 0.596300 0.052442
C47   C     C_R   0.407672 0.543497 0.995079 0.041716
C48   C     C_R   0.591595 0.457316 0.004486 0.010356
C49   C     C_R   0.043752 0.404223 0.509013 0.058817
C50   C     C_R   0.962188 0.596450 0.479899 0.053812
C51   C     C_R   0.574551 0.992671 0.684123 0.015013
C52   C     C_R   0.416574 0.013285 0.315919 -0.016295
C53   C     C_R   0.991219 0.684866 0.574546 0.015457
C54   C     C_R   0.013349 0.314654 0.418045 0.015298
C55   C     C_R   0.671115 0.539565 0.059288 0.020329
C56   C     C_R   0.314660 0.579178 0.994958 0.080192
C57   C     C_R   0.328582 0.460470 0.940554 0.018893
C58   C     C_R   0.330909 0.932529 0.461318 0.044593
C59   C     C_R   0.670678 0.059953 0.536757 0.043884
C60   C     C_R   0.464674 0.328241 0.935716 0.036453
C61   C     C_R   0.534938 0.671674 0.064693 0.030643
C62   C     C_R   0.934982 0.460595 0.330615 0.049466
C63   C     C_R   0.057119 0.537204 0.671592 0.046133
C64   C     C_R   0.607859 0.026589 0.726377 -0.125040
C65   C     C_R   0.388901 0.975444 0.272435 -0.137595
C66   C     C_R   0.024820 0.726842 0.608201 -0.124393
C67   C     C_R   0.385434 0.879639 0.593657 0.090187
C68   C     C_R   0.976066 0.271837 0.389342 -0.126179
C69   C     C_R   0.718222 0.588351 0.068320 -0.151334
C70   C     C_R   0.281686 0.411846 0.931221 -0.146900
C71   C     C_R   0.281315 0.927555 0.413058 -0.152817
C72   C     C_R   0.718382 0.068206 0.585890 -0.149933
C73   C     C_R   0.414625 0.280830 0.928431 -0.147484
C74   C     C_R   0.585489 0.719453 0.070365 -0.141142
C75   C     C_R   0.930769 0.412297 0.280534 -0.150246
C76   C     C_R   0.064537 0.586519 0.719572 -0.153501
C77   C     C_R   0.672326 0.074251 0.673537 -0.015342
C78   C     C_R   0.647898 0.072668 0.395984 0.074996
C79   C     C_R   0.326068 0.925286 0.324283 0.010076
C80   C     C_R   0.070394 0.673806 0.674338 -0.009110
C81   C     C_R   0.927884 0.323943 0.324717 -0.002436
C82   C     C_R   0.669497 0.671982 0.087662 -0.013420
C83   C     C_R   0.330576 0.329110 0.910354 -0.006518
C84   C     C_R   0.597085 0.021269 0.587836 -0.023807
C85   C     C_R   0.398641 0.978179 0.411395 -0.013663
C86   C     C_R   0.019553 0.588299 0.597525 -0.018782
C87   C     C_R   0.979665 0.410448 0.398862 -0.024434
C88   C     C_R   0.581383 0.584369 0.050597 -0.023533
C89   C     C_R   0.595287 0.324219 0.968513 0.029392
C90   C     C_R   0.418099 0.415768 0.949532 -0.020963
H1    H     H_    0.333300 0.973408 0.784538 0.168944
H2    H     H_    0.733830 0.395603 0.878255 0.197121
H3    H     H_    0.212480 0.561703 0.114528 0.193289
H4    H     H_    0.192334 0.669150 0.043854 0.175428
H5    H     H_    0.442007 0.743279 0.644025 0.176345
H6    H     H_    0.348088 0.792036 0.720093 0.179037
H7    H     H_    0.754008 0.027177 0.292774 0.163502
H8    H     H_    0.699218 0.141036 0.262909 0.180860
H9    H     H_    0.726111 0.236771 0.952807 0.162130
H10   H     H_    0.649127 0.205043 0.054498 0.175677
H11   H     H_    0.342521 0.796515 0.956516 0.151578
H12   H     H_    0.379588 0.859263 0.799186 0.181977
H13   H     H_    0.269607 0.757863 0.058591 0.183371
H14   H     H_    0.742394 0.644597 0.442583 0.176494
H15   H     H_    0.790306 0.720439 0.350226 0.183929
H16   H     H_    0.020638 0.296682 0.754033 0.172009
H17   H     H_    0.135632 0.262161 0.702264 0.180740
H18   H     H_    0.738469 0.161245 0.658240 0.177846
H19   H     H_    0.633029 0.174762 0.730558 0.181202
H20   H     H_    0.367047 0.824536 0.267332 0.184187
H21   H     H_    0.260236 0.839004 0.337374 0.177263
H22   H     H_    0.174805 0.723018 0.633796 0.178886
H23   H     H_    0.459286 0.240528 0.281320 0.195335
H24   H     H_    0.158892 0.656663 0.739969 0.186660
H25   H     H_    0.841081 0.338622 0.258456 0.189042
H26   H     H_    0.825605 0.270372 0.364314 0.179053
H27   H     H_    0.655279 0.744780 0.166032 0.169772
H28   H     H_    0.748975 0.659390 0.156199 0.192039
H29   H     H_    0.263431 0.346583 0.827090 0.179205
H30   H     H_    0.345594 0.249612 0.837335 0.176834
H31   H     H_    0.454901 0.884041 0.869145 0.204439
H32   H     H_    0.541931 0.806815 0.816709 0.179965
H33   H     H_    0.392310 0.148931 0.170976 0.186622
H34   H     H_    0.563566 0.193685 0.214455 0.196084
H35   H     H_    0.508162 0.136180 0.134022 0.223532
H36   H     H_    0.882997 0.870414 0.453952 0.207698
H37   H     H_    0.805130 0.820090 0.540357 0.180044
H38   H     H_    0.142927 0.134468 0.520189 0.210115
H39   H     H_    0.209754 0.181144 0.416316 0.175139
H40   H     H_    0.728759 0.334710 0.161154 0.156565
H41   H     H_    0.825898 0.341812 0.073754 0.197367
H42   H     H_    0.174082 0.658103 0.922160 0.195219
H43   H     H_    0.272701 0.664521 0.836649 0.158360
H44   H     H_    0.308089 0.755721 0.616038 0.161910
H45   H     H_    0.974354 0.782183 0.333624 0.171475
H46   H     H_    0.222945 0.839984 0.661661 0.197658
H47   H     H_    0.724674 0.203551 0.350007 0.166638
H48   H     H_    0.812457 0.105508 0.339225 0.193649
H49   H     H_    0.668325 0.262805 0.821256 0.164370
H50   H     H_    0.658809 0.170984 0.914071 0.202000
H51   H     H_    0.340951 0.828330 0.089392 0.198744
H52   H     H_    0.332799 0.736698 0.182677 0.170100
H53   H     H_    0.756192 0.615427 0.308840 0.162232
H54   H     H_    0.840395 0.661649 0.226453 0.189614
H55   H     H_    0.103319 0.339944 0.811730 0.195872
H56   H     H_    0.859034 0.800896 0.378896 0.178412
H57   H     H_    0.201486 0.348391 0.724034 0.163056
H58   H     H_    0.241757 0.274193 0.466008 0.179569
H59   H     H_    0.191881 0.210124 0.569149 0.183246
H60   H     H_    0.800056 0.325964 0.951097 0.177625
N1    N     N_3   0.369514 0.922975 0.750147 -0.459543
N2    N     N_3   0.324708 0.737945 0.003576 -0.457734
N3    N     N_3   0.800221 0.668220 0.409867 -0.454733
N4    N     N_3   0.071739 0.301861 0.690622 -0.457873
N5    N     N_3   0.694083 0.124304 0.710005 -0.403405
N6    N     N_3   0.305708 0.875267 0.286650 -0.403491
N7    N     N_3   0.122903 0.708328 0.694729 -0.408456
N8    N     N_3   0.877246 0.287540 0.303816 -0.406391
N9    N     N_3   0.708301 0.712734 0.117309 -0.400299
N10   N     N_3   0.291932 0.292124 0.876320 -0.402507
N11   N     N_3   0.520696 0.873163 0.821792 -0.428738
N12   N     N_3   0.521128 0.187085 0.282111 -0.450511
N13   N     N_3   0.446275 0.150458 0.185687 -0.468890
N14   N     N_3   0.872049 0.824020 0.519323 -0.426045
N15   N     N_3   0.142548 0.178172 0.454438 -0.438229
N16   N     N_3   0.766288 0.379892 0.112980 -0.449420
N17   N     N_3   0.234779 0.619597 0.884480 -0.445598
N18   N     N_3   0.266873 0.823899 0.600549 -0.467261
N19   N     N_3   0.758787 0.139187 0.386257 -0.445049
N20   N     N_3   0.621291 0.230320 0.875224 -0.438082
N21   N     N_3   0.379248 0.769109 0.127599 -0.440359
N22   N     N_3   0.825039 0.600332 0.268080 -0.480649
N23   N     N_3   0.922706 0.749853 0.369722 -0.457667
N24   N     N_3   0.137223 0.385980 0.758468 -0.455100
N25   N     N_3   0.186579 0.277010 0.526142 -0.456391
N26   N     N_3   0.758645 0.392213 0.927528 -0.452831
N27   N     N_3   0.243334 0.613063 0.069182 -0.445836
N28   N     N_3   0.408680 0.801182 0.667913 -0.454110
N29   N     N_3   0.689261 0.076802 0.300679 -0.461537
N30   N     N_3   0.670242 0.261151 0.004959 -0.480981
O1    O     O_R   0.982940 0.138950 0.510160 -0.634896
O2    O     O_R   0.982940 0.510160 0.138950 -0.618131
O3    O     O_R   0.861050 0.017060 0.489840 -0.626988
O4    O     O_R   0.138950 0.982940 0.510160 -0.622242
O5    O     O_R   0.867700 0.025880 0.612340 -0.607457
O6    O     O_R   0.132300 0.974120 0.387660 -0.612209
O7    O     O_R   0.025880 0.612340 0.867700 -0.606876
O8    O     O_R   0.974120 0.387660 0.132300 -0.609634
O9    O     O_R   0.612340 0.867700 0.025880 -0.598147
O10   O     O_R   0.387660 0.132300 0.974120 -0.607651
O11   O     O_R   0.387660 0.974120 0.132300 -0.597995
O12   O     O_R   0.017060 0.861050 0.489840 -0.643825
O13   O     O_R   0.612340 0.025880 0.867700 -0.600100
O14   O     O_R   0.132300 0.387660 0.974120 -0.598456
O15   O     O_R   0.867700 0.612340 0.025880 -0.603865
O16   O     O_R   0.974120 0.132300 0.387660 -0.604490
O17   O     O_R   0.025880 0.867700 0.612340 -0.599568
O18   O     O_R   0.138950 0.510160 0.982940 -0.627948
O19   O     O_R   0.861050 0.489840 0.017060 -0.617693
O20   O     O_R   0.510160 0.982940 0.138950 -0.647134
O21   O     O_R   0.489840 0.017060 0.861050 -0.642876
O22   O     O_R   0.489840 0.861050 0.017060 -0.634305
O23   O     O_R   0.510160 0.138950 0.982940 -0.643888
O24   O     O_R   0.017060 0.489840 0.861050 -0.615070
Zn1   Zn    Zn3+2 0.004880 0.004880 0.583590 0.955108
Zn2   Zn    Zn3+2 0.995120 0.995120 0.416410 0.926822
Zn3   Zn    Zn3+2 0.004880 0.583590 0.004880 0.945446
Zn4   Zn    Zn3+2 0.995120 0.416410 0.995120 0.945821
Zn5   Zn    Zn3+2 0.583590 0.004880 0.004880 0.931814
Zn6   Zn    Zn3+2 0.416410 0.995120 0.995120 0.920491

loop_
_geom_bond_atom_site_label_1
_geom_bond_atom_site_label_2
_ccdc_geom_bond_type
H19   N5    S    
H15   N3    S    
H56   N23   S    
H37   N14   S    
C65   C79   A    
H27   N9    S    
C64   C77   A    
C41   C50   A    
C36   C42   A    
C16   C72   S    
H42   N17   S    
H51   N21   S    
C7    C70   S    
C71   C79   A    
C16   O3    A    
C66   C80   A    
H2    N26   S    
C62   C87   A    
C38   C44   A    
C1    C18   A    
C26   C78   A    
H32   N11   S    
C37   C90   A    
H49   N20   S    
C68   C81   A    
H45   N23   S    
C52   C85   A    
O22   Zn6   S    
H53   N22   S    
C27   C60   A    
H43   N17   S    
C54   C87   A    
C18   N11   S    
C58   C71   A    
H7    N29   S    
C54   C68   A    
C63   C76   A    
C40   C49   A    
C20   N14   S    
C15   O2    A    
C60   C73   A    
C3    N3    S    
C21   N15   S    
C8    O15   A    
O2    Zn3   S    
C32   C39   A    
C55   C88   A    
C3    C29   A    
C69   C82   A    
H5    N28   S    
C79   N6    S    
C35   C87   A    
C19   C52   A    
C3    C41   A    
C83   N10   S    
O24   Zn4   S    
H41   N16   S    
C14   O7    A    
C24   C57   A    
H16   N4    S    
C31   C46   A    
C14   O24   A    
C35   C49   A    
C27   C89   A    
C53   C86   A    
C34   N25   S    
C57   C70   A    
C37   C47   A    
C43   C48   A    
H47   N19   S    
C9    O20   A    
H12   N1    S    
C28   C61   A    
C4    N4    S    
H23   N12   S    
C30   C63   A    
H48   N19   S    
H28   N9    S    
H35   N13   S    
C39   C67   A    
C74   C82   A    
C5    C68   S    
H36   N14   S    
C5    O1    A    
C11   O22   A    
C18   C51   A    
C36   C48   A    
H34   N12   S    
C56   N27   S    
C25   N18   S    
C2    N2    S    
C10   C64   S    
H57   N24   S    
C33   C40   A    
C57   C90   A    
O6    Zn2   S    
H25   N8    S    
C78   N29   S    
H58   N25   S    
C4    C40   A    
C24   N17   S    
C59   C84   A    
C26   N19   S    
O17   Zn1   S    
H22   N7    S    
C45   N26   S    
C89   N30   S    
H3    N27   S    
H29   N10   S    
C23   C50   A    
C21   C34   A    
C38   C78   A    
C33   C50   A    
C11   C74   S    
C36   C88   A    
C13   O10   A    
C13   O23   A    
C25   C67   A    
H59   N25   S    
H4    N27   S    
C14   C76   S    
C37   C43   A    
O1    Zn1   S    
C33   C86   A    
H24   N7    S    
H26   N8    S    
C72   C77   A    
C70   C83   A    
C61   C88   A    
O5    Zn1   S    
H33   N13   S    
H40   N16   S    
C28   N21   S    
O13   Zn5   S    
C20   C23   A    
C17   O6    A    
H31   N11   S    
C22   C45   A    
C8    C69   S    
C19   N13   S    
C7    O14   A    
C53   C66   A    
C27   N20   S    
C55   C69   A    
C35   C41   A    
H13   N2    S    
C5    O16   A    
C13   C73   S    
C17   C71   S    
C39   C46   A    
C63   C86   A    
H38   N15   S    
H14   N3    S    
H44   N18   S    
C62   C75   A    
C10   O13   A    
C25   C58   A    
O7    Zn3   S    
H10   N30   S    
C58   C85   A    
O21   Zn6   S    
O14   Zn4   S    
O4    Zn1   S    
H60   N26   S    
C15   C75   S    
C26   C59   A    
C45   C48   A    
H54   N22   S    
C29   C62   A    
O8    Zn4   S    
C34   C49   A    
H50   N20   S    
C81   N8    S    
H52   N21   S    
O18   Zn3   S    
O12   Zn2   S    
C75   C81   A    
C51   C64   A    
C76   C80   A    
C20   C53   A    
C67   N28   S    
C6    O17   A    
C22   C55   A    
C23   N23   S    
C60   C90   A    
C61   C74   A    
C24   C56   A    
H46   N18   S    
C15   O8    A    
C59   C72   A    
H11   N2    S    
O20   Zn5   S    
C31   C38   A    
H39   N15   S    
C16   O5    A    
H6    N28   S    
C7    O18   A    
O10   Zn6   S    
H9    N30   S    
C12   C44   A    
O9    Zn5   S    
C77   N5    S    
H1    N1    S    
C82   N9    S    
C17   O4    A    
C80   N7    S    
C21   C54   A    
H18   N5    S    
C2    C42   A    
C32   C85   A    
C12   C19   A    
O19   Zn4   S    
C30   N24   S    
C1    N1    S    
C42   C47   A    
C43   C89   A    
C29   N22   S    
O16   Zn2   S    
C1    C46   A    
C10   O21   A    
C9    C65   S    
H17   N4    S    
H20   N6    S    
C31   C84   A    
O11   Zn6   S    
C12   N12   S    
C22   N16   S    
C6    C66   S    
H21   N6    S    
O15   Zn3   S    
H55   N24   S    
C32   C44   A    
C6    O12   A    
H30   N10   S    
O3    Zn2   S    
O23   Zn5   S    
C8    O19   A    
C2    C28   A    
C11   O9    A    
H8    N29   S    
C9    O11   A    
C51   C84   A    
C73   C83   A    
C4    C30   A    
C52   C65   A    
C47   C56   A    
