data_mof_unit_1232.cif
_audit_creation_date              2012-12-11T14:52:25-0500
_audit_creation_method            fapswitch 2.2
_symmetry_space_group_name_H-M    P1
_symmetry_Int_Tables_number       1
_space_group_crystal_system       triclinic
_cell_length_a                    18.958717
_cell_length_b                    10.906293
_cell_length_c                    18.903768
_cell_angle_alpha                 90.181552
_cell_angle_beta                  91.230911
_cell_angle_gamma                 90.484211
_cell_volume                      3907.6558342

loop_
_atom_site_label
_atom_site_type_symbol
_atom_type_description
_atom_site_fract_x
_atom_site_fract_y
_atom_site_fract_z
_atom_type_partial_charge
C1    C     C_R   0.288795 0.002166 0.861202 0.554061
C2    C     C_R   0.726601 0.040654 0.145550 0.552714
C3    C     C_R   0.788796 0.502165 0.861202 0.554065
C4    C     C_R   0.226603 0.540661 0.145553 0.552711
C5    C     C_3   0.541353 0.726125 0.963563 0.109585
C6    C     C_3   0.489268 0.725653 0.023878 0.123046
C7    C     C_3   0.041349 0.226122 0.963567 0.109600
C8    C     C_3   0.989264 0.225664 0.023882 0.123055
C9    C     C_R   0.303126 0.529549 0.963736 0.093665
C10   C     C_R   0.700791 0.520805 0.037298 0.088707
C11   C     C_R   0.803120 0.029530 0.963731 0.093662
C12   C     C_R   0.200795 0.020782 0.037303 0.088692
C13   C     C_R   0.296378 0.515879 0.037057 -0.142900
C14   C     C_R   0.714300 0.491051 0.967271 -0.098220
C15   C     C_R   0.796372 0.015858 0.037052 -0.142899
C16   C     C_R   0.214301 0.991039 0.967274 -0.098226
C17   C     C_R   0.243078 0.577566 0.073318 0.024046
C18   C     C_R   0.775963 0.532722 0.935164 0.008597
C19   C     C_R   0.743081 0.077562 0.073316 0.024055
C20   C     C_R   0.275962 0.032717 0.935166 0.008582
C21   C     C_R   0.197166 0.656698 0.035585 0.104201
C22   C     C_R   0.825889 0.603026 0.974753 0.090273
C23   C     C_R   0.697178 0.156713 0.035587 0.104224
C24   C     C_R   0.325889 0.103013 0.974757 0.090334
C25   C     C_R   0.204904 0.670238 0.964094 -0.125447
C26   C     C_R   0.813439 0.627412 0.044932 -0.130390
C27   C     C_R   0.704907 0.170239 0.964093 -0.125328
C28   C     C_R   0.313443 0.127387 0.044938 -0.130256
C29   C     C_R   0.255500 0.606106 0.927016 0.024816
C30   C     C_R   0.751542 0.587844 0.077220 -0.001486
C31   C     C_R   0.755496 0.106094 0.927013 0.024940
C32   C     C_R   0.251545 0.087826 0.077225 -0.001477
C33   C     C_R   0.530080 0.727668 0.548185 0.135314
C34   C     C_R   0.532007 0.717936 0.475123 0.097539
C35   C     C_R   0.030032 0.227615 0.548169 0.135344
C36   C     C_R   0.031936 0.217897 0.475106 0.097578
C37   C     C_R   0.519677 0.823710 0.432172 0.015833
C38   C     C_R   0.503681 0.834276 0.578960 0.034473
C39   C     C_R   0.019666 0.323708 0.432170 0.015845
C40   C     C_R   0.003692 0.334257 0.578963 0.034464
C41   C     C_R   0.501609 0.934345 0.464588 -0.182038
C42   C     C_R   0.491788 0.938856 0.537302 -0.181360
C43   C     C_R   0.001669 0.434367 0.464602 -0.182003
C44   C     C_R   0.991856 0.438871 0.537319 -0.181358
C45   C     C_R   0.472398 0.822069 0.854074 0.528081
C46   C     C_R   0.559252 0.816932 0.137671 0.548916
C47   C     C_R   0.972398 0.322068 0.854074 0.528080
C48   C     C_R   0.059252 0.316934 0.137671 0.548934
C49   C     C_R   0.183632 0.589721 0.543156 -0.142813
C50   C     C_R   0.773912 0.704358 0.475745 -0.120730
C51   C     C_R   0.683642 0.089685 0.543156 -0.142866
C52   C     C_R   0.274042 0.204290 0.475733 -0.120745
C53   C     C_R   0.177365 0.582469 0.470998 -0.129954
C54   C     C_R   0.777080 0.686590 0.547553 -0.140394
C55   C     C_R   0.677368 0.082395 0.470999 -0.129996
C56   C     C_R   0.277192 0.186549 0.547542 -0.140354
C57   C     C_R   0.237480 0.564815 0.430048 0.032302
C58   C     C_R   0.752616 0.576340 0.574616 0.023610
C59   C     C_R   0.737480 0.064808 0.430046 0.032234
C60   C     C_R   0.252600 0.076388 0.574626 0.023652
C61   C     C_R   0.303656 0.548957 0.462065 -0.155656
C62   C     C_R   0.722157 0.485565 0.530126 -0.134698
C63   C     C_R   0.803665 0.049001 0.462056 -0.155688
C64   C     C_R   0.222020 0.985694 0.530154 -0.134814
C65   C     C_R   0.310184 0.558168 0.534804 -0.141741
C66   C     C_R   0.718983 0.503612 0.457910 -0.153856
C67   C     C_R   0.810197 0.058221 0.534793 -0.141747
C68   C     C_R   0.218856 0.003719 0.457936 -0.153861
C69   C     C_R   0.250367 0.583886 0.574924 0.026777
C70   C     C_R   0.746214 0.612019 0.430880 0.033098
C71   C     C_R   0.750376 0.083909 0.574916 0.026727
C72   C     C_R   0.246219 0.112021 0.430885 0.033163
C73   C     C_R   0.262008 0.639641 0.852835 0.541467
C74   C     C_R   0.738800 0.637273 0.147762 0.537636
C75   C     C_R   0.762007 0.139636 0.852833 0.541493
C76   C     C_R   0.238801 0.137267 0.147764 0.537630
C77   C     C_R   0.271541 0.044143 0.645648 0.557702
C78   C     C_R   0.726522 0.041341 0.355995 0.547225
C79   C     C_R   0.771544 0.544138 0.645647 0.557666
C80   C     C_R   0.226521 0.541341 0.355997 0.547241
C81   C     C_R   0.471583 0.824407 0.648166 0.568682
C82   C     C_R   0.536127 0.821606 0.356621 0.560399
C83   C     C_R   0.971587 0.324404 0.648168 0.568649
C84   C     C_R   0.036122 0.321606 0.356619 0.560420
C85   C     C_R   0.259884 0.635185 0.644391 0.545138
C86   C     C_R   0.739427 0.639902 0.357328 0.547329
C87   C     C_R   0.759886 0.135192 0.644388 0.545111
C88   C     C_R   0.239426 0.139910 0.357332 0.547382
C89   C     C_3   0.492619 0.923512 0.027216 0.099757
C90   C     C_3   0.544484 0.924852 0.966131 0.087128
C91   C     C_3   0.992623 0.423524 0.027210 0.099848
C92   C     C_3   0.044486 0.424848 0.966125 0.087144
C93   C     C_3   0.445981 0.827426 0.987830 -0.087671
C94   C     C_3   0.588687 0.822563 0.002344 -0.129823
C95   C     C_3   0.945980 0.327439 0.987830 -0.087757
C96   C     C_3   0.088687 0.322561 0.002343 -0.129949
C97   C     C_3   0.499609 0.828266 0.926740 0.016289
C98   C     C_3   0.534992 0.821761 0.063654 0.010256
C99   C     C_3   0.999607 0.328262 0.926740 0.016291
C100  C     C_3   0.034993 0.321771 0.063654 0.010266
Cr1   Cr    Cr6+3 0.229630 0.835900 0.747350 1.012714
Cr2   Cr    Cr6+3 0.770370 0.835900 0.252650 1.008086
Cr3   Cr    Cr6+3 0.729630 0.335900 0.747350 1.012712
Cr4   Cr    Cr6+3 0.270370 0.335900 0.252650 1.008077
Cr5   Cr    Cr6+3 0.387410 0.989850 0.750850 1.018166
Cr6   Cr    Cr6+3 0.612590 0.989850 0.249150 1.017090
Cr7   Cr    Cr6+3 0.887410 0.489850 0.750850 1.018159
Cr8   Cr    Cr6+3 0.112590 0.489850 0.249150 1.017095
Cr9   Cr    Cr6+3 0.385800 0.677120 0.749340 1.040615
Cr10  Cr    Cr6+3 0.614200 0.677120 0.250660 0.997773
Cr11  Cr    Cr6+3 0.885800 0.177120 0.749340 1.040622
Cr12  Cr    Cr6+3 0.114200 0.177120 0.250660 0.997781
H1    H     H_    0.349824 0.530868 0.430998 0.123032
H2    H     H_    0.704081 0.398448 0.550694 0.151964
H3    H     H_    0.849833 0.030941 0.430985 0.123057
H4    H     H_    0.203836 0.898647 0.550736 0.151940
H5    H     H_    0.492875 0.016208 0.433417 0.134417
H6    H     H_    0.471731 0.022344 0.560305 0.146506
H7    H     H_    0.992985 0.516259 0.433444 0.134412
H8    H     H_    0.971851 0.522388 0.560336 0.146478
O1    O     O_R   0.214270 0.709000 0.827470 -0.548618
O2    O     O_R   0.785730 0.709000 0.172530 -0.529423
O3    O     O_R   0.714270 0.209000 0.827470 -0.548623
O4    O     O_R   0.285730 0.209000 0.172530 -0.529426
O5    O     O_R   0.445950 0.919440 0.676520 -0.516467
O6    O     O_R   0.554050 0.919440 0.323480 -0.501123
O7    O     O_R   0.945950 0.419440 0.676520 -0.516454
O8    O     O_R   0.054050 0.419440 0.323480 -0.501117
O9    O     O_R   0.456730 0.717630 0.669840 -0.486791
O10   O     O_R   0.543270 0.717630 0.330160 -0.527356
O11   O     O_R   0.956730 0.217630 0.669840 -0.486785
O12   O     O_R   0.043270 0.217630 0.330160 -0.527359
O13   O     O_R   0.320620 0.625640 0.672920 -0.510454
O14   O     O_R   0.679380 0.625640 0.327080 -0.518960
O15   O     O_R   0.820620 0.125640 0.672920 -0.510448
O16   O     O_R   0.179380 0.125640 0.327080 -0.518922
O17   O     O_3   0.334280 0.834290 0.749180 -0.273724
O18   O     O_3   0.665720 0.834290 0.250820 -0.269358
O19   O     O_3   0.834280 0.334290 0.749180 -0.273730
O20   O     O_3   0.165720 0.334290 0.250820 -0.269345
O21   O     O_R   0.236160 0.958490 0.823130 -0.514196
O22   O     O_R   0.763840 0.958490 0.176870 -0.518642
O23   O     O_R   0.736160 0.458490 0.823130 -0.514196
O24   O     O_R   0.263840 0.458490 0.176870 -0.518646
O25   O     O_R   0.332080 0.075470 0.831280 -0.479295
O26   O     O_R   0.667920 0.075470 0.168720 -0.497341
O27   O     O_R   0.832080 0.575470 0.831280 -0.479291
O28   O     O_R   0.167920 0.575470 0.168720 -0.497322
O29   O     O_R   0.446300 0.918110 0.826620 -0.532235
O30   O     O_R   0.553700 0.918110 0.173380 -0.506008
O31   O     O_R   0.946300 0.418110 0.826620 -0.532292
O32   O     O_R   0.053700 0.418110 0.173380 -0.506064
O33   O     O_R   0.457110 0.716200 0.831760 -0.504245
O34   O     O_R   0.542890 0.716200 0.168240 -0.531596
O35   O     O_R   0.957110 0.216200 0.831760 -0.504239
O36   O     O_R   0.042890 0.216200 0.168240 -0.531588
O37   O     O_R   0.320980 0.624310 0.823030 -0.464740
O38   O     O_R   0.679020 0.624310 0.176970 -0.524792
O39   O     O_R   0.820980 0.124310 0.823030 -0.464739
O40   O     O_R   0.179020 0.124310 0.176970 -0.524793
O41   O     O_R   0.213890 0.710430 0.665540 -0.525597
O42   O     O_R   0.786110 0.710430 0.334460 -0.519665
O43   O     O_R   0.713890 0.210430 0.665540 -0.525598
O44   O     O_R   0.286110 0.210430 0.334460 -0.519722
O45   O     O_R   0.235810 0.959820 0.673020 -0.502252
O46   O     O_R   0.764190 0.959820 0.326980 -0.507487
O47   O     O_R   0.735810 0.459820 0.673020 -0.502251
O48   O     O_R   0.264190 0.459820 0.326980 -0.507479
O49   O     O_R   0.331700 0.076900 0.669350 -0.516687
O50   O     O_R   0.668300 0.076900 0.330650 -0.526845
O51   O     O_R   0.831700 0.576900 0.669350 -0.516634
O52   O     O_R   0.168300 0.576900 0.330650 -0.526854
H9    H     H_    0.387567 0.829584 0.981969 0.116207
H10   H     H_    0.647095 0.820285 0.008103 0.116319
H11   H     H_    0.887567 0.329602 0.981969 0.116160
H12   H     H_    0.147095 0.320278 0.008101 0.116276
H13   H     H_    0.137026 0.608041 0.573578 0.133026
H14   H     H_    0.793006 0.790706 0.455211 0.146454
H15   H     H_    0.637037 0.107976 0.573581 0.133058
H16   H     H_    0.293245 0.290568 0.455190 0.146424
H17   H     H_    0.124999 0.589670 0.447481 0.143480
H18   H     H_    0.800887 0.756407 0.581550 0.128837
H19   H     H_    0.625000 0.089529 0.447483 0.143534
H20   H     H_    0.301094 0.256304 0.581522 0.128848
H21   H     H_    0.362483 0.553392 0.558831 0.145308
H22   H     H_    0.696241 0.433567 0.423401 0.124659
H23   H     H_    0.862501 0.053484 0.558817 0.145341
H24   H     H_    0.196016 0.933735 0.423442 0.124641
N1    N     N_3   0.461638 0.026864 0.063711 -0.651419
H25   H     H_    0.500091 0.071537 0.094205 0.248751
H26   H     H_    0.425935 0.990484 0.099562 0.240840
N2    N     N_3   0.574940 0.032348 0.932956 -0.636965
H27   H     H_    0.534630 0.081175 0.907858 0.239981
H28   H     H_    0.607476 0.000909 0.892948 0.231103
N3    N     N_3   0.961657 0.526904 0.063693 -0.651290
H29   H     H_    0.000086 0.571406 0.094326 0.248853
H30   H     H_    0.925818 0.490540 0.099434 0.240707
N4    N     N_3   0.074923 0.532346 0.932936 -0.636861
H31   H     H_    0.034628 0.580898 0.907607 0.240021
H32   H     H_    0.107655 0.500872 0.893092 0.231033
N5    N     N_3   0.568093 0.616573 0.929471 -0.609159
H33   H     H_    0.524898 0.562762 0.913047 0.273723
H34   H     H_    0.594450 0.644271 0.884166 0.235519
N6    N     N_3   0.454571 0.617682 0.052807 -0.614654
H35   H     H_    0.492474 0.557583 0.072532 0.251026
H36   H     H_    0.424748 0.646563 0.095521 0.241907
N7    N     N_3   0.068085 0.116561 0.929480 -0.609160
H37   H     H_    0.024887 0.062756 0.913057 0.273726
H38   H     H_    0.094445 0.144250 0.884175 0.235512
N8    N     N_3   0.954564 0.117698 0.052813 -0.614651
H39   H     H_    0.992466 0.057597 0.072539 0.251025
H40   H     H_    0.924743 0.146585 0.095528 0.241908
N9    N     N_3   0.357060 0.465375 0.926821 -0.572897
H41   H     H_    0.392203 0.424331 0.962707 0.237646
H42   H     H_    0.332344 0.394738 0.897866 0.248136
N10   N     N_3   0.633071 0.491018 0.064217 -0.626415
H43   H     H_    0.607738 0.573259 0.074428 0.267952
H44   H     H_    0.639722 0.442733 0.111509 0.265791
N11   N     N_3   0.857051 0.965354 0.926814 -0.572916
H45   H     H_    0.892203 0.924331 0.962700 0.237650
H46   H     H_    0.832335 0.894702 0.897871 0.248158
N12   N     N_3   0.133082 0.990963 0.064229 -0.626408
H47   H     H_    0.107735 0.073190 0.074442 0.267960
H48   H     H_    0.139748 0.942680 0.111521 0.265782
H49   H     H_    0.330840 0.452969 0.065108 0.139058
H50   H     H_    0.674634 0.440563 0.936963 0.160950
H51   H     H_    0.830830 0.952936 0.065101 0.139058
H52   H     H_    0.174635 0.940549 0.936967 0.160959
N13   N     N_3   0.137566 0.713576 0.067420 -0.589052
H53   H     H_    0.099770 0.644687 0.071155 0.260537
H54   H     H_    0.113513 0.775384 0.032695 0.242162
N14   N     N_3   0.888569 0.652456 0.943571 -0.593037
H55   H     H_    0.920415 0.578357 0.931458 0.269249
H56   H     H_    0.917460 0.708063 0.979006 0.229087
N15   N     N_3   0.637602 0.213648 0.067432 -0.589106
H57   H     H_    0.599796 0.144788 0.071202 0.260450
H58   H     H_    0.613543 0.275433 0.032697 0.242092
N16   N     N_3   0.388569 0.152439 0.943575 -0.593085
H59   H     H_    0.420404 0.078331 0.931452 0.269198
H60   H     H_    0.417468 0.208027 0.979013 0.229007
H61   H     H_    0.168007 0.729542 0.936803 0.151920
H62   H     H_    0.852209 0.682837 0.073576 0.156476
H63   H     H_    0.668015 0.229554 0.936805 0.151861
H64   H     H_    0.352216 0.182803 0.073584 0.156489
N17   N     N_3   0.551709 0.625984 0.591522 -0.591263
H65   H     H_    0.520333 0.549537 0.578472 0.252384
H66   H     H_    0.604029 0.605835 0.580423 0.245337
N18   N     N_3   0.544374 0.597596 0.447277 -0.652175
H67   H     H_    0.591921 0.596326 0.420959 0.278924
H68   H     H_    0.502017 0.570463 0.414365 0.248424
N19   N     N_3   0.051616 0.125878 0.591488 -0.591248
H69   H     H_    0.020190 0.049489 0.578442 0.252361
H70   H     H_    0.103920 0.105637 0.580369 0.245314
N20   N     N_3   0.044213 0.097535 0.447244 -0.652226
H71   H     H_    0.091766 0.096150 0.420936 0.278873
H72   H     H_    0.001840 0.070519 0.414320 0.248405

loop_
_geom_bond_atom_site_label_1
_geom_bond_atom_site_label_2
_ccdc_geom_bond_type
C58   C62   A    
C87   O43   A    
C49   C53   A    
C65   H21   S    
Cr3   O47   S    
C93   H9    S    
C64   H4    S    
C55   C59   A    
C34   C37   A    
Cr6   O50   S    
N5    H33   S    
C14   C18   A    
C1    O25   A    
C35   C36   A    
C40   C83   S    
C78   O50   A    
Cr9   O37   S    
Cr1   O1    S    
C5    C94   S    
C85   O13   A    
Cr11  O19   S    
N19   H69   S    
C90   N2    S    
N9    H41   S    
N18   H67   S    
C15   C19   A    
C7    C96   S    
C11   N11   S    
C4    O24   A    
C50   C54   A    
C57   C61   A    
C7    C99   S    
C13   C17   A    
C37   C41   A    
C75   O3    A    
C64   C68   A    
C50   H14   S    
N10   H44   S    
C39   C84   S    
C62   H2    S    
Cr3   O19   S    
C5    N5    S    
C5    C6    S    
C30   C74   S    
C95   C99   S    
Cr6   O18   S    
C29   C73   S    
C94   C98   S    
C77   O45   A    
C4    O28   A    
C73   O37   A    
C92   C96   S    
C47   C99   S    
C3    C18   S    
Cr9   O17   S    
C41   C42   A    
C79   O51   A    
Cr6   O30   S    
N1    H26   S    
C9    C13   A    
C85   O41   A    
C82   O6    A    
Cr3   O43   S    
N20   H72   S    
Cr8   O32   S    
C11   C15   A    
C8    C100  S    
C86   O14   A    
C1    O21   A    
C16   H52   S    
C12   C16   A    
C67   H23   S    
C89   N1    S    
N15   H58   S    
N15   H57   S    
C54   H18   S    
C33   N17   S    
N4    H31   S    
C86   O42   A    
C23   C27   A    
C91   C100  S    
C82   O10   A    
Cr9   O33   S    
C35   C40   A    
C90   C97   S    
C45   O29   A    
Cr10  O38   S    
C9    C29   A    
Cr5   O25   S    
C23   N15   S    
C46   C98   S    
Cr3   O3    S    
Cr2   O46   S    
C49   C69   A    
N17   H65   S    
C12   C32   A    
Cr2   O18   S    
N6    H35   S    
N5    H34   S    
C57   C80   S    
N1    H25   S    
C8    C95   S    
Cr1   O21   S    
C84   O8    A    
Cr12  O16   S    
C48   C100  S    
C59   C78   S    
C35   N19   S    
C72   C88   S    
N18   H68   S    
C90   C94   S    
C49   H13   S    
N9    H42   S    
C25   C29   A    
C46   O34   A    
N16   H60   S    
C60   C77   S    
C92   N4    S    
C78   O46   A    
Cr1   O17   S    
C74   O38   A    
C27   C31   A    
N7    H37   S    
C76   O4    A    
C87   O15   A    
C26   H62   S    
C7    C8    S    
C3    O23   A    
N10   H43   S    
C88   O16   A    
C7    N7    S    
C10   C14   A    
C81   O5    A    
N11   H45   S    
Cr8   O20   S    
C62   C66   A    
Cr7   O7    S    
C42   H6    S    
Cr7   O51   S    
C56   H20   S    
C51   C55   A    
C9    N9    S    
C88   O44   A    
C91   C95   S    
C84   O12   A    
C36   N20   S    
C56   C60   A    
C27   H63   S    
C68   C72   A    
N2    H28   S    
C19   C23   A    
C43   C44   A    
C52   H16   S    
C63   C67   A    
C6    N6    S    
N13   H53   S    
Cr10  O34   S    
C69   C85   S    
C53   H17   S    
Cr4   O48   S    
Cr7   O27   S    
C10   C30   A    
C93   C97   S    
C81   O9    A    
C61   C65   A    
C28   C32   A    
C16   C20   A    
C6    C93   S    
C21   N13   S    
C52   C72   A    
C3    O27   A    
N14   H56   S    
C33   C34   A    
C11   C31   A    
Cr12  O12   S    
N12   H48   S    
C12   N12   S    
Cr5   O49   S    
C58   C79   S    
C94   H10   S    
C71   C87   S    
C4    C17   S    
Cr10  O18   S    
Cr11  O11   S    
Cr12  O36   S    
C74   O2    A    
N6    H36   S    
C26   C30   A    
C73   O1    A    
C38   C81   S    
N17   H66   S    
C48   O32   A    
C34   N18   S    
C2    O22   A    
Cr2   O22   S    
C55   H19   S    
C37   C82   S    
Cr10  O14   S    
C45   O33   A    
C8    N8    S    
C80   O52   A    
Cr12  O20   S    
C70   C86   S    
C6    C98   S    
C31   C75   S    
C91   C92   S    
C51   H15   S    
C24   N16   S    
Cr2   O42   S    
C54   C58   A    
C75   O39   A    
C21   C25   A    
N16   H59   S    
C76   O40   A    
C1    C20   S    
C53   C57   A    
C96   H12   S    
C46   O30   A    
C2    C19   S    
C18   C22   A    
C59   C63   A    
C36   C39   A    
C24   C28   A    
Cr11  O39   S    
Cr3   O23   S    
C32   C76   S    
C39   C43   A    
C51   C71   A    
C14   H50   S    
Cr4   O4    S    
C25   H61   S    
C2    O26   A    
Cr5   O29   S    
C91   N3    S    
Cr6   O6    S    
Cr10  O10   S    
N8    H40   S    
C33   C38   A    
Cr6   O26   S    
Cr5   O5    S    
C89   C98   S    
C60   C64   A    
C79   O47   A    
N2    H27   S    
N20   H71   S    
C66   H22   S    
C83   O11   A    
C50   C70   A    
Cr7   O31   S    
N13   H54   S    
C45   C97   S    
C95   H11   S    
Cr1   O45   S    
C13   H49   S    
Cr11  O15   S    
Cr4   O44   S    
C66   C70   A    
C47   O35   A    
C63   H3    S    
Cr8   O52   S    
C65   C69   A    
C96   C100  S    
Cr1   O41   S    
N14   H55   S    
N3    H30   S    
C80   O48   A    
C5    C97   S    
C67   C71   A    
N11   H46   S    
Cr9   O13   S    
C89   C93   S    
N12   H47   S    
C48   O36   A    
C83   O7    A    
N19   H70   S    
Cr4   O24   S    
C47   O31   A    
C61   H1    S    
Cr5   O17   S    
N3    H29   S    
C38   C42   A    
Cr4   O20   S    
C40   C44   A    
C22   N14   S    
Cr12  O40   S    
C68   H24   S    
C77   O49   A    
N8    H39   S    
C22   C26   A    
C15   H51   S    
N7    H38   S    
C44   H8    S    
Cr8   O8    S    
N4    H32   S    
C28   H64   S    
C41   H5    S    
C89   C90   S    
Cr2   O2    S    
Cr9   O9    S    
Cr11  O35   S    
C20   C24   A    
Cr7   O19   S    
C52   C56   A    
C92   C99   S    
C43   H7    S    
Cr8   O28   S    
C10   N10   S    
C17   C21   A    
