data_mof_unit_4772.cif
_audit_creation_date              2012-12-10T20:49:43-0500
_audit_creation_method            fapswitch 2.2
_symmetry_space_group_name_H-M    P1
_symmetry_Int_Tables_number       1
_space_group_crystal_system       triclinic
_cell_length_a                    8.110744
_cell_length_b                    8.927931
_cell_length_c                    16.706188
_cell_angle_alpha                 90.037406
_cell_angle_beta                  82.070807
_cell_angle_gamma                 89.820413
_cell_volume                      1198.15872882

loop_
_atom_site_label
_atom_site_type_symbol
_atom_type_description
_atom_site_fract_x
_atom_site_fract_y
_atom_site_fract_z
_atom_type_partial_charge
C1    C     C_R   0.499826 0.782010 0.500048 1.010738
C2    C     C_R   0.500167 0.217989 0.499987 0.924940
C3    C     C_1   0.499780 0.934812 0.500001 -0.162813
C4    C     C_1   0.500253 0.065206 0.499973 -0.146472
C5    C     C_R   0.472061 0.494826 0.653786 0.925853
C6    C     C_R   0.527780 0.494273 0.346264 0.935082
C7    C     C_R   0.441723 0.465744 0.740160 -0.183239
C8    C     C_R   0.555528 0.463347 0.260072 -0.171845
C9    C     C_R   0.509086 0.560696 0.795109 -0.056282
C10   C     C_R   0.491611 0.561705 0.205527 -0.059712
C11   C     C_R   0.489542 0.520133 0.876548 -0.162253
C12   C     C_R   0.495415 0.515481 0.125510 -0.158281
C13   C     C_R   0.403658 0.389774 0.903173 0.111782
C14   C     C_R   0.553180 0.372439 0.100617 0.114875
C15   C     C_R   0.332607 0.299410 0.849820 -0.050868
C16   C     C_R   0.622839 0.279051 0.153446 -0.072676
C17   C     C_R   0.350680 0.335443 0.768209 -0.047158
C18   C     C_R   0.628758 0.324032 0.232740 -0.069979
C19   C     C_2   0.395182 0.345973 0.987811 -0.170761
C20   C     C_2   0.539783 0.322078 0.017987 -0.148284
H1    H     H_    0.266900 0.198617 0.871720 0.164728
H2    H     H_    0.671044 0.170157 0.132833 0.177281
H3    H     H_    0.448976 0.589541 0.082261 0.166456
H4    H     H_    0.541061 0.589998 0.920025 0.171951
N1    N     N_1   0.926360 0.500000 0.499990 0.005445
N2    N     N_1   0.073640 0.500000 0.500010 0.006034
O1    O     O_R   0.363150 0.714660 0.500000 -0.612118
O2    O     O_R   0.636850 0.285340 0.500000 -0.598203
O3    O     O_R   0.636850 0.714660 0.500000 -0.610745
O4    O     O_R   0.363150 0.285340 0.500000 -0.602756
O5    O     O_R   0.346950 0.500000 0.615800 -0.582654
O6    O     O_R   0.653050 0.500000 0.384200 -0.577819
O7    O     O_R   0.620700 0.500000 0.615800 -0.603625
O8    O     O_R   0.379300 0.500000 0.384200 -0.606359
Zn1   Zn    Zn3+2 0.317220 0.500000 0.500010 1.067969
Zn2   Zn    Zn3+2 0.682780 0.500000 0.499990 1.070519
C21   C     C_2   0.596816 0.703201 0.770119 0.958320
O9    O     O_2   0.696549 0.755648 0.811101 -0.586667
O10   O     O_R   0.562803 0.780107 0.701312 -0.801308
H5    H     H_    0.630098 0.875422 0.691269 0.366677
C22   C     C_2   0.419370 0.711752 0.229887 0.953186
O11   O     O_2   0.329865 0.775558 0.187327 -0.582506
O12   O     O_R   0.454547 0.781760 0.300459 -0.806175
H6    H     H_    0.394583 0.881171 0.310801 0.369965
C23   C     C_2   0.705197 0.217944 0.285349 0.877051
O13   O     O_2   0.810205 0.260909 0.325920 -0.585161
O14   O     O_R   0.664479 0.066059 0.284290 -0.789423
H7    H     H_    0.726222 0.004022 0.321483 0.361471
C24   C     C_2   0.281416 0.228045 0.714167 0.879713
O15   O     O_2   0.172399 0.267341 0.674898 -0.584940
O16   O     O_R   0.334775 0.078923 0.712041 -0.782348
H8    H     H_    0.277203 0.015149 0.674052 0.356106
C25   C     C_2   0.693470 0.268655 0.965893 0.956991
O17   O     O_2   0.830110 0.290007 0.986722 -0.582549
O18   O     O_R   0.681789 0.190720 0.894219 -0.764329
H9    H     H_    0.794594 0.160361 0.864660 0.364992
C26   C     C_2   0.231747 0.360289 0.040366 0.973090
O19   O     O_2   0.121790 0.438254 0.018784 -0.554264
O20   O     O_R   0.203350 0.283884 0.114036 -0.759650
H10   H     H_    0.087692 0.302749 0.144005 0.363011

loop_
_geom_bond_atom_site_label_1
_geom_bond_atom_site_label_2
_ccdc_geom_bond_type
C5    O5    A    
C7    C17   A    
C2    C4    S    
O18   H9    S    
C5    C7    S    
C21   O9    D    
C14   C20   S    
C11   C13   A    
C22   O11   D    
N2    Zn1   S    
C25   O18   S    
C6    O6    A    
O14   H7    S    
C12   H3    S    
C2    O4    A    
O1    Zn1   S    
C9    C21   S    
O20   H10   S    
C21   O10   S    
C16   C18   A    
C23   O13   D    
C19   C26   S    
C10   C22   S    
C22   O12   S    
O3    Zn2   S    
C9    C11   A    
C26   O19   D    
C6    O8    A    
C10   C12   A    
O4    Zn1   S    
O6    Zn2   S    
C1    O3    A    
C12   C14   A    
C24   O15   D    
C14   C16   A    
C13   C15   A    
O12   H6    S    
O5    Zn1   S    
C26   O20   S    
C2    O2    A    
C13   C19   S    
N1    Zn2   S    
O16   H8    S    
C18   C23   S    
C7    C9    A    
C11   H4    S    
C15   H1    S    
O7    Zn2   S    
O2    Zn2   S    
C1    O1    A    
O8    Zn1   S    
C23   O14   S    
C17   C24   S    
O10   H5    S    
C15   C17   A    
C6    C8    S    
C1    C3    S    
N1    N2    T    
C25   O17   D    
C8    C10   A    
C8    C18   A    
C3    C4    T    
C19   C20   D    
C16   H2    S    
C20   C25   S    
C24   O16   S    
C5    O7    A    
