data_mof_unit_591.cif
_audit_creation_date              2012-12-10T18:09:37-0500
_audit_creation_method            fapswitch 2.2
_symmetry_space_group_name_H-M    P1
_symmetry_Int_Tables_number       1
_space_group_crystal_system       triclinic
_cell_length_a                    15.269008
_cell_length_b                    15.167052
_cell_length_c                    9.407963
_cell_angle_alpha                 89.928912
_cell_angle_beta                  90.045612
_cell_angle_gamma                 89.996334
_cell_volume                      2178.74862633

loop_
_atom_site_label
_atom_site_type_symbol
_atom_type_description
_atom_site_fract_x
_atom_site_fract_y
_atom_site_fract_z
_atom_type_partial_charge
C1    C     C_R   0.119601 0.379515 0.499824 0.798513
C2    C     C_R   0.119671 0.620426 0.499776 0.810614
C3    C     C_R   0.619360 0.879198 0.500293 0.800106
C4    C     C_R   0.619429 0.120717 0.499631 0.801095
C5    C     C_3   0.079578 0.545164 0.083774 -0.190320
C6    C     C_3   0.079630 0.545063 0.916282 -0.198986
C7    C     C_3   0.584738 0.034731 0.083906 -0.194204
C8    C     C_3   0.585098 0.033860 0.916294 -0.193363
C9    C     C_R   0.879488 0.380288 0.499790 0.760246
C10   C     C_R   0.879181 0.619356 0.500109 0.763008
C11   C     C_R   0.379510 0.880199 0.499772 0.773378
C12   C     C_R   0.379416 0.119706 0.499796 0.763334
C13   C     C_3   0.847088 0.222037 0.558161 -0.117369
C14   C     C_3   0.776526 0.293942 0.342704 -0.125916
C15   C     C_3   0.771385 0.700536 0.654965 -0.148573
C16   C     C_3   0.848642 0.779190 0.452677 -0.121144
C17   C     C_3   0.348541 0.720453 0.551929 -0.130773
C18   C     C_3   0.273759 0.796046 0.344164 -0.140027
C19   C     C_3   0.347340 0.278100 0.557672 -0.119348
C20   C     C_3   0.275436 0.205752 0.343522 -0.139566
C21   C     C_3   0.274419 0.650725 0.560393 -0.439240
C22   C     C_3   0.206393 0.720679 0.344741 -0.421078
C23   C     C_3   0.274526 0.349334 0.558360 -0.441571
C24   C     C_3   0.205143 0.278481 0.344993 -0.366190
C25   C     C_3   0.774382 0.150743 0.557415 -0.445759
C26   C     C_3   0.704730 0.222622 0.344316 -0.373124
C27   C     C_3   0.702040 0.774334 0.654151 -0.353749
C28   C     C_3   0.775185 0.849705 0.447346 -0.449160
C29   C     C_3   0.730755 0.340882 0.591319 -0.415644
C30   C     C_3   0.733387 0.662089 0.399060 -0.399197
C31   C     C_3   0.233098 0.838305 0.597726 -0.406461
C32   C     C_3   0.231116 0.159599 0.593311 -0.415551
C33   C     C_3   0.809871 0.311508 0.498760 -0.019518
C34   C     C_3   0.809556 0.688100 0.500808 -0.012380
C35   C     C_3   0.310199 0.811013 0.499097 -0.002094
C36   C     C_3   0.309779 0.188603 0.499202 -0.017441
C37   C     C_3   0.188499 0.689007 0.498849 0.118975
C38   C     C_3   0.188332 0.310833 0.498802 0.069714
C39   C     C_3   0.688163 0.189513 0.498147 0.068863
C40   C     C_3   0.687930 0.810203 0.501264 0.096297
C41   C     C_3   0.159301 0.769101 0.589900 -0.379759
C42   C     C_3   0.159382 0.231062 0.590911 -0.327046
C43   C     C_3   0.659452 0.269019 0.590560 -0.322971
C44   C     C_3   0.660676 0.732530 0.403501 -0.367918
C45   C     C_3   0.923205 0.545468 0.083508 -0.168445
C46   C     C_3   0.923171 0.545360 0.916236 -0.165274
C47   C     C_3   0.001167 0.409056 0.084042 -0.192868
C48   C     C_3   0.000927 0.409098 0.916440 -0.157258
C49   C     C_3   0.429880 0.055199 0.083291 -0.156740
C50   C     C_3   0.430214 0.055765 0.916169 -0.175699
C51   C     C_3   0.490204 0.909751 0.083869 -0.191933
C52   C     C_3   0.488773 0.909972 0.916322 -0.165719
Cu1   Cu    Cu3+1 0.000100 0.500000 0.642410 0.908803
Cu2   Cu    Cu3+1 0.000100 0.500000 0.357590 0.910869
Cu3   Cu    Cu3+1 0.500100 0.000000 0.642410 0.923851
Cu4   Cu    Cu3+1 0.500100 0.000000 0.357590 0.907147
H1    H     H_    0.900399 0.199809 0.485610 0.138483
H2    H     H_    0.832678 0.268012 0.279658 0.137714
H3    H     H_    0.825656 0.721973 0.726267 0.131511
H4    H     H_    0.897317 0.800095 0.534404 0.141249
H5    H     H_    0.397051 0.697632 0.471411 0.141334
H6    H     H_    0.329101 0.775239 0.274550 0.148128
H7    H     H_    0.400087 0.300394 0.484024 0.138162
H8    H     H_    0.331369 0.229673 0.277926 0.135169
H9    H     H_    0.294143 0.590996 0.499575 0.144279
H10   H     H_    0.232251 0.664898 0.280213 0.151382
H11   H     H_    0.295662 0.406453 0.492271 0.147028
H12   H     H_    0.227765 0.334354 0.277338 0.157796
H13   H     H_    0.795655 0.094183 0.490408 0.149309
H14   H     H_    0.725949 0.166810 0.275599 0.157355
H15   H     H_    0.724405 0.828560 0.725248 0.147696
H16   H     H_    0.794241 0.906932 0.514679 0.146304
H17   H     H_    0.262737 0.628906 0.671959 0.161499
H18   H     H_    0.143812 0.741307 0.293626 0.212779
H19   H     H_    0.262736 0.375512 0.667342 0.163035
H20   H     H_    0.142240 0.254813 0.298361 0.183268
H21   H     H_    0.762587 0.123687 0.665949 0.159976
H22   H     H_    0.642117 0.248020 0.298971 0.180328
H23   H     H_    0.638511 0.750598 0.697494 0.234949
H24   H     H_    0.765694 0.875702 0.337549 0.161945
H25   H     H_    0.751559 0.354042 0.702509 0.187447
H26   H     H_    0.702699 0.403786 0.551530 0.146815
H27   H     H_    0.705567 0.596886 0.428280 0.144486
H28   H     H_    0.757541 0.655133 0.288225 0.177137
H29   H     H_    0.255822 0.844416 0.709526 0.181093
H30   H     H_    0.207271 0.904332 0.568187 0.143224
H31   H     H_    0.252376 0.147813 0.704704 0.181884
H32   H     H_    0.203353 0.095983 0.556174 0.146554
H33   H     H_    0.142262 0.747630 0.699612 0.167851
H34   H     H_    0.099623 0.799474 0.542664 0.187613
H35   H     H_    0.145738 0.252585 0.701759 0.203227
H36   H     H_    0.097933 0.202566 0.546932 0.191251
H37   H     H_    0.646742 0.247325 0.701709 0.205240
H38   H     H_    0.597579 0.297220 0.547593 0.193465
H39   H     H_    0.598849 0.702438 0.443234 0.182390
H40   H     H_    0.648012 0.756537 0.293542 0.171383
H41   H     H_    0.921582 0.614998 0.120470 0.148993
H42   H     H_    0.921232 0.614860 0.878712 0.145960
H43   H     H_    0.059504 0.372201 0.122378 0.148086
H44   H     H_    0.058747 0.371749 0.877565 0.163269
H45   H     H_    0.436357 0.124172 0.121943 0.140484
H46   H     H_    0.438398 0.124795 0.879100 0.166742
H47   H     H_    0.543926 0.866154 0.121816 0.139821
H48   H     H_    0.540431 0.864919 0.875729 0.167536
H49   H     H_    0.862382 0.513675 0.123509 0.171525
H50   H     H_    0.862533 0.512923 0.876812 0.173148
H51   H     H_    0.942962 0.372221 0.122801 0.160108
H52   H     H_    0.942147 0.373013 0.878765 0.166368
H53   H     H_    0.365856 0.030439 0.121526 0.215934
H54   H     H_    0.365570 0.032727 0.876058 0.161269
H55   H     H_    0.428406 0.879977 0.122925 0.183777
H56   H     H_    0.425120 0.882572 0.880203 0.154705
H57   H     H_    0.081497 0.614746 0.120711 0.160292
H58   H     H_    0.081769 0.614596 0.878837 0.147010
H59   H     H_    0.140260 0.513010 0.123952 0.136879
H60   H     H_    0.140260 0.512693 0.876616 0.140209
H61   H     H_    0.595204 0.103709 0.119860 0.151169
H62   H     H_    0.597034 0.102259 0.878475 0.161338
H63   H     H_    0.640939 0.995541 0.124975 0.140670
H64   H     H_    0.640730 0.993182 0.877275 0.135820
N1    N     N_3   0.001260 0.500000 0.143650 -0.128752
N2    N     N_3   0.001260 0.500000 0.856350 -0.138565
N3    N     N_3   0.501260 0.000000 0.143650 -0.132128
N4    N     N_3   0.501260 1.000000 0.856350 -0.134120
O1    O     O_R   0.091250 0.408820 0.620260 -0.584157
O2    O     O_R   0.091250 0.408820 0.379740 -0.603143
O3    O     O_R   0.091250 0.591180 0.620260 -0.603442
O4    O     O_R   0.091250 0.591180 0.379740 -0.585776
O5    O     O_R   0.591250 0.908820 0.620260 -0.589820
O6    O     O_R   0.591250 0.908820 0.379740 -0.600099
O7    O     O_R   0.591250 0.091180 0.620260 -0.585056
O8    O     O_R   0.591250 0.091180 0.379740 -0.602694
O9    O     O_R   0.908940 0.408800 0.620260 -0.579281
O10   O     O_R   0.908940 0.408800 0.379740 -0.606020
O11   O     O_R   0.908940 0.591200 0.620260 -0.610802
O12   O     O_R   0.908940 0.591200 0.379740 -0.581547
O13   O     O_R   0.408940 0.908800 0.620260 -0.586304
O14   O     O_R   0.408940 0.908800 0.379740 -0.585792
O15   O     O_R   0.408940 0.091200 0.620260 -0.580219
O16   O     O_R   0.408940 0.091200 0.379740 -0.608258
C53   C     C_2   0.885485 0.229157 0.706004 0.360152
H65   H     H_    0.844225 0.246751 0.795405 0.081091
O17   O     O_2   0.962804 0.213458 0.726853 -0.590143
C54   C     C_2   0.743866 0.375424 0.265290 0.372028
H66   H     H_    0.732391 0.436793 0.321197 0.059194
O18   O     O_2   0.729811 0.372593 0.137591 -0.564718
C55   C     C_2   0.733839 0.616922 0.719364 0.396309
H67   H     H_    0.730120 0.556321 0.658725 0.057579
O19   O     O_2   0.708312 0.616613 0.842339 -0.552118
C56   C     C_2   0.895697 0.775817 0.311324 0.366513
H68   H     H_    0.859949 0.761067 0.214540 0.069912
O20   O     O_2   0.974124 0.790727 0.304498 -0.594311
C57   C     C_2   0.395438 0.725513 0.693278 0.368481
H69   H     H_    0.359941 0.742962 0.789013 0.067877
O21   O     O_2   0.473358 0.708433 0.701504 -0.579899
C58   C     C_2   0.232542 0.877265 0.278482 0.376111
H70   H     H_    0.178147 0.910048 0.330219 0.088114
O22   O     O_2   0.257392 0.904305 0.163198 -0.578386
C59   C     C_2   0.386688 0.270854 0.704930 0.368023
H71   H     H_    0.345802 0.254137 0.795283 0.074566
O23   O     O_2   0.464348 0.285416 0.724292 -0.582718
C60   C     C_2   0.239646 0.124434 0.270290 0.377005
H72   H     H_    0.233399 0.062570 0.326730 0.074415
O24   O     O_2   0.217690 0.127784 0.145544 -0.557389

loop_
_geom_bond_atom_site_label_1
_geom_bond_atom_site_label_2
_ccdc_geom_bond_type
C16   C28   S    
C41   H33   S    
Cu3   Cu4   S    
C31   H29   S    
C29   C33   S    
C3    O6    A    
C51   N3    S    
C7    H61   S    
C55   H67   S    
Cu1   O11   S    
C52   H56   S    
C13   C25   S    
C14   C33   S    
C8    H62   S    
C7    C8    S    
C4    O8    A    
C45   C46   S    
C29   H25   S    
Cu2   O2    S    
C26   H22   S    
Cu3   O15   S    
C37   C41   S    
C25   H21   S    
C32   C36   S    
C58   H70   S    
C55   O19   D    
C11   O14   A    
C1    O1    A    
C38   C42   S    
C27   H23   S    
C19   C36   S    
C53   O17   D    
C49   H45   S    
C5    C6    S    
Cu4   O16   S    
C26   C39   S    
C47   N1    S    
C13   H1    S    
C28   C40   S    
C51   H47   S    
Cu2   O10   S    
C21   H17   S    
C50   H54   S    
C43   H38   S    
C47   H43   S    
C21   C37   S    
C42   H35   S    
C16   H4    S    
C23   H11   S    
C30   H27   S    
C22   H10   S    
Cu1   O3    S    
C17   H5    S    
C21   H9    S    
C6    H58   S    
C20   C24   S    
C19   H7    S    
Cu3   O5    S    
C47   C48   S    
C24   C38   S    
C12   O16   A    
C22   C37   S    
C13   C53   S    
C12   C36   S    
C18   C35   S    
C15   C34   S    
C16   C34   S    
C2    O3    A    
C41   H34   S    
C46   H42   S    
C17   C57   S    
C31   H30   S    
C18   C22   S    
C5    H59   S    
C9    C33   S    
C30   C44   S    
C28   H16   S    
C14   H2    S    
C45   H49   S    
C4    O7    A    
C60   O24   D    
C48   H44   S    
C48   N2    S    
C14   C54   S    
C30   C34   S    
C51   C52   S    
Cu4   N3    S    
C7    H63   S    
C22   H18   S    
Cu1   O9    S    
C1    O2    A    
C54   O18   D    
C23   H19   S    
C18   H6    S    
C39   C43   S    
C45   N1    S    
Cu1   Cu2   S    
C32   H31   S    
Cu2   O4    S    
C17   C21   S    
C20   H8    S    
C19   C23   S    
C13   C33   S    
C44   H40   S    
C56   O20   D    
Cu4   O14   S    
C15   C27   S    
C59   H71   S    
C4    C39   S    
C27   C40   S    
C10   O12   A    
C20   C60   S    
C59   O23   D    
C12   O15   A    
C50   N4    S    
C9    O9    A    
C10   C34   S    
C14   C26   S    
C6    H60   S    
Cu4   O8    S    
Cu1   O1    S    
C1    C38   S    
C29   C43   S    
Cu2   N1    S    
C3    C40   S    
C50   H46   S    
Cu3   O7    S    
C26   H14   S    
C31   C35   S    
C57   O21   D    
C6    N2    S    
C27   H15   S    
C8    H64   S    
C49   H53   S    
C60   H72   S    
Cu3   N4    S    
C52   H48   S    
C5    N1    S    
C51   H55   S    
C31   C41   S    
C5    H57   S    
C3    O5    A    
C15   H3    S    
C8    N4    S    
C18   C58   S    
C7    N3    S    
C54   H66   S    
C23   C38   S    
C47   H51   S    
Cu3   O13   S    
Cu1   N2    S    
C19   C59   S    
C58   O22   D    
C11   O13   A    
C10   O11   A    
C44   H39   S    
C45   H41   S    
Cu2   O12   S    
C9    O10   A    
C15   C55   S    
C52   N4    S    
C2    C37   S    
C48   H52   S    
C46   H50   S    
C11   C35   S    
C43   H37   S    
C42   H36   S    
C30   H28   S    
C28   H24   S    
Cu4   O6    S    
C24   H12   S    
C24   H20   S    
C20   C36   S    
C40   C44   S    
C25   H13   S    
C29   H26   S    
C49   N3    S    
C49   C50   S    
C32   C42   S    
C56   H68   S    
C46   N2    S    
C16   C56   S    
C17   C35   S    
C57   H69   S    
C53   H65   S    
C25   C39   S    
C2    O4    A    
C32   H32   S    
