data_mof_unit_2990.cif
_audit_creation_date              2012-12-11T16:54:51-0500
_audit_creation_method            fapswitch 2.2
_symmetry_space_group_name_H-M    P1
_symmetry_Int_Tables_number       1
_space_group_crystal_system       triclinic
_cell_length_a                    27.42775
_cell_length_b                    7.17327
_cell_length_c                    25.067261
_cell_angle_alpha                 89.99999
_cell_angle_beta                  95.180652
_cell_angle_gamma                 90.0
_cell_volume                      4911.75271196

loop_
_atom_site_label
_atom_site_type_symbol
_atom_type_description
_atom_site_fract_x
_atom_site_fract_y
_atom_site_fract_z
_atom_type_partial_charge
O1    O     O_R   0.297580 0.601040 0.203260 -0.540426
O2    O     O_R   0.702420 0.398960 0.796740 -0.548888
O3    O     O_R   0.202420 0.101040 0.296740 -0.540424
O4    O     O_R   0.797580 0.898960 0.703260 -0.548889
O5    O     O_R   0.198250 0.269810 0.192660 -0.504324
O6    O     O_R   0.801750 0.730190 0.807340 -0.504341
O7    O     O_R   0.301750 0.769810 0.307340 -0.504323
O8    O     O_R   0.698250 0.230190 0.692660 -0.504341
C1    C     C_R   0.180899 0.439332 0.179461 0.777348
C2    C     C_R   0.817992 0.560308 0.821856 0.785789
C3    C     C_R   0.319101 0.939332 0.320539 0.777348
C4    C     C_R   0.682008 0.060308 0.678144 0.785790
O9    O     O_R   0.296940 0.271230 0.196830 -0.510691
O10   O     O_R   0.703060 0.728770 0.803170 -0.533378
O11   O     O_R   0.203060 0.771230 0.303170 -0.510690
O12   O     O_R   0.796940 0.228770 0.696830 -0.533377
O13   O     O_R   0.301830 0.102400 0.300940 -0.536133
O14   O     O_R   0.698170 0.897600 0.699060 -0.536349
O15   O     O_R   0.198170 0.602400 0.199060 -0.536133
O16   O     O_R   0.801830 0.397600 0.800940 -0.536349
C5    C     C_R   0.311893 0.440054 0.183597 0.785499
C6    C     C_R   0.687155 0.560305 0.815367 0.746360
C7    C     C_R   0.188107 0.940054 0.316402 0.785498
C8    C     C_R   0.812845 0.060305 0.684633 0.746361
O17   O     O_3   0.251490 0.435010 0.284150 -0.372611
O18   O     O_3   0.748510 0.564990 0.715850 -0.359282
O19   O     O_3   0.248510 0.935010 0.215850 -0.372612
O20   O     O_3   0.751490 0.064990 0.784150 -0.359283
V1    V     V_3+5 0.249720 0.159590 0.243660 1.668929
V2    V     V_3+5 0.750280 0.840410 0.756340 1.601420
V3    V     V_3+5 0.250280 0.659590 0.256340 1.668929
V4    V     V_3+5 0.749720 0.340410 0.743660 1.601420
C9    C     C_R   0.883428 0.891747 0.650056 -0.263413
C10   C     C_R   0.121762 0.110843 0.359137 -0.241188
C11   C     C_R   0.616571 0.391748 0.849943 -0.263409
C12   C     C_R   0.378238 0.610843 0.140864 -0.241184
H1    H     H_    0.879211 0.786166 0.680166 0.176696
H2    H     H_    0.127422 0.227482 0.333174 0.231809
H3    H     H_    0.620788 0.286168 0.819833 0.176697
H4    H     H_    0.372579 0.727480 0.166827 0.231810
C13   C     C_R   0.920444 0.869483 0.615272 0.423580
C14   C     C_R   0.084619 0.122717 0.394056 0.476474
C15   C     C_R   0.579556 0.369483 0.884727 0.423579
C16   C     C_R   0.415382 0.622717 0.105945 0.476469
C17   C     C_R   0.926367 0.005760 0.575735 -0.136977
C18   C     C_R   0.077649 0.973821 0.429359 -0.112010
C19   C     C_R   0.573633 0.505758 0.924264 -0.136975
C20   C     C_R   0.422351 0.473822 0.070641 -0.112009
C21   C     C_R   0.894957 0.160082 0.571828 -0.114912
C22   C     C_R   0.108291 0.817579 0.429205 -0.194951
C23   C     C_R   0.605043 0.660080 0.928172 -0.114908
C24   C     C_R   0.391708 0.317582 0.070795 -0.194948
H5    H     H_    0.899075 0.264435 0.541332 0.162427
H6    H     H_    0.103479 0.705515 0.457209 0.190398
H7    H     H_    0.600925 0.764433 0.958668 0.162425
H8    H     H_    0.396520 0.205518 0.042790 0.190395
C25   C     C_R   0.859314 0.186300 0.607774 0.432592
C26   C     C_R   0.144560 0.802766 0.392878 0.405828
C27   C     C_R   0.640686 0.686298 0.892226 0.432595
C28   C     C_R   0.355440 0.302768 0.107121 0.405830
C29   C     C_R   0.852325 0.048746 0.647162 -0.201376
C30   C     C_R   0.151095 0.950345 0.356731 -0.160866
C31   C     C_R   0.647675 0.548746 0.852838 -0.201379
C32   C     C_R   0.348904 0.450346 0.143269 -0.160868
C33   C     C_R   0.014469 0.025056 0.556965 0.035852
C34   C     C_R   0.989912 0.944711 0.448670 0.001488
C35   C     C_R   0.485530 0.525026 0.943034 0.035862
C36   C     C_R   0.510088 0.444739 0.051331 0.001481
H9    H     H_    0.024356 0.058029 0.598697 0.161716
H10   H     H_    0.980021 0.912613 0.406878 0.162928
H11   H     H_    0.475641 0.557977 0.901300 0.161717
H12   H     H_    0.519981 0.412663 0.093124 0.162933
C37   C     C_R   0.051088 0.016726 0.521531 -0.100289
C38   C     C_R   0.953268 0.953807 0.484048 -0.168537
C39   C     C_R   0.448911 0.516696 0.978467 -0.100303
C40   C     C_R   0.546733 0.453834 0.015953 -0.168548
H13   H     H_    0.088784 0.042750 0.536386 0.130819
H14   H     H_    0.915533 0.929145 0.469094 0.136064
H15   H     H_    0.411214 0.542698 0.963612 0.130817
H16   H     H_    0.584468 0.429195 0.030908 0.136068
C41   C     C_R   0.038992 0.978248 0.467051 0.151661
C42   C     C_R   0.965313 0.993116 0.538505 0.124585
C43   C     C_R   0.461008 0.478249 0.032949 0.151667
C44   C     C_R   0.534686 0.493114 0.961494 0.124581
C45   C     C_R   0.434037 0.819679 0.414701 0.296438
C46   C     C_R   0.588097 0.178877 0.558821 0.270238
C47   C     C_R   0.065963 0.319680 0.085299 0.296435
C48   C     C_R   0.911903 0.678877 0.941179 0.270238
C49   C     C_R   0.398468 0.811346 0.370088 0.398686
C50   C     C_R   0.631952 0.183810 0.593436 0.424866
C51   C     C_R   0.101532 0.311347 0.129913 0.398681
C52   C     C_R   0.868048 0.683810 0.906564 0.424866
C53   C     C_R   0.360734 0.948173 0.363697 -0.302396
C54   C     C_R   0.639723 0.051260 0.635762 -0.277916
C55   C     C_R   0.139266 0.448173 0.136303 -0.302394
C56   C     C_R   0.860277 0.551260 0.864238 -0.277917
C57   C     C_R   0.362172 0.097777 0.399944 -0.153805
C58   C     C_R   0.605329 0.907221 0.638950 -0.258476
C59   C     C_R   0.137828 0.597776 0.100056 -0.153805
C60   C     C_R   0.894671 0.407220 0.861050 -0.258476
H17   H     H_    0.333895 0.203648 0.395784 0.188089
H18   H     H_    0.610897 0.804438 0.670591 0.162726
H19   H     H_    0.166105 0.703647 0.104216 0.188087
H20   H     H_    0.889103 0.304437 0.829409 0.162727
C61   C     C_R   0.399271 0.115823 0.441808 0.414265
C62   C     C_R   0.563401 0.893716 0.602319 0.412376
C63   C     C_R   0.100729 0.615822 0.058191 0.414264
C64   C     C_R   0.936599 0.393715 0.897681 0.412375
C65   C     C_R   0.435739 0.975792 0.449750 -0.153471
C66   C     C_R   0.554273 0.030517 0.562602 -0.102428
C67   C     C_R   0.064261 0.475791 0.050250 -0.153469
C68   C     C_R   0.945727 0.530516 0.937398 -0.102428
C69   C     C_1   0.476486 0.996325 0.491025 -0.001385
C70   C     C_1   0.511351 0.011798 0.524155 0.088487
C71   C     C_1   0.023514 0.496324 0.008975 -0.001386
C72   C     C_1   0.988649 0.511797 0.975845 0.088487
O21   O     O_3   0.397878 0.272670 0.473730 -0.610166
H21   H     H_    0.424872 0.269694 0.502642 0.308152
O22   O     O_3   0.530554 0.748568 0.604938 -0.615521
H22   H     H_    0.542493 0.663129 0.634370 0.308233
O23   O     O_3   0.102122 0.772668 0.026269 -0.610167
H23   H     H_    0.075128 0.769692 0.997358 0.308152
O24   O     O_3   0.969446 0.248566 0.895063 -0.615520
H24   H     H_    0.957506 0.163128 0.865630 0.308233
S1    S     S_3+6 0.958263 0.668838 0.621871 0.023511
O25   O     O_2   0.006926 0.723000 0.649891 -0.290031
O26   O     O_2   0.935596 0.521439 0.654353 -0.345851
O27   O     O_3   0.967346 0.581280 0.561322 -0.469913
H25   H     H_    0.934456 0.578616 0.541474 0.321923
S2    S     S_3+6 0.047341 0.324785 0.392511 -0.002113
O28   O     O_2   0.045598 0.398694 0.448420 -0.348103
O29   O     O_2   0.067033 0.472814 0.357852 -0.318079
O30   O     O_3   0.990365 0.268433 0.367350 -0.492013
H26   H     H_    0.970450 0.380957 0.372714 0.374379
S3    S     S_3+6 0.541737 0.168836 0.878127 0.023507
O31   O     O_2   0.493075 0.222991 0.850104 -0.290034
O32   O     O_2   0.564407 0.021432 0.845650 -0.345853
O33   O     O_3   0.532651 0.081285 0.938677 -0.469912
H27   H     H_    0.565540 0.078613 0.958526 0.321928
S4    S     S_3+6 0.452659 0.824788 0.107490 -0.002114
O34   O     O_2   0.454404 0.898690 0.051581 -0.348098
O35   O     O_2   0.432964 0.972819 0.142145 -0.318081
O36   O     O_3   0.509633 0.768443 0.132656 -0.492016
H28   H     H_    0.529549 0.880965 0.127290 0.374380
O37   O     O_3   0.831240 0.344874 0.601987 -0.593524
H29   H     H_    0.836179 0.413124 0.636371 0.322010
O38   O     O_3   0.174283 0.647224 0.392918 -0.627602
H30   H     H_    0.164565 0.557348 0.420099 0.305512
O39   O     O_3   0.668760 0.844870 0.898014 -0.593523
H31   H     H_    0.663822 0.913122 0.863630 0.322014
O40   O     O_3   0.325715 0.147228 0.107081 -0.627602
H32   H     H_    0.335433 0.057353 0.079899 0.305512
O41   O     O_3   0.466903 0.673530 0.422265 -0.581460
H33   H     H_    0.484069 0.677857 0.458661 0.326785
O42   O     O_3   0.579814 0.321038 0.521750 -0.568234
H34   H     H_    0.546080 0.314784 0.504256 0.316171
O43   O     O_3   0.033097 0.173531 0.077736 -0.581462
H35   H     H_    0.015931 0.177857 0.041340 0.326786
O44   O     O_3   0.920186 0.821038 0.978250 -0.568234
H36   H     H_    0.953920 0.814784 0.995743 0.316171
S5    S     S_3+6 0.404277 0.635761 0.320822 0.080656
O45   O     O_2   0.369316 0.479697 0.329377 -0.312388
O46   O     O_2   0.392056 0.716705 0.266047 -0.355911
O47   O     O_3   0.461310 0.547785 0.323578 -0.424230
H37   H     H_    0.481695 0.650079 0.311041 0.372023
S6    S     S_3+6 0.677516 0.351068 0.580662 0.075755
O48   O     O_2   0.672901 0.516435 0.616680 -0.336257
O49   O     O_2   0.727533 0.266533 0.591573 -0.323111
O50   O     O_3   0.671211 0.423290 0.516553 -0.436293
H38   H     H_    0.696173 0.522203 0.514481 0.380077
S7    S     S_3+6 0.095722 0.135764 0.179179 0.080659
O51   O     O_2   0.130682 0.979697 0.170624 -0.312387
O52   O     O_2   0.107944 0.216708 0.233953 -0.355908
O53   O     O_3   0.038689 0.047793 0.176424 -0.424228
H39   H     H_    0.018305 0.150095 0.188958 0.372021
S8    S     S_3+6 0.822484 0.851069 0.919338 0.075755
O54   O     O_2   0.827099 0.016435 0.883320 -0.336258
O55   O     O_2   0.772467 0.766534 0.908427 -0.323111
O56   O     O_3   0.828790 0.923292 0.983447 -0.436292
H40   H     H_    0.803827 0.022206 0.985518 0.380077

loop_
_geom_bond_atom_site_label_1
_geom_bond_atom_site_label_2
_ccdc_geom_bond_type
O17   V3    S    
S3    O33   S    
C59   H19   S    
S7    O51   D    
C21   H5    S    
O1    C5    A    
O43   H35   S    
C25   O37   S    
C62   O22   S    
O19   V1    S    
O13   V1    S    
O50   H38   S    
O3    C7    A    
O38   H30   S    
C10   C14   A    
S4    O36   S    
O1    V3    S    
C61   O21   S    
O27   H25   S    
C40   C44   A    
S5    O45   D    
C21   C25   A    
S3    O31   D    
C52   S8    S    
O7    C3    A    
S7    O52   D    
C22   H6    S    
O9    V1    S    
O47   H37   S    
C46   C66   A    
O10   V2    S    
C45   C65   A    
O16   V4    S    
C11   H3    S    
O4    C8    A    
C55   C59   A    
C17   C42   S    
C47   C67   A    
C54   C58   A    
O36   H28   S    
C34   C38   A    
C52   C56   A    
C33   C37   A    
O2    V4    S    
C14   C18   A    
C48   O44   S    
C49   S5    S    
C25   C29   A    
O3    V1    S    
O53   H39   S    
C5    C32   S    
C24   C28   A    
C6    C31   S    
C1    O15   A    
C7    C30   S    
C48   C52   A    
C2    O16   A    
O2    C6    A    
S1    O27   S    
O40   H32   S    
C50   C54   A    
O14   V2    S    
C2    C56   S    
C11   C15   A    
C66   C70   S    
C23   H7    S    
C65   C69   S    
C57   C61   A    
C3    C53   S    
O11   C7    A    
S1    O25   D    
O15   V3    S    
C35   C44   A    
O12   C8    A    
C50   S6    S    
S6    O49   D    
C4    C54   S    
S6    O48   D    
C38   C42   A    
C1    C55   S    
C37   C41   A    
S5    O47   S    
S5    O46   D    
O37   H29   S    
O5    V1    S    
C27   O39   S    
S7    O53   S    
C60   C64   A    
O7    V3    S    
C47   C51   A    
O8    V4    S    
C39   C43   A    
C13   S1    S    
O24   H24   S    
S4    O34   D    
C46   C50   A    
C45   C49   A    
C26   O38   S    
C19   C23   A    
C60   H20   S    
C58   H18   S    
C9    H1    S    
C47   O43   S    
C36   H12   S    
C28   O40   S    
C22   C26   A    
S2    O29   D    
C46   O42   S    
O5    C1    A    
C18   C41   S    
O44   H36   S    
C17   C21   A    
O8    C4    A    
O9    C5    A    
C14   S2    S    
C45   O41   S    
C19   C44   S    
C15   S3    S    
O23   H23   S    
C26   C30   A    
C8    C29   S    
C9    C29   A    
S8    O54   D    
O6    V2    S    
O30   H26   S    
C12   C16   A    
S2    O30   S    
C35   C39   A    
C63   O23   S    
C64   O24   S    
C10   C30   A    
C53   C57   A    
C68   C72   S    
C12   H4    S    
C69   C70   T    
C62   C66   A    
S3    O32   D    
C61   C65   A    
C3    O13   A    
C37   H13   S    
C10   H2    S    
C36   C43   A    
C63   C67   A    
C40   H16   S    
S4    O35   D    
O6    C2    A    
C11   C31   A    
O22   H22   S    
O11   V3    S    
O18   V4    S    
O12   V4    S    
C59   C63   A    
C18   C22   A    
C27   C31   A    
C58   C62   A    
C20   C43   S    
C51   S7    S    
C28   C32   A    
C9    C13   A    
S8    O56   S    
O20   V2    S    
S2    O28   D    
C16   C20   A    
C12   C32   A    
O21   H21   S    
C34   C41   A    
C36   C40   A    
O10   C6    A    
C33   C42   A    
C34   H10   S    
C15   C19   A    
C33   H9    S    
C56   C60   A    
S8    O55   D    
C35   H11   S    
C49   C53   A    
O4    V2    S    
O33   H27   S    
C51   C55   A    
O56   H40   S    
C48   C68   A    
C64   C68   A    
C20   C24   A    
C23   C27   A    
S6    O50   S    
C16   S4    S    
C38   H14   S    
C4    O14   A    
O42   H34   S    
S1    O26   D    
C13   C17   A    
C67   C71   S    
C71   C72   T    
O41   H33   S    
O39   H31   S    
C39   H15   S    
C57   H17   S    
C24   H8    S    
