data_mof_unit_1058.cif
_audit_creation_date              2013-03-05T16:00:28-0500
_audit_creation_method            fapswitch 2.2
_symmetry_space_group_name_H-M    P1
_symmetry_Int_Tables_number       1
_space_group_crystal_system       triclinic
_cell_length_a                    6.922807
_cell_length_b                    28.796582
_cell_length_c                    32.040565
_cell_angle_alpha                 101.153582
_cell_angle_beta                  89.570975
_cell_angle_gamma                 90.498216
_cell_volume                      6266.39808799

loop_
_atom_site_label
_atom_site_type_symbol
_atom_site_description
_atom_site_fract_x
_atom_site_fract_y
_atom_site_fract_z
_atom_type_partial_charge
O1    O     O_R   0.494350 0.453160 0.452490 -0.599392
O2    O     O_R   0.820990 0.455850 0.538220 -0.580820
O3    O     O_R   0.994300 0.546840 0.547510 -0.595864
C1    C     C_R   0.651475 0.446602 0.552465 1.023646
O4    O     O_R   0.823860 0.447580 0.452250 -0.603438
O5    O     O_R   0.997190 0.538510 0.460920 -0.597904
C2    C     C_R   0.654922 0.434552 0.436433 0.913249
O6    O     O_R   0.491450 0.461490 0.539080 -0.564819
O7    O     O_3   0.661790 0.529840 0.502950 -0.280498
V1    V     V_3+5 0.935470 0.494460 0.499450 1.184079
O8    O     O_R   0.327090 0.544150 0.461780 -0.602101
C3    C     C_R   0.158996 0.554254 0.448260 0.918786
O9    O     O_R   0.324210 0.552420 0.547750 -0.582312
C4    C     C_R   0.155106 0.565401 0.563599 1.000696
V2    V     V_3+5 0.435840 0.505540 0.500550 1.188645
O10   O     O_3   0.159650 0.470160 0.497050 -0.266118
C5    C     C_R   0.963878 0.619350 0.620047 -0.133061
H1    H     H_    0.830951 0.603584 0.606129 0.136339
C6    C     C_R   0.952287 0.655178 0.656399 -0.118956
C7    C     C_R   0.120425 0.676772 0.675900 0.112925
C8    C     C_R   0.300676 0.661497 0.657896 -0.127234
H2    H     H_    0.433368 0.677217 0.671963 0.116914
C9    C     C_R   0.312313 0.625617 0.621481 -0.098658
H3    H     H_    0.453536 0.614742 0.608660 0.128838
C10   C     C_R   0.143991 0.604013 0.602031 -0.135606
N1    N     N_R   0.269418 0.735764 0.733773 -0.070343
N2    N     N_R   0.257593 0.769767 0.768469 -0.072332
C11   C     C_R   0.083308 0.784455 0.785772 0.114367
N3    N     N_R   0.921355 0.763526 0.766732 -0.070968
N4    N     N_R   0.933179 0.729524 0.732035 -0.072250
C12   C     C_R   0.107462 0.714841 0.714728 0.119035
C13   C     C_R   0.890070 0.837846 0.842565 -0.120864
H4    H     H_    0.757412 0.822000 0.828590 0.116339
C14   C     C_R   0.878377 0.873881 0.878865 -0.146823
H5    H     H_    0.737145 0.884721 0.891702 0.126610
C15   C     C_R   0.046643 0.895681 0.898176 -0.133986
C16   C     C_R   0.226772 0.880309 0.880185 -0.140433
C17   C     C_R   0.238417 0.844326 0.843950 -0.124022
C18   C     C_R   0.070322 0.822596 0.824547 0.117019
C19   C     C_R   0.267143 0.675749 0.295733 0.470948
N5    N     N_R   0.123212 0.677126 0.325777 -0.184344
C20   C     C_R   0.968972 0.707083 0.326460 0.483326
C21   C     C_R   0.953817 0.736273 0.296038 -0.045207
C22   C     C_R   0.101147 0.735367 0.265387 -0.016549
C23   C     C_R   0.259929 0.705140 0.265323 -0.046869
C24   C     C_R   0.795272 0.766410 0.295647 -0.114719
C25   C     C_R   0.783961 0.795390 0.265419 -0.124596
C26   C     C_R   0.930850 0.794979 0.234780 -0.050300
C27   C     C_R   0.089634 0.764752 0.234716 -0.016569
C28   C     C_R   0.236963 0.763846 0.204065 -0.041792
C29   C     C_R   0.395511 0.733710 0.204457 -0.120674
C30   C     C_R   0.406821 0.704730 0.234685 -0.130813
C31   C     C_R   0.923626 0.824366 0.204367 0.474194
N6    N     N_R   0.067547 0.822986 0.174321 -0.184395
C32   C     C_R   0.221797 0.793033 0.173641 0.479959
O11   O     O_2   0.415711 0.645532 0.294743 -0.557726
O12   O     O_2   0.831304 0.709152 0.356784 -0.557852
H6    H     H_    0.678983 0.767646 0.318633 0.173182
H7    H     H_    0.659402 0.818038 0.266116 0.175539
O13   O     O_2   0.775053 0.854581 0.205355 -0.553977
O14   O     O_2   0.359462 0.790962 0.143316 -0.561320
H8    H     H_    0.511799 0.732474 0.181471 0.171349
H9    H     H_    0.531380 0.682082 0.233988 0.173689
C33   C     C_R   0.212341 0.884403 0.138759 -0.059398
H10   H     H_    0.339081 0.885672 0.158567 0.153581
C34   C     C_R   0.204458 0.913764 0.108724 -0.183734
H11   H     H_    0.326220 0.936878 0.105966 0.137240
C35   C     C_R   0.040106 0.913963 0.083174 -0.132830
C36   C     C_R   0.884510 0.883698 0.088160 -0.187289
H12   H     H_    0.756172 0.882829 0.068891 0.142538
C37   C     C_R   0.894222 0.853571 0.117608 -0.057945
H13   H     H_    0.774035 0.829971 0.120243 0.161743
C38   C     C_R   0.057923 0.853727 0.143419 0.190709
C39   C     C_R   0.296490 0.646513 0.382481 -0.054312
H14   H     H_    0.416698 0.670111 0.379856 0.162812
C40   C     C_R   0.306167 0.616371 0.411918 -0.190347
H15   H     H_    0.434500 0.617225 0.431187 0.142280
C41   C     C_R   0.150546 0.586107 0.416891 -0.126204
C42   C     C_R   0.986203 0.586323 0.391341 -0.184545
C43   C     C_R   0.978355 0.615699 0.361317 -0.064179
H16   H     H_    0.851623 0.614442 0.341508 0.152665
C44   C     C_R   0.132799 0.646373 0.356670 0.190999
C45   C     C_R   0.606286 0.224090 0.838146 0.530312
N7    N     N_R   0.579884 0.176239 0.825240 -0.173697
C46   C     C_R   0.558081 0.156468 0.783014 0.624377
C47   C     C_R   0.566546 0.184963 0.751824 -0.129653
C48   C     C_R   0.595984 0.234015 0.764461 0.005733
C49   C     C_R   0.615232 0.253886 0.808069 -0.041632
C50   C     C_R   0.549746 0.165326 0.708401 -0.170359
C51   C     C_R   0.563371 0.193563 0.677351 0.382987
C52   C     C_R   0.587400 0.243464 0.689747 -0.226199
C53   C     C_R   0.605990 0.263295 0.733565 -0.022254
C54   C     C_R   0.634458 0.312497 0.746745 -0.032285
C55   C     C_R   0.653971 0.331821 0.790311 -0.112614
C56   C     C_R   0.644350 0.302907 0.820570 -0.113710
C57   C     C_R   0.588610 0.274605 0.660308 0.523478
N8    N     N_R   0.619023 0.322288 0.673790 -0.183174
C58   C     C_R   0.642870 0.341381 0.716052 0.483942
O15   O     O_2   0.625796 0.242731 0.879903 -0.547000
O16   O     O_2   0.529063 0.109379 0.771222 -0.496484
H17   H     H_    0.531391 0.127436 0.698143 0.211324
O17   O     O_2   0.554125 0.257867 0.618759 -0.480833
O18   O     O_2   0.675038 0.388304 0.728391 -0.524738
H18   H     H_    0.676297 0.369471 0.801244 0.177632
H19   H     H_    0.659949 0.319146 0.853814 0.175369
C59   C     C_R   0.480644 0.387258 0.643453 -0.167155
H20   H     H_    0.365632 0.390058 0.666899 0.168240
C60   C     C_R   0.488239 0.418967 0.615101 0.347730
C61   C     C_R   0.640106 0.415411 0.584547 -0.310362
C62   C     C_R   0.782896 0.380831 0.584422 -0.134070
H21   H     H_    0.900763 0.377277 0.561627 0.155418
C63   C     C_R   0.775010 0.350110 0.613324 -0.027590
H22   H     H_    0.887441 0.324086 0.612773 0.137154
C64   C     C_R   0.623971 0.353075 0.643045 0.149128
C65   C     C_R   0.735805 0.117911 0.862576 0.397759
C66   C     C_R   0.721560 0.088259 0.892737 -0.281516
H23   H     H_    0.843897 0.066682 0.897425 0.178478
C67   C     C_R   0.551783 0.086075 0.916761 -0.188329
C68   C     C_R   0.394640 0.114349 0.910318 -0.133412
H24   H     H_    0.261871 0.113600 0.928280 0.142669
C69   C     C_R   0.407333 0.144289 0.880842 -0.024646
C70   C     C_R   0.575717 0.146253 0.856586 0.058728
C71   C     C_R   0.463764 0.380444 0.380069 -0.150082
H25   H     H_    0.331009 0.396287 0.393909 0.129041
C72   C     C_R   0.452178 0.344533 0.343777 -0.130565
H26   H     H_    0.310987 0.333872 0.330889 0.113920
C73   C     C_R   0.620133 0.322856 0.324368 0.119040
C74   C     C_R   0.800161 0.338072 0.342443 -0.126296
C75   C     C_R   0.811796 0.374034 0.378796 -0.154465
H27   H     H_    0.952874 0.384856 0.391672 0.126693
C76   C     C_R   0.643691 0.395793 0.398107 -0.126379
N9    N     N_R   0.769100 0.263894 0.266511 -0.072889
N10   N     N_R   0.757384 0.229950 0.231769 -0.074561
C77   C     C_R   0.583326 0.215313 0.214390 0.108571
N11   N     N_R   0.421485 0.236222 0.233408 -0.073272
N12   N     N_R   0.433201 0.270165 0.268150 -0.074648
C78   C     C_R   0.607258 0.284802 0.285530 0.109878
C79   C     C_R   0.390414 0.162026 0.157490 -0.127896
H28   H     H_    0.257874 0.177832 0.171470 0.115986
C80   C     C_R   0.378773 0.126053 0.121145 -0.155422
H29   H     H_    0.237689 0.115219 0.108280 0.126830
C81   C     C_R   0.546877 0.104296 0.101832 -0.131082
C82   C     C_R   0.726811 0.119661 0.119857 -0.150740
H30   H     H_    0.859565 0.103819 0.106016 0.129770
C83   C     C_R   0.738404 0.155583 0.156141 -0.131732
H31   H     H_    0.879599 0.166254 0.169021 0.114059
C84   C     C_R   0.570448 0.177255 0.175555 0.119477
O19   O     O_R   0.699050 0.038480 0.960880 -0.593253
O20   O     O_R   0.366680 0.052470 0.047720 -0.599133
O21   O     O_R   0.193410 0.961530 0.039110 -0.592836
C85   C     C_R   0.535633 0.065513 0.063525 0.924576
O22   O     O_R   0.369510 0.044100 0.961740 -0.594476
O23   O     O_R   0.196260 0.953110 0.952520 -0.592083
C86   C     C_R   0.539224 0.054197 0.948174 0.973748
O24   O     O_R   0.696210 0.046900 0.047470 -0.593855
O25   O     O_3   0.528780 0.970170 0.997070 -0.272628
V3    V     V_3+5 0.255080 0.005530 0.000540 1.155289
O26   O     O_R   0.866350 0.947520 0.952280 -0.597738
C87   C     C_R   0.035465 0.934489 0.936466 0.937476
O27   O     O_R   0.863520 0.955880 0.038260 -0.595914
C88   C     C_R   0.031623 0.945793 0.051786 0.935175
V4    V     V_3+5 0.754720 0.994440 0.999470 1.153382
O28   O     O_3   0.030880 0.029830 0.002930 -0.271073
H32   H     H_    0.864422 0.563210 0.394088 0.136339
H33   H     H_    0.810928 0.665864 0.669243 0.116226
N13   N     N_R   0.561443 0.170266 0.633558 0.270629
O29   O     O_R   0.714569 0.172032 0.610094 -0.296412
O30   O     O_R   0.427380 0.139136 0.620103 -0.326830
N14   N     N_R   0.347498 0.455976 0.619539 0.238333
O31   O     O_R   0.403377 0.499692 0.622095 -0.405020
O32   O     O_R   0.168984 0.447379 0.628762 -0.396809
N15   N     N_R   0.912269 0.118629 0.838512 0.232514
O33   O     O_R   0.030562 0.083093 0.833964 -0.377049
O34   O     O_R   0.962227 0.155638 0.823124 -0.427372
H34   H     H_    0.284658 0.165887 0.876521 0.168106
H35   H     H_    0.932701 0.322261 0.328467 0.116535
H36   H     H_    0.359667 0.896184 0.894022 0.130350
H37   H     H_    0.379780 0.833647 0.831103 0.114867

loop_
_geom_bond_atom_site_label_1
_geom_bond_atom_site_label_2
_geom_bond_distance
_ccdc_geom_bond_type
C22   C27   1.418521 A    
C34   C35   1.407345 A    
C48   C49   1.410523 A    
C13   C14   1.403269 A    
C54   C55   1.406208 A    
C17   H37   1.082557 S    
O21   V3    1.975700 S    
C57   O17   1.347620 S    
N14   O31   1.301236 A    
N6    C32   1.375917 A    
C6    C7    1.407094 A    
C42   H32   1.083188 S    
C1    O6    1.296719 A    
C74   C75   1.403186 A    
C63   C64   1.400934 A    
N8    C58   1.369980 A    
N11   N12   1.334215 A    
C69   H34   1.082361 S    
C35   C88   1.487769 S    
C60   C61   1.421923 A    
C77   C84   1.493218 S    
N1    N2    1.334240 A    
C16   C17   1.400984 A    
C72   H26   1.082556 S    
C39   C40   1.402182 A    
C59   C64   1.401936 A    
C11   N3    1.359661 A    
C80   C81   1.407725 A    
V4    O28   2.152080 S    
O20   C85   1.301223 A    
O5    C3    1.296282 A    
N4    C12   1.360199 A    
C71   C72   1.400979 A    
C59   H20   1.083274 S    
N7    C70   1.445624 S    
C65   C66   1.410355 A    
C66   H23   1.083068 S    
C14   H5    1.082665 S    
N5    C20   1.375921 A    
C13   C18   1.408522 A    
C36   C37   1.402173 A    
C67   C68   1.404555 A    
C56   H19   1.083059 S    
C15   C87   1.493206 S    
O1    C2    1.297167 A    
C52   C57   1.421592 A    
C62   H21   1.083185 S    
O8    V2    1.977108 S    
C45   N7    1.370908 A    
C35   C36   1.407244 A    
C19   O11   1.349227 S    
C3    C41   1.487767 S    
C9    H3    1.082670 S    
O1    V2    1.978156 S    
C85   O24   1.297220 A    
N9    N10   1.334218 A    
O7    V1    2.150907 S    
V3    O28   1.703201 S    
C2    C76   1.493106 S    
O25   V4    1.703787 S    
C71   C76   1.408288 A    
C34   H11   1.083178 S    
C49   C56   1.404027 A    
C55   H18   1.083069 S    
N1    C12   1.359665 A    
C65   C70   1.417982 A    
C45   O15   1.349095 S    
O9    C4    1.301288 A    
C51   N13   1.433539 S    
N13   O30   1.301089 A    
N14   O32   1.301304 A    
N13   O29   1.301317 A    
C19   C23   1.410192 A    
C29   H8    1.083172 S    
O19   C86   1.296738 A    
C39   C44   1.407402 A    
C20   O12   1.349286 S    
C63   H22   1.082848 S    
C83   C84   1.407099 A    
C31   O13   1.349223 S    
N15   O34   1.301075 A    
C28   C29   1.406763 A    
C68   C69   1.398392 A    
O24   V4    1.978368 S    
C80   H29   1.082666 S    
C26   C31   1.410190 A    
C74   H35   1.082562 S    
C39   H14   1.082856 S    
C29   C30   1.398409 A    
C71   H25   1.082737 S    
C17   C18   1.407088 A    
N7    C46   1.371490 A    
C43   C44   1.406291 A    
C52   C53   1.415986 A    
O4    C2    1.301172 A    
C41   C42   1.407356 A    
C65   N15   1.441836 S    
C11   C18   1.493318 S    
N9    C78   1.359662 A    
C46   C47   1.411012 A    
C30   H9    1.083167 S    
V2    O10   2.152089 S    
C33   C34   1.400120 A    
C81   C85   1.493119 S    
O23   C87   1.297192 A    
O2    C1    1.299974 A    
C21   C22   1.407476 A    
N8    C64   1.447218 S    
N3    N4    1.334237 A    
N6    C38   1.452427 S    
C25   C26   1.406651 A    
C79   C84   1.408477 A    
C33   C38   1.406281 A    
C57   N8    1.372289 A    
C5    H1    1.082753 S    
C55   C56   1.395712 A    
C24   C25   1.398405 A    
C40   H15   1.083078 S    
C72   C73   1.407101 A    
C69   C70   1.402978 A    
O3    C4    1.297055 A    
C79   C80   1.403184 A    
C19   N5    1.375722 A    
O22   C86   1.299675 A    
O6    V2    1.975547 S    
C60   N14   1.436211 S    
C8    C9    1.403218 A    
O26   C87   1.301305 A    
C20   C21   1.409860 A    
C73   C74   1.408478 A    
O2    V1    1.977786 S    
C83   H31   1.082555 S    
C48   C53   1.420044 A    
N15   O33   1.301584 A    
C37   C38   1.407385 A    
C75   H27   1.082667 S    
C82   C83   1.400984 A    
O21   C88   1.296271 A    
O22   V3    1.977569 S    
O25   V3    2.150802 S    
C50   H17   1.083573 S    
C47   C48   1.405609 A    
C22   C23   1.407788 A    
C40   C41   1.407257 A    
C43   H16   1.082941 S    
C47   C50   1.402099 A    
O5    V1    1.975904 S    
C68   H24   1.083049 S    
C31   N6    1.375718 A    
C77   N11   1.359663 A    
C1    C61   1.491431 S    
C16   H36   1.082735 S    
C28   C32   1.409864 A    
C23   C30   1.406650 A    
C5    C10   1.408260 A    
C13   H4    1.082562 S    
O9    V2    1.979282 S    
C82   H30   1.082735 S    
O7    V2    1.704193 S    
O19   V4    1.976853 S    
C37   H13   1.082846 S    
C46   O16   1.349090 S    
V1    O10   1.703063 S    
C61   C62   1.408635 A    
O27   C88   1.299471 A    
C51   C52   1.423493 A    
N10   C77   1.360179 A    
C59   C60   1.407520 A    
C26   C27   1.407787 A    
N5    C44   1.452431 S    
C32   O14   1.349279 S    
C33   H10   1.082933 S    
C53   C54   1.410506 A    
C5    C6    1.400931 A    
C66   C67   1.407740 A    
C67   C86   1.489302 S    
C14   C15   1.407725 A    
C9    C10   1.407661 A    
C4    C10   1.492949 S    
O23   V3    1.977841 S    
C36   H12   1.083068 S    
C21   C24   1.406763 A    
C62   C63   1.399479 A    
C79   H28   1.082561 S    
O26   V4    1.979696 S    
C25   H7    1.083165 S    
C42   C43   1.400113 A    
O4    V1    1.978902 S    
C6    H33   1.082550 S    
C7    C8    1.408530 A    
C15   C16   1.408318 A    
C27   C28   1.407475 A    
N2    C11   1.360206 A    
O3    V1    1.977966 S    
C81   C82   1.408290 A    
N12   C78   1.360178 A    
C73   C78   1.493217 S    
C50   C51   1.403608 A    
C8    H2    1.082550 S    
C45   C49   1.409544 A    
O20   V3    1.979387 S    
C54   C58   1.406093 A    
C24   H6    1.083172 S    
C58   O18   1.349481 S    
O8    C3    1.299487 A    
O27   V4    1.976727 S    
C75   C76   1.407723 A    
C7    C12   1.493303 S    
