data_mof_unit_2798.cif
_audit_creation_date              2012-12-11T20:57:48-0500
_audit_creation_method            fapswitch 2.2
_symmetry_space_group_name_H-M    P1
_symmetry_Int_Tables_number       1
_space_group_crystal_system       triclinic
_cell_length_a                    8.262779
_cell_length_b                    18.749775
_cell_length_c                    22.787633
_cell_angle_alpha                 99.347187
_cell_angle_beta                  89.779945
_cell_angle_gamma                 91.506232
_cell_volume                      3482.3003386

loop_
_atom_site_label
_atom_site_type_symbol
_atom_type_description
_atom_site_fract_x
_atom_site_fract_y
_atom_site_fract_z
_atom_type_partial_charge
Ba1   Ba    Ba6+2 0.157800 0.534120 0.474430 1.650609
Ba2   Ba    Ba6+2 0.652390 0.465870 0.525520 1.657635
C1    C     C_3   0.379754 0.717050 0.264296 -0.239417
C2    C     C_R   0.077937 0.903085 0.556884 -0.116809
C3    C     C_R   0.158926 0.060820 0.581612 -0.060366
C4    C     C_3   0.919120 0.727353 0.356650 0.337938
C5    C     C_R   0.032938 0.029467 0.542188 -0.032050
C6    C     C_R   0.226330 0.128519 0.576004 -0.107414
C7    C     C_R   0.154420 0.172865 0.540460 -0.036418
C8    C     C_R   0.012393 0.147290 0.508167 0.028505
C9    C     C_R   0.953861 0.074788 0.507424 0.033436
C10   C     C_R   0.214245 0.244128 0.539464 -0.005503
C11   C     C_R   0.120728 0.291645 0.513559 -0.285805
C12   C     C_3   0.399410 0.692608 0.324389 0.248804
C13   C     C_R   0.980575 0.267885 0.481480 0.050855
C14   C     C_R   0.930192 0.194026 0.476042 0.006486
C15   C     C_R   0.837029 0.930751 0.506100 0.045508
C16   C     C_3   0.932944 0.803194 0.341235 -0.319250
C17   C     C_R   0.781021 0.857471 0.503629 0.018892
C18   C     C_R   0.875527 0.807805 0.528600 -0.050723
C19   C     C_R   0.020200 0.833173 0.557340 -0.017129
C20   C     C_R   0.805447 0.164831 0.437288 -0.050241
C21   C     C_R   0.755263 0.092255 0.432141 -0.061260
C22   C     C_R   0.815952 0.048307 0.472331 0.023521
C23   C     C_3   0.478470 0.690154 0.636195 0.251894
C24   C     C_R   0.746980 0.978994 0.478248 0.035539
C25   C     C_R   0.588109 0.957085 0.459497 -0.014703
C26   C     C_R   0.629579 0.834304 0.477039 -0.005681
C27   C     C_R   0.531921 0.885937 0.457635 -0.043501
C28   C     C_3   0.790656 0.364146 0.339969 0.220811
C29   C     C_R   0.579076 0.760757 0.472552 0.013277
C30   C     C_R   0.678259 0.711974 0.494405 -0.307606
C31   C     C_R   0.823824 0.734221 0.523123 0.016757
C32   C     C_R   0.646599 0.525123 0.335939 -0.294516
C33   C     C_R   0.380218 0.552395 0.944366 -0.027572
C34   C     C_3   0.450510 0.769474 0.661447 -0.256332
C35   C     C_R   0.328779 0.546173 0.884613 0.599222
C36   C     C_R   0.256714 0.420894 0.883070 0.585260
C37   C     C_R   0.308641 0.425208 0.942415 -0.027932
C38   C     C_R   0.370999 0.491306 0.973150 -0.050901
C39   C     C_R   0.441905 0.618198 0.975907 -0.068051
C40   C     C_3   0.702563 0.324654 0.284246 -0.231189
C41   C     C_R   0.493889 0.623152 0.034737 -0.059767
C42   C     C_R   0.485836 0.562453 0.063905 -0.026099
C43   C     C_R   0.424336 0.496282 0.032946 -0.052913
C44   C     C_R   0.301557 0.364386 0.971442 -0.052442
C45   C     C_3   0.858092 0.267531 0.644818 0.426308
C46   C     C_R   0.356301 0.369008 0.029825 -0.051449
C47   C     C_R   0.417823 0.434823 0.061288 -0.034029
C48   C     C_R   0.472973 0.440490 0.120431 0.606826
C49   C     C_R   0.536757 0.566660 0.123458 0.582806
C50   C     C_2   0.093572 0.439619 0.768248 -0.071542
C51   C     C_3   0.076410 0.417173 0.701798 -0.038614
C52   C     C_3   0.983170 0.617246 0.654003 0.287128
C53   C     C_1   0.306979 0.499236 0.691838 0.010873
C54   C     C_2   0.349476 0.500171 0.748096 -0.098115
C55   C     C_2   0.232138 0.473437 0.790738 0.183084
C56   C     C_3   0.826231 0.193492 0.663185 -0.235221
C57   C     C_R   0.716048 0.544053 0.236073 -0.091608
C58   C     C_R   0.754783 0.550698 0.296401 -0.022712
C59   C     C_R   0.502307 0.489590 0.315415 0.020703
C60   C     C_R   0.460137 0.485385 0.255111 -0.110968
C61   C     C_R   0.566545 0.512702 0.214715 0.190051
C62   C     C_2   0.182685 0.460734 0.666107 -0.298419
C63   C     C_3   0.998700 0.632874 0.721374 -0.348068
C64   C     C_3   0.257318 0.305524 0.354654 0.197034
C65   C     C_3   0.200741 0.269291 0.292328 -0.192871
C66   C     C_2   0.813440 0.304774 0.232570 0.552529
C67   C     C_3   0.396130 0.305426 0.679656 0.240036
C68   C     C_2   0.296444 0.248689 0.391698 0.408340
C69   C     C_2   0.189400 0.322463 0.250211 0.555948
C70   C     C_2   0.497651 0.777596 0.257970 0.538183
C71   C     C_2   0.549113 0.819325 0.629738 0.440849
C72   C     C_2   0.917693 0.186227 0.718426 0.554597
C73   C     C_2   0.357541 0.216179 0.749336 0.521556
C74   C     C_2   0.204719 0.030908 0.635532 0.479064
C75   C     C_2   0.658915 0.063652 0.378226 0.500669
C76   C     C_3   0.434716 0.286901 0.740851 -0.245476
C77   C     C_R   0.983448 0.954959 0.535843 -0.004352
H1    H     H_    0.322089 0.643343 0.324566 0.107486
H2    H     H_    0.254779 0.735930 0.259875 0.111050
H3    H     H_    0.877729 0.842327 0.377015 0.078919
H4    H     H_    0.806865 0.266358 0.599671 0.063489
H5    H     H_    0.695177 0.184145 0.670489 0.135179
H6    H     H_    0.865442 0.150814 0.626751 -0.019119
H7    H     H_    0.985824 0.727186 0.398883 0.079773
H8    H     H_    0.326409 0.148932 0.604444 0.131534
H9    H     H_    0.094831 0.799318 0.579265 0.119463
H10   H     H_    0.753016 0.196932 0.407243 0.084421
H11   H     H_    0.410804 0.872246 0.441063 0.104572
H12   H     H_    0.639227 0.275288 0.294994 0.154675
H13   H     H_    0.200667 0.914587 0.571883 0.136209
H14   H     H_    0.504059 0.994980 0.446704 0.074948
H15   H     H_    0.349266 0.320835 0.050402 0.158249
H16   H     H_    0.003398 0.420619 0.797255 0.134698
H17   H     H_    0.679393 0.529088 0.382289 0.086697
H18   H     H_    0.868829 0.805210 0.298839 0.166866
H19   H     H_    0.870621 0.346978 0.211687 -0.017667
H20   H     H_    0.098948 0.597155 0.634374 0.019825
H21   H     H_    0.023973 0.582476 0.738816 0.070139
H22   H     H_    0.382945 0.261697 0.427671 0.044574
H23   H     H_    0.610379 0.359642 0.269719 0.053819
H24   H     H_    0.124934 0.372165 0.262908 -0.044424
H25   H     H_    0.080240 0.242697 0.295540 0.122702
H26   H     H_    0.286731 0.226653 0.273786 0.142392
H27   H     H_    0.527912 0.679127 0.330373 -0.042102
H28   H     H_    0.493559 0.828121 0.288840 0.039796
H29   H     H_    0.427122 0.678099 0.590468 0.037151
H30   H     H_    0.485492 0.780109 0.709172 0.104275
H31   H     H_    0.680100 0.817584 0.630462 -0.004017
H32   H     H_    0.319505 0.780657 0.658329 0.122265
H33   H     H_    0.991406 0.276641 0.642596 -0.155801
H34   H     H_    0.887827 0.574799 0.642350 0.088800
H35   H     H_    0.019172 0.150309 0.715774 0.002151
H36   H     H_    0.263102 0.300789 0.672630 -0.042963
H37   H     H_    0.439324 0.361900 0.679270 0.080008
H38   H     H_    0.386836 0.167300 0.719366 0.058321
H39   H     H_    0.392107 0.330951 0.775214 0.125553
H40   H     H_    0.566869 0.283712 0.746993 0.150790
H41   H     H_    0.163748 0.346866 0.514819 0.067499
H42   H     H_    0.638794 0.655932 0.490696 0.079629
H43   H     H_    0.116728 0.999582 0.656880 0.007552
H44   H     H_    0.574511 0.098267 0.360609 0.030065
H45   H     H_    0.098948 0.672830 0.734470 0.153840
H46   H     H_    0.788955 0.714225 0.362988 -0.068693
H47   H     H_    0.254717 0.312675 0.948908 0.158004
H48   H     H_    0.540391 0.674876 0.057365 0.147666
H49   H     H_    0.802715 0.562706 0.205818 0.121843
H50   H     H_    0.450632 0.666180 0.955131 0.133630
H51   H     H_    0.468602 0.520576 0.763536 0.120580
H52   H     H_    0.346577 0.459483 0.239313 0.123060
H53   H     H_    0.062266 0.818949 0.336555 0.139786
H54   H     H_    0.174253 0.448479 0.617968 0.077794
H55   H     H_    0.699879 0.392202 0.370445 0.062935
H56   H     H_    0.883908 0.654881 0.741371 0.128646
H57   H     H_    0.877890 0.405534 0.327994 -0.015485
H58   H     H_    0.161995 0.339129 0.377976 0.026941
H59   H     H_    0.397639 0.670267 0.228637 0.129366
H60   H     H_    0.610517 0.680019 0.634968 0.009498
N1    N     N_R   0.270739 0.480514 0.853998 -0.430627
N2    N     N_R   0.524868 0.506613 0.151958 -0.433130
O1    O     O_2   0.110690 0.676100 0.539200 -0.459196
O2    O     O_2   0.749067 0.462461 0.707400 -0.498983
O3    O     O_3   0.782797 0.321734 0.685121 -0.573600
O4    O     O_3   0.863220 0.586720 0.534720 -0.485745
O5    O     O_3   0.450900 0.461390 0.429220 -0.459855
O6    O     O_2   0.599830 0.538970 0.641850 -0.464110
O7    O     O_3   0.400415 0.648372 0.674124 -0.629225
O8    O     O_2   0.549213 0.241575 0.523023 -0.488759
O9    O     O_3   0.476925 0.258792 0.635457 -0.613980
O10   O     O_2   0.334359 0.599450 0.860006 -0.585533
O11   O     O_2   0.200533 0.363538 0.857124 -0.549836
O12   O     O_3   0.400645 0.345186 0.349147 -0.678972
O13   O     O_2   0.477571 0.386215 0.143563 -0.544649
O14   O     O_2   0.591381 0.624002 0.149923 -0.561706
O15   O     O_3   0.368310 0.629070 0.432760 -0.481930
O16   O     O_2   0.243014 0.756153 0.476157 -0.478564
O17   O     O_3   0.942959 0.681054 0.633542 -0.644507
O18   O     O_3   0.349331 0.748065 0.369114 -0.624067
O19   O     O_2   0.210480 0.460990 0.358130 -0.481574
O20   O     O_3   0.959520 0.592090 0.401630 -0.483161
O21   O     O_2   0.091946 0.546001 0.295886 -0.499343
O22   O     O_2   0.835927 0.241425 0.212428 -0.524543
O23   O     O_3   0.986877 0.678193 0.310477 -0.587968
O24   O     O_2   0.231705 0.188559 0.382735 -0.604159
O25   O     O_2   0.250761 0.309671 0.200995 -0.514320
O26   O     O_2   0.598302 0.770675 0.218266 -0.514364
O27   O     O_2   0.483329 0.863284 0.604413 -0.566897
O28   O     O_2   0.880018 0.220953 0.766341 -0.503164
O29   O     O_2   0.263830 0.212953 0.790391 -0.497018
O30   O     O_2   0.340948 0.040482 0.656394 -0.557374
O31   O     O_2   0.680214 0.003001 0.350897 -0.559491
O32   O     O_2   0.699610 0.323860 0.460780 -0.461005
O33   O     O_3   0.947090 0.413280 0.465240 -0.482889
O34   O     O_3   0.442000 0.370930 0.567190 -0.472698
O35   O     O_3   0.873916 0.313338 0.366244 -0.653077
O36   O     O_3   0.359410 0.538600 0.570730 -0.470638
O37   O     O_3   0.850780 0.407910 0.598320 -0.484135
P1    P     P_3+3 0.935930 0.665430 0.555670 0.970949
P2    P     P_3+3 0.382700 0.439650 0.365620 0.975093
P3    P     P_3+3 0.949323 0.590441 0.325073 0.963604
P4    P     P_3+3 0.874370 0.334570 0.444280 0.982562
P5    P     P_3+3 0.863707 0.405494 0.674212 0.970226
P6    P     P_3+3 0.385898 0.723338 0.438412 0.950146
P7    P     P_3+3 0.414656 0.556289 0.645895 0.970332
P8    P     P_3+3 0.419156 0.277811 0.566020 0.946529

loop_
_geom_bond_atom_site_label_1
_geom_bond_atom_site_label_2
_ccdc_geom_bond_type
C32   C58   A    
C53   C54   D    
C13   P4    S    
C67   H37   S    
O12   P2    S    
C29   P6    S    
C25   C27   A    
Ba1   O4    S    
C17   C18   A    
C73   H38   S    
O17   P1    S    
O33   P4    S    
O15   P6    S    
C68   H22   S    
C71   H31   S    
C52   C63   S    
O6    P7    D    
Ba2   O4    S    
O35   P4    S    
C10   C11   A    
C49   O14   D    
C24   C25   A    
C46   H15   S    
C67   O9    S    
C26   C27   A    
C76   H39   S    
C32   H17   S    
Ba1   Ba2   S    
C51   P5    S    
Ba2   O32   S    
C36   C37   A    
C51   C62   S    
C31   P1    S    
C13   C14   A    
C72   H35   S    
C52   H34   S    
C9    C22   A    
C15   C77   A    
O36   P7    S    
C54   C55   S    
C50   H16   S    
C40   H12   S    
Ba2   P4    S    
C63   H45   S    
C28   O35   S    
O19   P2    D    
C72   O28   D    
O23   P3    S    
C15   C17   A    
C16   H53   S    
O1    P1    D    
C6    C7    A    
C28   H55   S    
C69   O25   D    
C1    H2    S    
C21   C22   A    
O16   P6    D    
Ba1   O1    S    
Ba2   O36   S    
C45   H4    S    
O18   P6    S    
C7    C8    A    
O37   P5    S    
C48   N2    Am   
Ba1   O15   S    
C64   C65   S    
O3    P5    S    
Ba1   O20   S    
C57   C58   A    
C40   C66   S    
C39   C41   A    
C67   C76   S    
Ba1   O36   S    
C35   O10   D    
C71   O27   D    
C40   H23   S    
C36   O11   D    
C27   H11   S    
C7    C10   A    
C65   H25   S    
C49   N2    Am   
C38   C43   A    
C4    C16   S    
C44   C46   A    
Ba1   O33   S    
C63   H21   S    
O21   P3    D    
C50   C55   D    
C68   O24   D    
C41   H48   S    
C37   C38   A    
C3    C5    A    
C65   H26   S    
O7    P7    S    
C45   O3    S    
C35   N1    Am   
C32   C59   A    
C55   N1    S    
O2    P5    D    
C74   O30   D    
C5    C9    A    
C41   C42   A    
C26   C29   A    
C60   C61   A    
C75   H44   S    
C56   H5    S    
Ba2   O34   S    
C52   O17   S    
C29   C30   A    
C70   H28   S    
C43   C47   A    
C10   P8    S    
C53   C62   D    
O4    P1    S    
C34   H32   S    
C61   N2    S    
O5    P2    S    
C1    H59   S    
C21   C75   S    
C17   C26   A    
C1    C12   S    
C23   H60   S    
C63   H56   S    
C73   O29   D    
C2    C77   A    
C37   C44   A    
C18   C31   A    
C42   C49   A    
C46   C47   A    
C16   H18   S    
C4    O23   S    
O32   P4    D    
C12   H1    S    
C8    C9    A    
C11   C13   A    
C70   O26   D    
C52   H20   S    
C25   H14   S    
C15   C24   A    
C60   H52   S    
C56   H6    S    
C11   H41   S    
C50   C51   S    
C56   C72   S    
C5    C77   A    
C66   O22   D    
C58   P3    S    
C69   H24   S    
C62   H54   S    
C67   H36   S    
C14   C20   A    
C33   C35   A    
C30   H42   S    
C44   H47   S    
Ba1   O19   S    
C42   C43   A    
C4    H46   S    
C22   C24   A    
O9    P8    S    
C3    C6    A    
Ba2   O5    S    
C64   O12   S    
C57   C61   A    
Ba1   P2    S    
C4    H7    S    
C12   O18   S    
C6    H8    S    
C74   H43   S    
C30   C31   A    
C3    C74   S    
C76   H40   S    
Ba2   O6    S    
C8    C14   A    
Ba2   O33   S    
O34   P8    S    
C39   H50   S    
C2    C19   A    
Ba1   P1    S    
C64   C68   S    
C64   H58   S    
C48   O13   D    
C75   O31   D    
C57   H49   S    
C16   H3    S    
C20   H10   S    
C33   C38   A    
C23   O7    S    
C65   C69   S    
C53   P7    S    
O20   P3    S    
C59   C60   A    
C33   C39   A    
C73   C76   S    
C66   H19   S    
C19   H9    S    
C34   C71   S    
C23   C34   S    
O8    P8    D    
C1    C70   S    
Ba1   O5    S    
C18   C19   A    
C59   P2    S    
C47   C48   A    
C12   H27   S    
C34   H30   S    
C36   N1    Am   
C20   C21   A    
C28   C40   S    
Ba2   O37   S    
C2    H13   S    
C28   H57   S    
C54   H51   S    
C45   H33   S    
C23   H29   S    
C45   C56   S    
