data_mof_unit_4014.cif
_audit_creation_date              2012-12-10T20:34:55-0500
_audit_creation_method            fapswitch 2.2
_symmetry_space_group_name_H-M    P1
_symmetry_Int_Tables_number       1
_space_group_crystal_system       triclinic
_cell_length_a                    10.712776
_cell_length_b                    10.71446
_cell_length_c                    9.865358
_cell_angle_alpha                 88.973664
_cell_angle_beta                  88.113857
_cell_angle_gamma                 91.090658
_cell_volume                      1131.34838662

loop_
_atom_site_label
_atom_site_type_symbol
_atom_type_description
_atom_site_fract_x
_atom_site_fract_y
_atom_site_fract_z
_atom_type_partial_charge
C1    C     C_R   0.503281 0.259944 0.500506 0.901665
C2    C     C_R   0.556165 0.934673 0.609583 0.101988
C3    C     C_3   0.507121 0.920109 0.752705 -0.458112
C4    C     C_R   0.257214 0.502286 0.502272 0.898780
C5    C     C_3   0.504440 0.062160 0.755466 -0.244595
C6    C     C_R   0.396266 0.462472 0.076666 0.196847
C7    C     C_R   0.599035 0.546888 0.067389 -0.085976
C8    C     C_R   0.598916 0.547247 0.923460 -0.119267
C9    C     C_R   0.395614 0.463001 0.934176 0.318784
C10   C     C_3   0.333276 0.336921 0.937726 -0.497370
C11   C     C_3   0.335765 0.337180 0.090669 -0.469027
C12   C     C_3   0.877204 0.510517 0.496184 0.010124
C13   C     C_R   0.506505 0.740116 0.497843 0.978010
C14   C     C_R   0.741626 0.505557 0.497786 0.891699
C15   C     C_3   0.061263 0.372270 0.547628 0.218849
C16   C     C_3   0.917376 0.378509 0.541296 -0.436445
C17   C     C_3   0.069433 0.620927 0.598362 -0.191329
C18   C     C_3   0.076610 0.535425 0.357711 -0.421540
C19   C     C_3   0.119603 0.507087 0.507105 -0.021412
C20   C     C_2   0.123912 0.744637 0.535632 0.899917
C21   C     C_2   0.856307 0.734770 0.592118 0.980526
C22   C     C_2   0.529305 0.885201 0.230464 1.005660
C23   C     C_3   0.922585 0.610049 0.599679 -0.273126
C24   C     C_2   0.594271 0.118576 0.853170 0.982206
C25   C     C_2   0.103820 0.627905 0.748903 0.893391
C26   C     C_3   0.934546 0.538865 0.352761 -0.359913
C27   C     C_R   0.554580 0.061851 0.612267 0.106721
C28   C     C_R   0.523474 0.129090 0.497092 -0.133971
C29   C     C_R   0.523798 0.069474 0.371711 -0.257278
C30   C     C_R   0.529957 0.940888 0.366474 -0.056443
C31   C     C_R   0.529806 0.871964 0.490949 -0.161357
H1    H     H_    0.905617 0.631037 0.313078 0.261777
H2    H     H_    0.241392 0.340319 0.140370 0.199052
H3    H     H_    0.398253 0.265936 0.133223 0.240424
H4    H     H_    0.880075 0.307919 0.470722 0.166476
H5    H     H_    0.872125 0.352951 0.641589 0.211014
H6    H     H_    0.890792 0.569830 0.700543 0.123023
H7    H     H_    0.117935 0.623947 0.315020 0.219239
H8    H     H_    0.110825 0.465575 0.284509 0.186431
H9    H     H_    0.902104 0.467792 0.280066 0.173685
H10   H     H_    0.047786 0.378974 0.760508 0.218641
H11   H     H_    0.188236 0.324531 0.693227 0.220662
H12   H     H_    0.513960 0.121724 0.277785 0.196213
H13   H     H_    0.109265 0.889935 0.404006 0.353092
H14   H     H_    0.784240 0.869497 0.474862 0.348150
H15   H     H_    0.437537 0.860352 0.057582 0.345439
H16   H     H_    0.636308 0.144778 0.048319 0.333549
H17   H     H_    0.089336 0.188378 0.492935 0.220158
H18   H     H_    0.062612 0.280638 0.360551 0.179587
H19   H     H_    0.086660 0.724324 0.922739 0.350529
H20   H     H_    0.412331 0.875854 0.760205 0.238580
H21   H     H_    0.576808 0.877074 0.819467 0.226326
H22   H     H_    0.407983 0.097935 0.763921 0.141138
H23   H     H_    0.680006 0.582477 0.117975 0.184777
H24   H     H_    0.679557 0.583790 0.865877 0.171808
H25   H     H_    0.236118 0.338463 0.903988 0.227691
H26   H     H_    0.392589 0.265364 0.891450 0.206945
N1    N     N_R   0.499150 0.499140 0.142800 -0.123139
N2    N     N_R   0.499150 0.499180 0.857150 -0.121334
N3    N     N_3   0.091894 0.328535 0.683972 -0.445413
N4    N     N_3   0.108719 0.277819 0.452206 -0.456749
O1    O     O_R   0.500020 0.316790 0.614690 -0.619921
O2    O     O_R   0.061180 0.812225 0.437120 -0.779735
O3    O     O_2   0.842023 0.796093 0.694624 -0.587598
O4    O     O_R   0.812549 0.780069 0.469096 -0.788259
O5    O     O_2   0.619171 0.826310 0.189550 -0.611364
O6    O     O_R   0.427333 0.903142 0.147999 -0.775566
O7    O     O_2   0.685347 0.180338 0.811526 -0.618705
O8    O     O_R   0.571015 0.101788 0.992411 -0.805935
O9    O     O_2   0.170002 0.552368 0.803375 -0.667022
O10   O     O_R   0.058757 0.727202 0.825512 -0.745819
O11   O     O_R   0.500000 0.316760 0.385350 -0.631052
O12   O     O_R   0.314800 0.500000 0.614670 -0.580742
O13   O     O_R   0.314790 0.499960 0.385330 -0.627195
O14   O     O_R   0.500000 0.683240 0.614650 -0.604913
O15   O     O_R   0.499980 0.683210 0.385310 -0.608021
O16   O     O_R   0.685210 0.500040 0.614670 -0.643959
O17   O     O_R   0.685200 0.500000 0.385330 -0.623018
O18   O     O_2   0.227177 0.782191 0.568099 -0.652320
Zn1   Zn    Zn3+2 0.500010 0.500020 0.653130 0.996380
Zn2   Zn    Zn3+2 0.499990 0.499980 0.346870 0.978990

loop_
_geom_bond_atom_site_label_1
_geom_bond_atom_site_label_2
_ccdc_geom_bond_type
C26   H1    S    
C15   N3    S    
C6    N1    A    
C18   C26   S    
C18   H8    S    
C1    O1    A    
C6    C9    A    
C7    C8    A    
C15   C19   S    
C12   C23   S    
C17   C23   S    
C5    H22   S    
C28   C29   A    
C8    N2    A    
C30   C31   A    
C15   C16   S    
C17   C20   S    
C18   C19   S    
C14   O16   A    
H16   O8    S    
C21   O3    D    
C5    C27   S    
C4    C19   S    
C22   O5    D    
C13   O14   A    
C1    C28   S    
C2    C27   A    
C25   O10   S    
C10   H25   S    
O14   Zn1   S    
C7    N1    A    
C4    O13   A    
O11   Zn2   S    
C29   H12   S    
C8    H24   S    
C24   O8    S    
H13   O2    S    
C1    O11   A    
H18   N4    S    
C12   C16   S    
C11   H2    S    
C10   H26   S    
N1    Zn2   S    
H11   N3    S    
C6    C11   S    
C3    H20   S    
C23   H6    S    
C12   C26   S    
C2    C31   A    
C9    N2    A    
O15   Zn2   S    
H19   O10   S    
C29   C30   A    
C13   O15   A    
C15   N4    S    
C4    O12   A    
C12   C14   S    
C21   C23   S    
H14   O4    S    
O13   Zn2   S    
C9    C10   S    
O16   Zn1   S    
O1    Zn1   S    
C22   C30   S    
C20   O18   D    
C21   O4    S    
C13   C31   S    
C11   H3    S    
H10   N3    S    
C3    C5    S    
N2    Zn1   S    
C3    H21   S    
C17   C25   S    
C20   O2    S    
C2    C3    S    
C18   H7    S    
H15   O6    S    
C16   H4    S    
C16   H5    S    
O17   Zn2   S    
C26   H9    S    
H17   N4    S    
C5    C24   S    
C17   C19   S    
O12   Zn1   S    
C14   O17   A    
C22   O6    S    
C10   C11   S    
C24   O7    D    
C27   C28   A    
C25   O9    D    
C7    H23   S    
