data_mof_unit_2328.cif
_audit_creation_date              2012-12-11T14:21:13-0500
_audit_creation_method            fapswitch 2.2
_symmetry_space_group_name_H-M    P1
_symmetry_Int_Tables_number       1
_space_group_crystal_system       triclinic
_cell_length_a                    21.885739
_cell_length_b                    7.234066
_cell_length_c                    14.881659
_cell_angle_alpha                 89.999452
_cell_angle_beta                  106.789972
_cell_angle_gamma                 90.003915
_cell_volume                      2255.66643014

loop_
_atom_site_label
_atom_site_type_symbol
_atom_type_description
_atom_site_fract_x
_atom_site_fract_y
_atom_site_fract_z
_atom_type_partial_charge
O1    O     O_R   0.584770 0.505770 0.002090 -0.540922
O2    O     O_R   0.415230 0.005770 0.997910 -0.540905
O3    O     O_R   0.467060 0.173340 0.861950 -0.537631
O4    O     O_R   0.532940 0.673340 0.138050 -0.537625
C1    C     C_R   0.454090 0.344213 0.826220 0.674558
C2    C     C_R   0.545908 0.844217 0.173780 0.674579
O5    O     O_R   0.587510 0.175890 0.993210 -0.542731
O6    O     O_R   0.412490 0.675890 0.006790 -0.542723
O7    O     O_R   0.536540 0.008150 0.130100 -0.535810
O8    O     O_R   0.463460 0.508150 0.869900 -0.535801
C3    C     C_R   0.611773 0.344795 0.993097 0.690301
C4    C     C_R   0.388226 0.844781 0.006896 0.690261
O9    O     O_3   0.483140 0.340040 0.044760 -0.377184
O10   O     O_3   0.516860 0.840040 0.955240 -0.377197
V1    V     V_3+5 0.503130 0.064190 0.991700 1.405606
V2    V     V_3+5 0.496870 0.564190 0.008300 1.405629
C5    C     C_2   0.213543 0.736195 0.995514 -0.152784
C6    C     C_2   0.786434 0.236164 0.004375 -0.152642
C7    C     C_2   0.177477 0.889197 0.985318 -0.309500
C8    C     C_2   0.822538 0.389128 0.014736 -0.309362
H1    H     H_    0.193986 0.603234 0.006876 0.141283
H2    H     H_    0.805950 0.103257 0.992842 0.141231
H3    H     H_    0.195682 0.018138 0.965938 0.131322
H4    H     H_    0.804373 0.517984 0.034272 0.131223
C9    C     C_2   0.278298 0.738987 0.982662 -0.158916
C10   C     C_2   0.721680 0.238896 0.017238 -0.159089
C11   C     C_2   0.325907 0.856094 0.026954 -0.048258
C12   C     C_2   0.674098 0.356158 0.973051 -0.048297
H5    H     H_    0.287552 0.635529 0.935283 0.114477
H6    H     H_    0.712407 0.135270 0.064522 0.114561
C13   C     C_R   0.930131 0.886589 0.723505 -0.058717
C14   C     C_R   0.069865 0.386595 0.276494 -0.058727
C15   C     C_R   0.575907 0.853680 0.274989 -0.020344
C16   C     C_R   0.424090 0.353657 0.725010 -0.020370
C17   C     C_R   0.945184 0.884041 0.567599 0.084800
C18   C     C_R   0.054814 0.384051 0.432401 0.084805
C19   C     C_R   0.970251 0.888617 0.666027 -0.195937
C20   C     C_R   0.029746 0.388629 0.333974 -0.195940
C21   C     C_R   0.864417 0.882306 0.684914 -0.221338
C22   C     C_R   0.135579 0.382291 0.315084 -0.221302
C23   C     C_R   0.836143 0.885273 0.586970 0.060526
C24   C     C_R   0.163855 0.385246 0.413027 0.060520
C25   C     C_R   0.877182 0.881726 0.527824 0.086337
C26   C     C_R   0.122816 0.381732 0.472175 0.086327
C27   C     C_R   0.768213 0.889624 0.546735 0.075888
C28   C     C_R   0.231786 0.389549 0.453260 0.075931
C29   C     C_R   0.741328 0.876647 0.447370 0.056783
C30   C     C_R   0.258671 0.376617 0.552627 0.056790
C31   C     C_R   0.783388 0.870425 0.391222 -0.187871
C32   C     C_R   0.216610 0.370448 0.608776 -0.187879
C33   C     C_R   0.849268 0.875353 0.430306 -0.202176
C34   C     C_R   0.150730 0.375385 0.569693 -0.202174
C35   C     C_R   0.726268 0.910273 0.602849 -0.195191
C36   C     C_R   0.273734 0.410084 0.397142 -0.195334
C37   C     C_R   0.660636 0.908290 0.564208 -0.208912
C38   C     C_R   0.339365 0.408024 0.435779 -0.208851
C39   C     C_R   0.633609 0.887892 0.468049 0.143795
C40   C     C_R   0.366390 0.387706 0.531943 0.143770
C41   C     C_R   0.673227 0.872858 0.407716 0.079320
C42   C     C_R   0.326771 0.372801 0.592281 0.079327
C43   C     C_R   0.566830 0.885009 0.431764 -0.165431
C44   C     C_R   0.433168 0.384771 0.568225 -0.165417
C45   C     C_R   0.538177 0.868352 0.335738 -0.179026
C46   C     C_R   0.461820 0.368192 0.664255 -0.178900
C47   C     C_R   0.642643 0.855109 0.310185 -0.213115
C48   C     C_R   0.357354 0.355142 0.689817 -0.213120
H7    H     H_    0.877991 0.872551 0.382184 0.113937
H8    H     H_    0.122008 0.372612 0.617816 0.113938
H9    H     H_    0.668928 0.842396 0.259444 0.091751
H10   H     H_    0.331069 0.342539 0.740563 0.091753
H11   H     H_    0.486586 0.868432 0.308670 0.106305
H12   H     H_    0.513411 0.368223 0.691319 0.106168
H13   H     H_    0.630644 0.923760 0.610392 0.121312
H14   H     H_    0.369358 0.423376 0.389588 0.121450
H15   H     H_    0.021080 0.892663 0.699723 0.100459
H16   H     H_    0.978917 0.392681 0.300279 0.100454
H17   H     H_    0.836927 0.874771 0.734234 0.099251
H18   H     H_    0.163065 0.374760 0.265759 0.099292
H19   H     H_    0.766942 0.864599 0.315778 0.118441
H20   H     H_    0.233055 0.364637 0.684221 0.118441
H21   H     H_    0.742269 0.932531 0.677457 0.119994
H22   H     H_    0.257738 0.432287 0.322530 0.119901
H23   H     H_    0.536674 0.896976 0.477863 0.117007
H24   H     H_    0.463325 0.396634 0.522122 0.117000
O11   O     O_R   0.036450 0.233070 0.130130 -0.536986
O12   O     O_R   0.963550 0.733070 0.869870 -0.536993
O13   O     O_R   0.912470 0.560570 0.006790 -0.545447
O14   O     O_R   0.087530 0.060570 0.993210 -0.545444
C49   C     C_R   0.887701 0.392124 0.004956 0.731849
C50   C     C_R   0.112302 0.892139 0.995054 0.731858
O15   O     O_R   0.032920 0.562940 0.138050 -0.539062
O16   O     O_R   0.967080 0.062940 0.861950 -0.539054
O17   O     O_R   0.084790 0.730500 0.002090 -0.536250
O18   O     O_R   0.915210 0.230500 0.997910 -0.536250
C51   C     C_R   0.043554 0.394294 0.174523 0.692686
C52   C     C_R   0.956443 0.894293 0.825477 0.692692
O19   O     O_3   0.016820 0.396170 0.955260 -0.378752
O20   O     O_3   0.983180 0.896170 0.044740 -0.378749
V3    V     V_3+5 0.996880 0.672090 0.008300 1.403494
V4    V     V_3+5 0.003120 0.172090 0.991700 1.403523
C53   C     C_3   0.321655 0.985273 0.105878 -0.332319
C54   C     C_3   0.319966 0.876827 0.193912 -0.304829
C55   C     C_3   0.319236 0.006717 0.274408 -0.767407
H25   H     H_    0.362840 0.094079 0.293512 0.223866
H26   H     H_    0.276351 0.096868 0.253958 0.229517
H27   H     H_    0.317900 0.924497 0.336836 0.228858
H28   H     H_    0.276839 0.787948 0.178698 0.210610
H29   H     H_    0.362738 0.786308 0.216599 0.180188
H30   H     H_    0.364271 0.076841 0.125740 0.168954
H31   H     H_    0.280191 0.079253 0.083304 0.174594
C56   C     C_3   0.678397 0.485614 0.894256 -0.332350
C57   C     C_3   0.679941 0.377480 0.806070 -0.304682
C58   C     C_3   0.681182 0.507703 0.725917 -0.766918
H32   H     H_    0.637914 0.596481 0.707019 0.223889
H33   H     H_    0.724424 0.596475 0.746634 0.229307
H34   H     H_    0.682218 0.425707 0.663282 0.228797
H35   H     H_    0.722821 0.287579 0.821240 0.210554
H36   H     H_    0.636915 0.287980 0.783051 0.179892
H37   H     H_    0.635855 0.577463 0.874540 0.168883
H38   H     H_    0.719934 0.579325 0.916893 0.174772
C59   C     C_3   0.989788 0.883059 0.504877 -0.377535
C60   C     C_3   0.062233 0.883499 0.554799 -0.324867
C61   C     C_3   0.100591 0.882774 0.483803 -0.716306
H39   H     H_    0.089342 0.758266 0.438698 0.235069
H40   H     H_    0.089202 0.006436 0.438068 0.235361
H41   H     H_    0.152433 0.883166 0.521316 0.222778
H42   H     H_    0.075989 0.007585 0.599868 0.187612
H43   H     H_    0.075919 0.760231 0.600543 0.189093
H44   H     H_    0.979057 0.760783 0.458798 0.181898
H45   H     H_    0.978639 0.003516 0.457484 0.181578
C62   C     C_3   0.010211 0.383064 0.495125 -0.377533
C63   C     C_3   0.937766 0.383479 0.445204 -0.324866
C64   C     C_3   0.899409 0.382748 0.516202 -0.716312
H46   H     H_    0.910661 0.258256 0.561315 0.235071
H47   H     H_    0.910795 0.506425 0.561928 0.235359
H48   H     H_    0.847566 0.383105 0.478690 0.222778
H49   H     H_    0.924010 0.507556 0.400133 0.187604
H50   H     H_    0.924078 0.260202 0.399463 0.189099
H51   H     H_    0.020941 0.260793 0.541207 0.181898
H52   H     H_    0.021362 0.503526 0.542516 0.181577

loop_
_geom_bond_atom_site_label_1
_geom_bond_atom_site_label_2
_ccdc_geom_bond_type
C40   C44   A    
C53   C54   S    
C56   C57   S    
C6    C10   S    
C59   H45   S    
O2    C4    A    
C16   C48   A    
C2    O7    A    
C15   C47   A    
C61   H39   S    
C29   C31   A    
C20   H16   S    
O5    C3    A    
C21   H17   S    
C35   H21   S    
C17   C19   A    
C57   H35   S    
C39   C41   A    
C40   C42   A    
C13   C52   S    
O16   C52   A    
C56   H37   S    
C24   C28   A    
C27   C29   A    
C60   H42   S    
C43   C45   A    
C44   C46   A    
C62   H52   S    
C61   H40   S    
C8    H4    S    
C38   C40   A    
C63   C64   S    
C31   C33   A    
O1    C3    A    
C64   H48   S    
C32   C34   A    
C54   H29   S    
C14   C20   A    
C17   C25   A    
O17   V3    S    
C34   H8    S    
C15   C45   A    
C58   H34   S    
C26   C34   A    
C30   C32   A    
C19   H15   S    
C42   C48   A    
O6    V2    S    
C23   C25   A    
C24   C26   A    
C57   C58   S    
C30   C42   A    
O13   V3    S    
C35   C37   A    
C12   C56   S    
C9    H5    S    
C36   C38   A    
C38   H14   S    
C4    C11   S    
C17   C59   S    
C21   C23   A    
C43   H23   S    
C18   C62   S    
C59   H44   S    
C61   H41   S    
C53   H31   S    
O15   C51   A    
C11   C53   S    
C5    H1    S    
C31   H19   S    
C56   H38   S    
O4    V2    S    
C7    H3    S    
O12   V3    S    
O18   V4    S    
O6    C4    A    
C1    C16   S    
C28   C36   A    
C16   C46   A    
C54   H28   S    
C55   H26   S    
O1    V2    S    
C33   H7    S    
O2    V1    S    
C59   C60   S    
O14   V4    S    
O12   C52   A    
O4    C2    A    
C45   H11   S    
C10   H6    S    
C14   C22   A    
C37   C39   A    
C64   H46   S    
C22   H18   S    
C18   C26   A    
C62   C63   S    
C36   H22   S    
O19   V4    S    
O3    V1    S    
O16   V4    S    
C50   O17   A    
C64   H47   S    
C58   H32   S    
C63   H50   S    
C44   H24   S    
C6    H2    S    
O14   C50   A    
C22   C24   A    
O3    C1    A    
C32   H20   S    
C49   O18   A    
C39   C43   A    
C9    C11   D    
C8    C49   S    
C10   C12   D    
C2    C15   S    
C5    C9    S    
C18   C20   A    
C63   H49   S    
C1    O8    A    
O11   V4    S    
O8    V2    S    
C41   C47   A    
C57   H36   S    
O11   C51   A    
C25   C33   A    
C48   H10   S    
C3    C12   S    
C47   H9    S    
C27   C35   A    
O5    V1    S    
C5    C7    D    
C13   C21   A    
C55   H27   S    
C6    C8    D    
C46   H12   S    
C60   H43   S    
C54   C55   S    
C62   H51   S    
C29   C41   A    
C37   H13   S    
C28   C30   A    
C13   C19   A    
C14   C51   S    
O20   V3    S    
O9    V2    S    
C55   H25   S    
C7    C50   S    
O13   C49   A    
C23   C27   A    
O10   V1    S    
O15   V3    S    
C60   C61   S    
C53   H30   S    
O7    V1    S    
C58   H33   S    
