data_mof_unit_369.cif
_audit_creation_date              2012-12-10T17:02:05-0500
_audit_creation_method            fapswitch 2.2
_symmetry_space_group_name_H-M    P1
_symmetry_Int_Tables_number       1
_space_group_crystal_system       triclinic
_cell_length_a                    10.858365
_cell_length_b                    11.084481
_cell_length_c                    9.843091
_cell_angle_alpha                 111.782324
_cell_angle_beta                  99.018087
_cell_angle_gamma                 92.077644
_cell_volume                      1080.74811836

loop_
_atom_site_label
_atom_site_type_symbol
_atom_type_description
_atom_site_fract_x
_atom_site_fract_y
_atom_site_fract_z
_atom_type_partial_charge
C1    C     C_R   0.489744 0.253462 0.439346 0.861932
C2    C     C_R   0.086292 0.553201 0.648097 0.035592
C3    C     C_R   0.131646 0.529804 0.513673 -0.094174
C4    C     C_R   0.047013 0.505103 0.381700 -0.221482
C5    C     C_R   0.919466 0.492204 0.378299 -0.206765
C6    C     C_R   0.873722 0.494462 0.504427 -0.101323
C7    C     C_2   0.482465 0.113145 0.403541 -0.399487
C8    C     C_2   0.492891 0.069402 0.513483 -0.092927
C9    C     C_2   0.515054 0.889084 0.596339 0.295736
C10   C     C_2   0.487866 0.930050 0.483855 -0.245636
C11   C     C_2   0.510580 0.509357 0.080348 0.111002
C12   C     C_R   0.263811 0.513205 0.504617 0.779711
C13   C     C_2   0.487034 0.490335 0.916933 0.108632
C14   C     C_R   0.509723 0.747140 0.560908 0.715044
C15   C     C_R   0.738052 0.494311 0.499505 0.788626
C16   C     C_R   0.163014 0.611020 0.791180 -0.232796
C17   C     C_R   0.123310 0.608204 0.918414 0.463808
C18   C     C_R   0.006641 0.539526 0.899663 -0.274695
C19   C     C_R   0.925277 0.495161 0.762624 -0.181337
C20   C     C_R   0.959461 0.514495 0.638494 0.082380
Cu1   Cu    Cu3+1 0.521920 0.521810 0.644910 0.961546
Cu2   Cu    Cu3+1 0.478080 0.478190 0.355090 0.975252
H1    H     H_    0.079630 0.495630 0.280464 0.142750
H2    H     H_    0.469517 0.045930 0.288032 0.149226
H3    H     H_    0.404602 0.428820 0.844155 0.116419
H4    H     H_    0.579629 0.588087 0.156535 0.121653
H5    H     H_    0.254373 0.660916 0.807209 0.182509
H6    H     H_    0.977771 0.517789 0.988879 0.151477
H7    H     H_    0.839048 0.439276 0.754454 0.209180
H8    H     H_    0.856657 0.478222 0.275418 0.169169
H9    H     H_    0.459796 0.861237 0.369335 0.150121
H10   H     H_    0.505733 0.138154 0.628321 0.226016
N1    N     N_2   0.445130 0.445430 0.137370 -0.014002
N2    N     N_2   0.554930 0.554500 0.862630 -0.039928
O1    O     O_R   0.511700 0.332330 0.577400 -0.585669
O2    O     O_R   0.474680 0.295500 0.332650 -0.545131
O3    O     O_R   0.338160 0.518420 0.622400 -0.608456
O4    O     O_R   0.301140 0.481590 0.377650 -0.589968
O5    O     O_R   0.525320 0.704500 0.667350 -0.598078
O6    O     O_R   0.488300 0.667670 0.422600 -0.616703
O7    O     O_R   0.698860 0.518410 0.622350 -0.562821
O8    O     O_R   0.661840 0.481580 0.377600 -0.586141
O9    O     O_3   0.672742 0.595616 0.939979 -0.507908
C21   C     C_3   0.689421 0.731539 0.980732 0.182582
H11   H     H_    0.608956 0.778451 0.029476 0.104050
H12   H     H_    0.701710 0.754528 0.882834 0.183187
C22   C     C_3   0.806846 0.788189 0.098862 -0.892555
H13   H     H_    0.802458 0.758558 0.194281 0.250109
H14   H     H_    0.890495 0.753125 0.050703 0.256548
H15   H     H_    0.815453 0.896469 0.139313 0.215798
O10   O     O_3   0.377026 0.333588 0.040927 -0.531784
C23   C     C_3   0.249411 0.357369 0.022450 0.167704
H16   H     H_    0.225453 0.376310 0.918879 0.133339
H17   H     H_    0.227417 0.442614 0.115637 0.177310
C24   C     C_3   0.166708 0.236438 0.005988 -0.388763
H18   H     H_    0.189301 0.151566 0.914015 0.236802
H19   H     H_    0.185677 0.218483 0.110824 0.234143
C25   C     C_3   0.027313 0.248786 0.967557 -0.918454
H20   H     H_    0.997676 0.330807 0.057278 0.250610
H21   H     H_    0.972230 0.157391 0.954159 0.268265
H22   H     H_    0.006352 0.263934 0.861244 0.263818
O11   O     O_3   0.211665 0.650249 0.049729 -0.653974
C26   C     C_3   0.162621 0.720422 0.178720 0.021216
H23   H     H_    0.223423 0.709426 0.274474 0.174128
H24   H     H_    0.066855 0.683002 0.179211 0.131002
C27   C     C_3   0.168181 0.865856 0.206115 -0.352803
H25   H     H_    0.265466 0.902496 0.209588 0.229547
H26   H     H_    0.105332 0.880008 0.113889 0.217774
C28   C     C_3   0.128989 0.945040 0.353400 -0.899612
H27   H     H_    0.031407 0.911283 0.353254 0.261892
H28   H     H_    0.133842 0.049832 0.369551 0.258438
H29   H     H_    0.192885 0.934955 0.447625 0.251793
O12   O     O_3   0.560887 0.982383 0.738772 -0.621285
C29   C     C_3   0.502080 0.968562 0.851546 0.090919
H30   H     H_    0.529417 0.060576 0.951239 0.189674
H31   H     H_    0.540205 0.891660 0.885980 0.136056
C30   C     C_3   0.358071 0.948197 0.813720 -0.369945
H32   H     H_    0.322703 0.027556 0.780159 0.223785
H33   H     H_    0.324992 0.853491 0.719919 0.192163
C31   C     C_3   0.304996 0.946789 0.947696 -0.955069
H34   H     H_    0.342747 0.868760 0.982259 0.259137
H35   H     H_    0.201252 0.927804 0.918100 0.258474
H36   H     H_    0.331292 0.041879 0.042947 0.271624

loop_
_geom_bond_atom_site_label_1
_geom_bond_atom_site_label_2
_ccdc_geom_bond_type
C27   H26   S    
C24   H18   S    
C26   H24   S    
O12   C29   S    
C19   C20   A    
C9    C14   S    
C7    C8    D    
C22   H14   S    
C30   H32   S    
C21   H11   S    
C29   H31   S    
C5    C6    A    
C27   C28   S    
C25   H21   S    
C7    H2    S    
Cu2   O4    S    
C18   C19   A    
C12   O3    A    
C28   H28   S    
C3    C12   S    
C6    C15   S    
C10   H9    S    
C23   H17   S    
C16   C17   A    
C29   C30   S    
C2    C16   A    
C9    C10   D    
C21   C22   S    
C25   H22   S    
C27   H25   S    
C14   O5    A    
C26   C27   S    
Cu1   Cu2   S    
C13   H3    S    
C9    O12   S    
C31   H36   S    
C21   H12   S    
C22   H15   S    
C30   H33   S    
C29   H30   S    
C2    C20   A    
O10   C23   S    
C8    H10   S    
C11   N1    D    
C18   H6    S    
C15   O7    A    
C31   H35   S    
C4    H1    S    
C4    C5    A    
Cu1   N2    S    
C11   H4    S    
C25   H20   S    
C28   H29   S    
O9    C21   S    
O11   C26   S    
C17   O11   S    
C22   H13   S    
Cu1   O5    S    
Cu2   O6    S    
C17   C18   A    
Cu1   O7    S    
C24   H19   S    
C3    C4    A    
C19   H7    S    
Cu2   O2    S    
C23   H16   S    
C1    O1    A    
C5    H8    S    
C30   C31   S    
Cu2   N1    S    
C1    C7    S    
N2    O9    S    
C15   O8    A    
C31   H34   S    
C23   C24   S    
Cu1   O1    S    
N1    O10   S    
C6    C20   A    
C2    C3    A    
C13   N2    D    
C11   C13   S    
Cu2   O8    S    
C16   H5    S    
C12   O4    A    
C28   H27   S    
C14   O6    A    
C26   H23   S    
Cu1   O3    S    
C8    C10   S    
C24   C25   S    
C1    O2    A    
