data_mof_unit_2017.cif
_audit_creation_date              2012-12-11T16:05:05-0500
_audit_creation_method            fapswitch 2.2
_symmetry_space_group_name_H-M    P1
_symmetry_Int_Tables_number       1
_space_group_crystal_system       triclinic
_cell_length_a                    10.694968
_cell_length_b                    10.631501
_cell_length_c                    16.922028
_cell_angle_alpha                 98.489995
_cell_angle_beta                  98.668931
_cell_angle_gamma                 61.284195
_cell_volume                      1661.88957514

loop_
_atom_site_label
_atom_site_type_symbol
_atom_type_description
_atom_site_fract_x
_atom_site_fract_y
_atom_site_fract_z
_atom_type_partial_charge
C1    C     C_R   0.354821 0.774798 0.398382 0.541347
C2    C     C_3   0.417069 0.684535 0.253209 -0.114025
C3    C     C_3   0.348590 0.809006 0.317959 0.056602
C4    C     C_R   0.371314 0.347358 0.358495 0.547586
C5    C     C_3   0.408632 0.895333 0.287039 -0.123969
C6    C     C_3   0.268190 0.964230 0.232457 -0.113754
C7    C     C_3   0.209162 0.876590 0.264478 -0.122383
C8    C     C_3   0.276074 0.753414 0.198854 -0.114698
C9    C     C_3   0.334242 0.840701 0.167071 0.056899
C10   C     C_3   0.465718 0.338159 0.803948 -0.150395
C11   C     C_3   0.370581 0.469432 0.754681 -0.129857
C12   C     C_3   0.761091 0.293523 0.248423 -0.119342
C13   C     C_3   0.380774 0.365182 0.680087 0.027805
C14   C     C_3   0.476495 0.234653 0.728033 -0.110018
C15   C     C_3   0.340381 0.231528 0.744472 -0.125300
C16   C     C_R   0.776393 0.377113 0.401655 0.548220
C17   C     C_3   0.244953 0.362154 0.695817 -0.095442
C18   C     C_3   0.234544 0.465291 0.771852 0.103711
C19   C     C_3   0.329908 0.335367 0.819815 0.053435
C20   C     C_1   0.816987 0.341653 0.709643 -0.029980
C21   C     C_1   0.843198 0.315418 0.778279 -0.034015
C22   C     C_1   0.335421 0.818353 0.708658 -0.045140
C23   C     C_3   0.830702 0.342978 0.323926 0.057100
C24   C     C_1   0.310223 0.845659 0.777412 -0.037042
C25   C     C_R   0.957755 0.284505 0.102514 0.549973
C26   C     C_R   0.319772 0.300457 0.119899 0.533050
C27   C     C_R   0.298086 0.885249 0.086423 0.534392
C28   C     C_R   0.355527 0.773864 0.626527 0.536914
C29   C     C_R   0.884326 0.299938 0.861044 0.549246
C30   C     C_R   0.308563 0.295115 0.892594 0.555528
C31   C     C_R   0.278636 0.887363 0.858359 0.553915
C32   C     C_R   0.409085 0.377418 0.601195 0.562236
C33   C     C_R   0.774230 0.379192 0.629578 0.540838
C34   C     C_3   0.980647 0.234868 0.301935 -0.149127
C35   C     C_1   0.345860 0.338002 0.274656 -0.067920
C36   C     C_1   0.333758 0.328131 0.203425 -0.064201
C37   C     C_3   0.912424 0.184371 0.224679 -0.122915
C38   C     C_3   0.981212 0.351232 0.256903 -0.136295
C39   C     C_3   0.829928 0.459935 0.279917 -0.101835
C40   C     C_3   0.761972 0.409235 0.203644 -0.114803
C41   C     C_3   0.912676 0.301181 0.181529 0.054978
C42   C     C_3   0.475314 0.772901 0.220172 -0.127753
Cr1   Cr    Cr6+3 0.608340 0.611040 0.520430 1.034694
Cr2   Cr    Cr6+3 0.287650 0.601120 0.489350 1.033128
Cr3   Cr    Cr6+3 0.604040 0.287870 0.490280 1.019038
Cr4   Cr    Cr6+3 0.054020 0.052700 0.970850 1.049266
Cr5   Cr    Cr6+3 0.059230 0.375120 0.993390 1.045506
Cr6   Cr    Cr6+3 0.374950 0.061200 0.992340 1.032587
H1    H     H_    0.670018 0.270266 0.246999 0.129032
H2    H     H_    0.942070 0.073711 0.196943 0.132552
H3    H     H_    0.067449 0.166631 0.345308 0.113801
H4    H     H_    0.070721 0.376285 0.258416 0.116170
H5    H     H_    0.795620 0.573750 0.303519 0.133415
H6    H     H_    0.674429 0.477289 0.160570 0.121157
H7    H     H_    0.477624 0.569102 0.264729 0.110503
H8    H     H_    0.582991 0.731925 0.199684 0.115505
H9    H     H_    0.460550 0.954737 0.325174 0.131761
H10   H     H_    0.212937 0.078925 0.220099 0.107660
H11   H     H_    0.103007 0.915599 0.286481 0.121853
H12   H     H_    0.223722 0.693843 0.161311 0.129277
H13   H     H_    0.387285 0.564591 0.757339 0.116654
H14   H     H_    0.554908 0.328964 0.849868 0.128360
H15   H     H_    0.576205 0.139763 0.708966 0.151920
H16   H     H_    0.327280 0.133352 0.741419 0.125166
H17   H     H_    0.155381 0.371456 0.650150 0.141942
I1    I     I_    0.041156 0.649222 0.805168 -0.312327
O1    O     O_R   0.751220 0.499230 0.435170 -0.518745
O2    O     O_R   0.412990 0.180750 0.091610 -0.505744
O3    O     O_R   0.366620 0.943130 0.065760 -0.501780
O4    O     O_R   0.477220 0.727600 0.436870 -0.500983
O5    O     O_R   0.160510 0.906330 0.879210 -0.477432
O6    O     O_R   0.930190 0.179050 0.889450 -0.489707
O7    O     O_R   0.909140 0.398170 0.896710 -0.487012
O8    O     O_R   0.186190 0.363460 0.918830 -0.479764
O9    O     O_R   0.401670 0.173200 0.913310 -0.513055
O10   O     O_R   0.356120 0.936130 0.900470 -0.499478
O11   O     O_3   0.162740 0.163010 0.985530 -0.287222
O12   O     O_R   0.297880 0.469080 0.560050 -0.492064
O13   O     O_R   0.258650 0.745120 0.411470 -0.517311
O14   O     O_R   0.297070 0.467240 0.395960 -0.492016
O15   O     O_R   0.488830 0.252610 0.387790 -0.513188
O16   O     O_R   0.724400 0.302390 0.420980 -0.504118
O17   O     O_R   0.752100 0.501210 0.612190 -0.491358
O18   O     O_R   0.478040 0.729440 0.600970 -0.494000
O19   O     O_R   0.259530 0.747110 0.588490 -0.507241
O20   O     O_R   0.489720 0.254590 0.564810 -0.515294
O21   O     O_R   0.725220 0.304230 0.585080 -0.517393
O22   O     O_3   0.500010 0.500010 0.500020 -0.285355
O23   O     O_R   0.171830 0.913880 0.057510 -0.521076
O24   O     O_R   0.940690 0.186050 0.054730 -0.499439
O25   O     O_R   0.920470 0.405720 0.075010 -0.513986
O26   O     O_R   0.196690 0.370460 0.084120 -0.517426

loop_
_geom_bond_atom_site_label_1
_geom_bond_atom_site_label_2
_ccdc_geom_bond_type
C5    C42   S    
C11   C18   S    
C30   O9    A    
C28   O18   A    
C34   C37   S    
Cr1   O17   S    
Cr5   O26   S    
C6    H10   S    
C13   C32   S    
Cr3   O16   S    
Cr6   O3    S    
C6    C9    S    
C12   H1    S    
Cr3   O20   S    
C7    C8    S    
Cr4   O23   S    
C39   H5    S    
C15   C19   S    
C12   C23   S    
C9    C42   S    
Cr1   O22   S    
Cr3   O21   S    
C4    O14   A    
C3    C7    S    
C2    H7    S    
C38   C39   S    
C30   O8    A    
C38   H4    S    
C26   O26   A    
C18   C19   S    
C12   C37   S    
Cr6   O10   S    
C42   H8    S    
C4    O15   A    
C35   C36   T    
C8    C9    S    
C15   H16   S    
Cr4   O6    S    
C27   O3    A    
C29   O6    A    
C31   O5    A    
C4    C35   S    
C22   C28   S    
C13   C14   S    
Cr1   O18   S    
Cr6   O9    S    
C10   H14   S    
C7    H11   S    
Cr3   O15   S    
C25   O25   A    
Cr2   O14   S    
Cr3   O22   S    
Cr5   O7    S    
C38   C41   S    
C10   C14   S    
C25   C41   S    
C39   C40   S    
C11   H13   S    
C21   C29   S    
C1    C3    S    
Cr6   O11   S    
C12   C40   S    
C25   O24   A    
C10   C19   S    
C23   C34   S    
C32   O20   A    
C16   O16   A    
C17   C18   S    
C34   H3    S    
C16   O1    A    
Cr6   O2    S    
C33   O17   A    
Cr4   O5    S    
C20   C33   S    
C26   C36   S    
C40   C41   S    
C16   C23   S    
C40   H6    S    
C1    O13   A    
C22   C24   T    
C18   I1    S    
Cr5   O11   S    
Cr2   O19   S    
C9    C27   S    
C15   C17   S    
C34   C38   S    
Cr5   O25   S    
Cr2   O13   S    
C2    C8    S    
Cr5   O8    S    
C3    C5    S    
Cr4   O11   S    
C6    C7    S    
Cr4   O24   S    
C5    H9    S    
Cr1   O4    S    
C17   H17   S    
C1    O4    A    
C13   C17   S    
C26   O2    A    
Cr2   O12   S    
C2    C3    S    
C33   O21   A    
C24   C31   S    
C8    H12   S    
C37   H2    S    
C11   C13   S    
C31   O10   A    
C5    C6    S    
C2    C42   S    
C23   C39   S    
C14   H15   S    
C27   O23   A    
C37   C41   S    
C10   C11   S    
C32   O12   A    
C29   O7    A    
C20   C21   T    
Cr1   O1    S    
C28   O19   A    
C14   C15   S    
Cr2   O22   S    
C19   C30   S    
