data_mof_unit_2829.cif
_audit_creation_date              2012-12-10T19:46:34-0500
_audit_creation_method            fapswitch 2.2
_symmetry_space_group_name_H-M    P1
_symmetry_Int_Tables_number       1
_space_group_crystal_system       triclinic
_cell_length_a                    18.600501
_cell_length_b                    18.661091
_cell_length_c                    32.676139
_cell_angle_alpha                 90.021685
_cell_angle_beta                  89.978377
_cell_angle_gamma                 90.23523
_cell_volume                      11341.9749983

loop_
_atom_site_label
_atom_site_type_symbol
_atom_type_description
_atom_site_fract_x
_atom_site_fract_y
_atom_site_fract_z
_atom_type_partial_charge
C1    C     C_R   0.500010 0.000000 0.896136 0.876407
C2    C     C_1   0.500073 0.999727 0.768881 0.091804
C3    C     C_3   0.257709 0.318685 0.425587 0.522408
C4    C     C_3   0.704499 0.759695 0.421058 0.319302
C5    C     C_3   0.774895 0.282983 0.418091 0.437609
C6    C     C_3   0.303151 0.246977 0.422237 0.331506
C7    C     C_3   0.227806 0.715334 0.417848 0.399587
C8    C     C_1   0.500078 0.000034 0.149081 -0.037026
C9    C     C_1   0.999980 0.499872 0.149112 -0.039797
C10   C     C_1   0.999969 0.500017 0.649083 -0.038506
C11   C     C_1   0.499982 0.999901 0.649096 -0.041013
C12   C     C_1   0.500150 0.000051 0.186773 0.076114
C13   C     C_1   0.500281 0.000079 0.268896 0.099904
C14   C     C_1   0.000007 0.499760 0.186776 0.074332
C15   C     C_1   0.999940 0.500002 0.686769 0.075088
C16   C     C_1   0.500011 0.999819 0.686790 0.073252
C17   C     C_1   0.000092 0.499553 0.268891 0.093765
C18   C     C_1   0.999866 0.499966 0.813319 0.081921
C19   C     C_1   0.500062 0.999792 0.813304 0.049877
C20   C     C_1   0.500289 0.000059 0.313326 0.089403
C21   C     C_1   0.000108 0.499534 0.313286 0.054658
C22   C     C_1   0.999888 0.499966 0.850972 -0.095861
C23   C     C_1   0.500032 0.999899 0.850934 -0.122136
C24   C     C_1   0.500244 0.000025 0.350972 -0.069366
C25   C     C_R   0.999984 0.499985 0.896168 0.836791
C26   C     C_1   0.000092 0.499612 0.350959 -0.107148
C27   C     C_R   0.500010 0.000012 0.103875 0.795751
C28   C     C_R   0.999989 0.499982 0.103906 0.801418
C29   C     C_R   0.999996 0.500009 0.603873 0.795729
C30   C     C_R   0.499990 0.999986 0.603914 0.800652
C31   C     C_R   0.641302 0.860476 0.000508 0.959082
C32   C     C_R   0.140734 0.639835 0.999635 0.954874
C33   C     C_R   0.358609 0.139377 0.000663 0.958691
C34   C     C_R   0.859119 0.360246 0.999535 0.952289
C35   C     C_R   0.639865 0.140886 0.999398 0.952556
C36   C     C_R   0.000028 0.499847 0.396125 0.884900
C37   C     C_R   0.140781 0.359829 0.999783 0.959073
C38   C     C_R   0.360098 0.859098 0.999371 0.956472
C39   C     C_R   0.859190 0.640113 0.999716 0.946131
C40   C     C_R   0.141581 0.360768 0.500820 0.967226
C41   C     C_R   0.640705 0.139806 0.499576 0.955224
C42   C     C_R   0.858612 0.639420 0.500619 0.961006
C43   C     C_R   0.359243 0.860228 0.499611 0.957076
C44   C     C_R   0.139808 0.641045 0.499233 0.959796
C45   C     C_R   0.640716 0.859759 0.499778 0.949848
C46   C     C_R   0.860090 0.359029 0.499347 0.963592
C47   C     C_R   0.500134 0.000003 0.396170 0.825187
C48   C     C_R   0.359416 0.140303 0.499925 0.949570
C49   C     C_R   0.269803 0.781079 0.964156 -0.098170
C50   C     C_R   0.210136 0.261005 0.966966 -0.085851
C51   C     C_R   0.730236 0.218410 0.964155 -0.097315
C52   C     C_R   0.791300 0.740029 0.966909 -0.079385
C53   C     C_R   0.258308 0.206142 0.968001 -0.122090
C54   C     C_R   0.219414 0.727855 0.964274 -0.116745
C55   C     C_R   0.742962 0.794826 0.967957 -0.115147
C56   C     C_R   0.780423 0.271843 0.964122 -0.115097
C57   C     C_R   0.769882 0.280621 0.464055 -0.100636
C58   C     C_1   0.500233 0.000073 0.231195 0.092037
C59   C     C_R   0.707586 0.758676 0.467283 -0.077447
C60   C     C_R   0.230311 0.719157 0.463928 -0.100084
C61   C     C_R   0.293989 0.242539 0.468093 -0.077225
C62   C     C_R   0.756169 0.704081 0.468385 -0.114790
C63   C     C_R   0.718198 0.228706 0.464220 -0.115408
C64   C     C_R   0.245160 0.296799 0.469218 -0.113650
C65   C     C_R   0.280318 0.772798 0.464071 -0.114504
C66   C     C_R   0.303564 0.804598 0.000074 -0.175215
C67   C     C_R   0.194538 0.302663 0.001401 -0.176860
C68   C     C_R   0.696082 0.195579 0.000044 -0.174317
C69   C     C_1   0.000058 0.499630 0.231198 0.087586
C70   C     C_R   0.805436 0.697262 0.001158 -0.165351
C71   C     C_R   0.300189 0.191649 0.002412 -0.179763
C72   C     C_R   0.195602 0.695555 0.000296 -0.164569
C73   C     C_R   0.699758 0.808151 0.002143 -0.184531
C74   C     C_R   0.803920 0.304747 0.000120 -0.164586
C75   C     C_R   0.803477 0.304457 0.500003 -0.177261
C76   C     C_R   0.694251 0.802361 0.501324 -0.168379
C77   C     C_R   0.196399 0.695573 0.499828 -0.172200
C78   C     C_R   0.305864 0.197535 0.501631 -0.167139
C79   C     C_R   0.800048 0.691612 0.502352 -0.185135
C80   C     C_1   0.999905 0.499984 0.731194 0.089743
C81   C     C_R   0.695018 0.195955 0.500267 -0.169047
C82   C     C_R   0.200035 0.308416 0.502738 -0.181990
C83   C     C_R   0.304189 0.804782 0.500193 -0.164866
C84   C     C_R   0.280162 0.773701 0.037494 0.334914
C85   C     C_R   0.229834 0.283964 0.038486 0.333977
C86   C     C_R   0.718520 0.227575 0.037369 0.335338
C87   C     C_R   0.768813 0.714830 0.038023 0.333475
C88   C     C_R   0.283277 0.229663 0.038842 0.338682
C89   C     C_R   0.226477 0.719484 0.037636 0.337940
C90   C     C_R   0.715485 0.769108 0.038345 0.336485
C91   C     C_1   0.500055 0.999741 0.731193 0.085693
C92   C     C_R   0.772150 0.281805 0.037413 0.337077
C93   C     C_R   0.779769 0.273895 0.537441 0.333360
C94   C     C_R   0.731364 0.785412 0.538103 0.333614
C95   C     C_R   0.219650 0.726535 0.537300 0.336084
C96   C     C_R   0.266636 0.212586 0.538032 0.333169
C97   C     C_R   0.784720 0.731161 0.538461 0.337075
C98   C     C_R   0.725923 0.219868 0.537601 0.338270
C99   C     C_R   0.213274 0.266867 0.538384 0.335555
C100  C     C_R   0.273272 0.780776 0.537464 0.336995
C101  C     C_3   0.208474 0.728110 0.918665 0.456513
C102  C     C_1   0.999880 0.499974 0.768896 0.098570
C103  C     C_3   0.252927 0.190842 0.922990 0.498569
C104  C     C_3   0.792555 0.269329 0.918620 0.482821
C105  C     C_3   0.748078 0.809805 0.922859 0.519139
C106  C     C_3   0.207991 0.262780 0.920855 0.391253
C107  C     C_3   0.272929 0.784964 0.918169 0.424328
C108  C     C_3   0.794232 0.738378 0.920706 0.322795
C109  C     C_3   0.727967 0.212855 0.918217 0.405460
C110  C     C_3   0.711898 0.224300 0.418290 0.441113
C111  C     C_3   0.750778 0.688392 0.423375 0.520278
C112  C     C_3   0.292035 0.772254 0.418540 0.465548
Cl1   Cl    Cl    0.314674 0.804788 0.084790 -0.429202
Cl2   Cl    Cl    0.710768 0.829820 0.584525 -0.419259
Cl3   Cl    Cl    0.185062 0.695483 0.584576 -0.429201
Cl4   Cl    Cl    0.284803 0.166139 0.584119 -0.416940
Cl5   Cl    Cl    0.829212 0.711467 0.584953 -0.420195
Cl6   Cl    Cl    0.695709 0.185043 0.584973 -0.430613
Cl7   Cl    Cl    0.166622 0.284367 0.584526 -0.418079
Cl8   Cl    Cl    0.304010 0.814964 0.584898 -0.430130
Cl9   Cl    Cl    0.206493 0.325999 0.085178 -0.423239
Cl10  Cl    Cl    0.682822 0.197957 0.084690 -0.428821
Cl11  Cl    Cl    0.789983 0.671119 0.084539 -0.419357
Cl12  Cl    Cl    0.325542 0.207537 0.085628 -0.422639
Cl13  Cl    Cl    0.195632 0.685235 0.085013 -0.430171
Cl14  Cl    Cl    0.671495 0.789445 0.084932 -0.420817
Cl15  Cl    Cl    0.801727 0.317256 0.084795 -0.428505
Cl16  Cl    Cl    0.814804 0.304494 0.584709 -0.430800
H1    H     H_    0.140676 0.573462 0.868705 0.385755
H2    H     H_    0.892883 0.605980 0.361718 0.374527
H3    H     H_    0.352067 0.940878 0.375019 0.383923
H4    H     H_    0.126220 0.411289 0.360331 0.380843
H5    H     H_    0.720998 0.807458 0.342197 0.386746
H6    H     H_    0.861859 0.298758 0.340369 0.385648
H7    H     H_    0.294679 0.208817 0.341356 0.390152
H8    H     H_    0.160464 0.725252 0.336961 0.386656
H9    H     H_    0.052492 0.844161 0.935065 0.423408
H10   H     H_    0.099672 0.064194 0.935168 0.405087
H11   H     H_    0.952049 0.158887 0.939789 0.421195
H12   H     H_    0.390067 0.105077 0.860382 0.374691
H13   H     H_    0.897801 0.941627 0.934471 0.406408
H14   H     H_    0.047572 0.339450 0.873909 0.410413
H15   H     H_    0.311847 0.968846 0.883325 0.423066
H16   H     H_    0.902353 0.632150 0.898343 0.383384
H17   H     H_    0.689374 0.029013 0.882756 0.424192
H18   H     H_    0.554098 0.342840 0.415973 0.429245
H19   H     H_    0.599966 0.557658 0.434446 0.405985
H20   H     H_    0.448530 0.657838 0.436649 0.424600
H21   H     H_    0.410381 0.441432 0.449645 0.403478
H22   H     H_    0.595458 0.865285 0.397386 0.387313
H23   H     H_    0.849940 0.440292 0.873975 0.382637
H24   H     H_    0.812246 0.468356 0.386176 0.428996
H25   H     H_    0.411326 0.141959 0.396487 0.388560
H26   H     H_    0.189874 0.531733 0.409397 0.442795
H27   H     H_    0.603680 0.891549 0.862618 0.373623
H28   H     H_    0.226531 0.312586 0.842265 0.386175
H29   H     H_    0.349008 0.785467 0.837989 0.384314
H30   H     H_    0.778154 0.689792 0.842055 0.387161
H31   H     H_    0.663246 0.219660 0.837279 0.383150
H32   H     H_    0.648464 0.080680 0.364686 0.385299
O1    O     O_3   0.500000 1.000000 0.000010 -0.559589
O2    O     O_R   0.500000 0.939250 0.416010 -0.589911
O3    O     O_3   0.141151 0.767700 0.351430 -0.401864
O4    O     O_2   0.112963 0.799140 0.867949 -0.167050
O5    O     O_2   0.065115 0.699590 0.906086 -0.160807
O6    O     O_3   0.092472 0.815451 0.946310 -0.510027
O7    O     O_2   0.193744 0.088528 0.873090 -0.176219
O8    O     O_2   0.244286 0.047121 0.937376 -0.218176
O9    O     O_3   0.123048 0.110939 0.940805 -0.502503
O10   O     O_2   0.889880 0.195930 0.869928 -0.168544
O11   O     O_2   0.935336 0.297113 0.907588 -0.211020
O12   O     O_3   0.907094 0.182382 0.948680 -0.512309
O13   O     O_R   0.060750 0.500000 0.416010 -0.593330
O14   O     O_2   0.802611 0.913547 0.872301 -0.177316
O15   O     O_2   0.754834 0.953360 0.937631 -0.223054
O16   O     O_3   0.877730 0.892892 0.938542 -0.496593
O17   O     O_2   0.116453 0.205462 0.863717 -0.198301
O18   O     O_2   0.064595 0.238911 0.929985 -0.221506
O19   O     O_3   0.099911 0.339648 0.878798 -0.516936
O20   O     O_2   0.229396 0.865218 0.853398 -0.227391
O21   O     O_2   0.196085 0.909173 0.921774 -0.205385
O22   O     O_3   0.326875 0.923906 0.896890 -0.480137
O23   O     O_2   0.886486 0.800657 0.865320 -0.160929
O24   O     O_R   0.500000 0.060750 0.416010 -0.596517
O25   O     O_2   0.937584 0.764423 0.931039 -0.206604
O26   O     O_3   0.908082 0.667983 0.876565 -0.482729
O27   O     O_2   0.773818 0.130680 0.854629 -0.230056
O28   O     O_2   0.804065 0.088703 0.923766 -0.200404
O29   O     O_3   0.674441 0.073216 0.897174 -0.471549
O30   O     O_2   0.622910 0.276031 0.357961 -0.185923
O31   O     O_2   0.569755 0.191680 0.404826 -0.178031
O32   O     O_3   0.592410 0.319058 0.431968 -0.477482
O33   O     O_2   0.696948 0.583199 0.373615 -0.177591
O34   O     O_2   0.743790 0.545125 0.439466 -0.227917
O35   O     O_R   0.500000 0.939250 0.084010 -0.599109
O36   O     O_3   0.620971 0.605759 0.439394 -0.496390
O37   O     O_2   0.388479 0.699372 0.369022 -0.164855
O38   O     O_2   0.434783 0.801690 0.405365 -0.155888
O39   O     O_3   0.408944 0.687469 0.447594 -0.511789
O40   O     O_2   0.319172 0.431642 0.384885 -0.151295
O41   O     O_2   0.267029 0.457583 0.451678 -0.267956
O42   O     O_3   0.387513 0.393456 0.450854 -0.494179
O43   O     O_2   0.611760 0.695434 0.366599 -0.159677
O44   O     O_2   0.561237 0.735096 0.431833 -0.212161
O45   O     O_3   0.591131 0.828744 0.375878 -0.479210
O46   O     O_R   0.060750 0.500000 0.084010 -0.598428
O47   O     O_2   0.725512 0.365563 0.354857 -0.210786
O48   O     O_2   0.700593 0.408221 0.424572 -0.209402
O49   O     O_3   0.828816 0.420690 0.395353 -0.495857
O50   O     O_2   0.402285 0.316522 0.374109 -0.178070
O51   O     O_2   0.446135 0.265987 0.438419 -0.207578
O52   O     O_3   0.419327 0.181719 0.377300 -0.474441
O53   O     O_2   0.271562 0.635345 0.352711 -0.191713
O54   O     O_2   0.306319 0.592397 0.420909 -0.217539
O55   O     O_3   0.174788 0.576652 0.396263 -0.478975
O56   O     O_R   0.500000 0.060750 0.084010 -0.599327
O57   O     O_R   0.939250 0.500000 0.084010 -0.597896
O58   O     O_R   0.000000 0.439250 0.584010 -0.599256
O59   O     O_R   0.560750 1.000000 0.584010 -0.598088
O60   O     O_R   0.000000 0.560750 0.584010 -0.598481
O61   O     O_3   0.000000 0.500000 0.000010 -0.554144
O62   O     O_R   0.439250 1.000000 0.584010 -0.597998
O63   O     O_R   0.646150 0.914530 0.977990 -0.582251
O64   O     O_R   0.085470 0.646150 0.977990 -0.569766
O65   O     O_R   0.353850 0.085470 0.977990 -0.580358
O66   O     O_R   0.914530 0.353850 0.977990 -0.569391
O67   O     O_R   0.646150 0.085470 0.977990 -0.574232
O68   O     O_R   0.085470 0.353850 0.977990 -0.584859
O69   O     O_R   0.353850 0.914530 0.977990 -0.574859
O70   O     O_R   0.914530 0.646150 0.977990 -0.623319
O71   O     O_R   0.146150 0.414530 0.477990 -0.591932
O72   O     O_3   0.000000 0.500000 0.500010 -0.554758
O73   O     O_R   0.585470 0.146150 0.477990 -0.574635
O74   O     O_R   0.853850 0.585470 0.477990 -0.583169
O75   O     O_R   0.414530 0.853850 0.477990 -0.568254
O76   O     O_R   0.146150 0.585470 0.477990 -0.614802
O77   O     O_R   0.585470 0.853850 0.477990 -0.622182
O78   O     O_R   0.853850 0.414530 0.477990 -0.575130
O79   O     O_R   0.414530 0.146150 0.477990 -0.618732
O80   O     O_R   0.414550 0.146120 0.022030 -0.595014
O81   O     O_R   0.853880 0.414550 0.022030 -0.600714
O82   O     O_R   0.585450 0.853880 0.022030 -0.593619
O83   O     O_3   0.500000 1.000000 0.500010 -0.552078
O84   O     O_R   0.146120 0.585450 0.022030 -0.599942
O85   O     O_R   0.414550 0.853880 0.022030 -0.596666
O86   O     O_R   0.853880 0.585450 0.022030 -0.589276
O87   O     O_R   0.585450 0.146120 0.022030 -0.596966
O88   O     O_R   0.146120 0.414550 0.022030 -0.596381
O89   O     O_R   0.914550 0.646120 0.522030 -0.593675
O90   O     O_R   0.353880 0.914550 0.522030 -0.600442
O91   O     O_R   0.085450 0.353880 0.522030 -0.593919
O92   O     O_R   0.646120 0.085450 0.522030 -0.596219
O93   O     O_R   0.914550 0.353880 0.522030 -0.595843
O94   O     O_R   0.439250 0.000000 0.916010 -0.565965
O95   O     O_R   0.353880 0.085450 0.522030 -0.591345
O96   O     O_R   0.085450 0.646120 0.522030 -0.592180
O97   O     O_R   0.646120 0.914550 0.522030 -0.587959
O98   O     O_2   0.241284 0.654605 0.850029 -0.206395
O99   O     O_2   0.283558 0.601218 0.914216 -0.164817
O100  O     O_3   0.149997 0.589660 0.897096 -0.528113
O101  O     O_2   0.333524 0.228626 0.856376 -0.226262
O102  O     O_2   0.398206 0.216802 0.921353 -0.244742
O103  O     O_3   0.356223 0.102157 0.883722 -0.517179
O104  O     O_2   0.769123 0.339004 0.847648 -0.213767
O105  O     O_R   0.000000 0.439250 0.916010 -0.577108
O106  O     O_2   0.715268 0.394177 0.908520 -0.165565
O107  O     O_3   0.850808 0.408184 0.898115 -0.543543
O108  O     O_2   0.666893 0.769102 0.856877 -0.217310
O109  O     O_2   0.602965 0.782510 0.922042 -0.251035
O110  O     O_3   0.642923 0.896085 0.882937 -0.517145
O111  O     O_2   0.213428 0.407968 0.920306 -0.243106
O112  O     O_2   0.328862 0.347336 0.921739 -0.163536
O113  O     O_3   0.258166 0.350859 0.853153 -0.388135
O114  O     O_2   0.415955 0.814328 0.909986 -0.277384
O115  O     O_2   0.385639 0.690924 0.924419 -0.164678
O116  O     O_R   0.560750 0.000000 0.916010 -0.566391
O117  O     O_3   0.361936 0.739385 0.851055 -0.406353
O118  O     O_2   0.786187 0.592284 0.921454 -0.317845
O119  O     O_2   0.672452 0.654511 0.918507 -0.139614
O120  O     O_3   0.749829 0.648611 0.852417 -0.400186
O121  O     O_2   0.585430 0.183139 0.907189 -0.265981
O122  O     O_2   0.614581 0.305646 0.924735 -0.169683
O123  O     O_3   0.641796 0.262111 0.850718 -0.403826
O124  O     O_2   0.766286 0.142429 0.356986 -0.183884
O125  O     O_2   0.783277 0.096536 0.426611 -0.180580
O126  O     O_3   0.658381 0.084249 0.394418 -0.525555
O127  O     O_R   0.000000 0.560750 0.916010 -0.592515
O128  O     O_2   0.831935 0.729302 0.357275 -0.217773
O129  O     O_2   0.896206 0.714260 0.422110 -0.253663
O130  O     O_3   0.854487 0.601664 0.382582 -0.517232
O131  O     O_2   0.269436 0.844154 0.348299 -0.214034
O132  O     O_2   0.212125 0.895838 0.409087 -0.160850
O133  O     O_3   0.347761 0.913057 0.400730 -0.542193
O134  O     O_2   0.184241 0.285225 0.355071 -0.219848
O135  O     O_2   0.112012 0.300412 0.417058 -0.260910
O136  O     O_3   0.164498 0.412490 0.381383 -0.501724
O137  O     O_2   0.711723 0.905731 0.421166 -0.297173
O138  O     O_R   0.939250 0.500000 0.416010 -0.571464
O139  O     O_2   0.825831 0.843835 0.418899 -0.142606
O140  O     O_3   0.749227 0.848747 0.352500 -0.395864
O141  O     O_2   0.918328 0.312994 0.414903 -0.287157
O142  O     O_2   0.887499 0.187551 0.421165 -0.152813
O143  O     O_3   0.867945 0.249305 0.350810 -0.413797
O144  O     O_2   0.292615 0.101599 0.417700 -0.312520
O145  O     O_2   0.180611 0.166705 0.411708 -0.143144
O146  O     O_3   0.267143 0.165451 0.349194 -0.404877
O147  O     O_2   0.085504 0.684559 0.406174 -0.263616
O148  O     O_2   0.113216 0.806085 0.426331 -0.172930
S1    S     S_3+6 0.223624 0.641997 0.894356 0.140467
S2    S     S_3+6 0.835796 0.686263 0.396009 0.119223
S3    S     S_3+6 0.277434 0.857719 0.393433 0.135220
S4    S     S_3+6 0.177223 0.326559 0.394270 0.118587
S5    S     S_3+6 0.749545 0.841476 0.403903 0.137730
S6    S     S_3+6 0.864671 0.256921 0.402059 0.151473
S7    S     S_3+6 0.258964 0.168204 0.400545 0.129100
S8    S     S_3+6 0.139307 0.744157 0.401060 0.153034
S9    S     S_3+6 0.117766 0.760498 0.908089 0.164089
S10   S     S_3+6 0.203549 0.106813 0.917560 0.143308
S11   S     S_3+6 0.883210 0.235939 0.909558 0.153335
S12   S     S_3+6 0.337776 0.187468 0.895744 0.117521
S13   S     S_3+6 0.795777 0.894819 0.916888 0.142918
S14   S     S_3+6 0.119432 0.258628 0.898214 0.123174
S15   S     S_3+6 0.253190 0.872364 0.897133 0.125718
S16   S     S_3+6 0.883755 0.745308 0.898588 0.138449
S17   S     S_3+6 0.748054 0.124821 0.898022 0.129924
S18   S     S_3+6 0.622442 0.252405 0.401895 0.157456
S19   S     S_3+6 0.703201 0.603161 0.418063 0.141877
S20   S     S_3+6 0.383049 0.740127 0.408469 0.170034
S21   S     S_3+6 0.307722 0.403043 0.427421 0.137717
S22   S     S_3+6 0.615022 0.752328 0.399025 0.138289
S23   S     S_3+6 0.779087 0.354064 0.892489 0.132954
S24   S     S_3+6 0.754052 0.370732 0.397713 0.122551
S25   S     S_3+6 0.394928 0.255068 0.403451 0.129252
S26   S     S_3+6 0.248268 0.628382 0.396543 0.136396
S27   S     S_3+6 0.662783 0.811548 0.895844 0.118983
S28   S     S_3+6 0.254038 0.344198 0.904529 0.171197
S29   S     S_3+6 0.361613 0.756370 0.901566 0.150090
S30   S     S_3+6 0.748924 0.656495 0.903798 0.130565
S31   S     S_3+6 0.639869 0.241779 0.900803 0.150375
S32   S     S_3+6 0.732667 0.135521 0.398647 0.143841
Zn1   Zn    Zn3+2 0.500000 0.913220 0.031480 1.118822
Zn2   Zn    Zn3+2 0.000000 0.586740 0.968550 1.130358
Zn3   Zn    Zn3+2 0.413260 1.000000 0.968550 1.149649
Zn4   Zn    Zn3+2 1.000000 0.413260 0.968550 1.145137
Zn5   Zn    Zn3+2 0.086740 0.500000 0.468550 1.119744
Zn6   Zn    Zn3+2 0.500000 0.086740 0.468550 1.128183
Zn7   Zn    Zn3+2 0.913260 0.500000 0.468550 1.146254
Zn8   Zn    Zn3+2 0.500000 0.913260 0.468550 1.130874
Zn9   Zn    Zn3+2 0.086780 0.500000 0.031480 1.120883
Zn10  Zn    Zn3+2 0.500000 0.086780 0.031480 1.118327
Zn11  Zn    Zn3+2 0.913220 0.500000 0.031480 1.114545
Zn12  Zn    Zn3+2 0.000000 0.413220 0.531480 1.120405
Zn13  Zn    Zn3+2 0.586780 1.000000 0.531480 1.121134
Zn14  Zn    Zn3+2 0.000000 0.586780 0.531480 1.119465
Zn15  Zn    Zn3+2 0.413220 1.000000 0.531480 1.116375
Zn16  Zn    Zn3+2 0.586740 1.000000 0.968550 1.149269

loop_
_geom_bond_atom_site_label_1
_geom_bond_atom_site_label_2
_ccdc_geom_bond_type
C101  C107  S    
H24   O49   S    
O83   Zn15  S    
C108  S16   S    
C28   O46   A    
C21   C26   T    
H1    O100  S    
C30   O62   A    
C89   Cl13  S    
C28   O57   A    
C55   C105  S    
C35   O67   A    
O76   Zn5   S    
C44   C77   S    
C33   O65   A    
C44   O76   A    
O44   S22   D    
O124  S32   D    
C96   C99   A    
O64   Zn2   S    
H3    O133  S    
C74   C92   A    
C76   C94   A    
C6    S7    S    
O15   S13   D    
C78   C96   A    
H12   O103  S    
C85   Cl9   S    
O42   S21   S    
C110  S18   S    
O1    Zn16  S    
O74   Zn7   S    
O11   S11   D    
C36   O13   A    
C106  S14   S    
O127  Zn2   S    
H9    O6    S    
C32   O64   A    
C79   C97   A    
O141  S6    D    
C67   C85   A    
C50   C53   A    
O49   S24   S    
C40   O91   A    
C44   O96   A    
C94   C97   A    
C38   O85   A    
C17   C21   S    
H4    O136  S    
C19   C23   T    
C107  S29   S    
O16   S13   S    
O111  S28   D    
O92   Zn13  S    
C90   Cl14  S    
O117  S29   S    
C60   C65   A    
O83   Zn13  S    
C83   C100  A    
C7    S26   S    
C27   O56   A    
C14   C69   S    
O56   Zn10  S    
O35   Zn1   S    
C53   C71   A    
C48   O79   A    
C1    O94   A    
C75   C93   A    
C103  S12   S    
C13   C20   S    
C2    C19   S    
O70   Zn2   S    
O19   S14   S    
O37   S20   D    
O123  S31   S    
O143  S6    S    
O95   Zn15  S    
O20   S15   D    
C41   O73   A    
O27   S17   D    
C107  S15   S    
O50   S25   D    
O126  S32   S    
O18   S14   D    
C45   O77   A    
O103  S12   S    
O94   Zn3   S    
C33   C71   S    
C99   Cl7   S    
C71   C88   A    
C16   C91   S    
C96   Cl4   S    
O61   Zn9   S    
C9    C28   S    
O109  S27   D    
C17   C69   T    
C43   C83   S    
C3    S4    S    
C54   C101  S    
C88   Cl12  S    
C3    C6    S    
O39   S20   S    
O72   Zn7   S    
C3    C64   S    
O28   S17   D    
O118  S30   D    
C6    C61   S    
C73   C90   A    
O21   S15   D    
O83   Zn8   S    
C5    C110  S    
C7    S8    S    
O114  S29   D    
C7    C112  S    
O138  Zn7   S    
C18   C102  S    
O120  S30   S    
O81   Zn11  S    
C47   O2    A    
C36   O138  A    
C37   O68   A    
C62   C111  S    
C15   C80   S    
C42   O89   A    
C22   C25   S    
C50   C67   A    
C46   O93   A    
O1    Zn10  S    
O23   S16   D    
C42   C79   S    
O51   S25   D    
C103  S10   S    
C32   O84   A    
H10   O9    S    
C97   Cl5   S    
C70   C87   A    
O52   S25   S    
C46   C75   S    
O43   S22   D    
C112  S20   S    
C98   Cl6   S    
C38   O69   A    
O72   Zn5   S    
C49   C66   A    
O131  S3    D    
H15   O22   S    
C40   C82   S    
O97   Zn13  S    
O1    Zn1   S    
H29   O117  S    
O104  S23   D    
O101  S12   D    
C80   C102  T    
C65   C112  S    
O88   Zn9   S    
C39   O86   A    
O13   Zn5   S    
H30   O120  S    
O135  S4    D    
C8    C12   T    
O54   S26   D    
H19   O36   S    
O61   Zn11  S    
C48   O95   A    
O85   Zn1   S    
C29   O58   A    
C4    C111  S    
C112  S3    S    
O12   S11   S    
C42   O74   A    
H6    O143  S    
C104  S23   S    
H27   O110  S    
C50   C106  S    
O93   Zn12  S    
O7    S10   D    
O63   Zn16  S    
O68   Zn4   S    
O61   Zn2   S    
C18   C22   T    
C104  S11   S    
C57   C63   A    
C4    S5    S    
O57   Zn11  S    
H25   O52   S    
O83   Zn6   S    
C4    S22   S    
C57   C75   A    
C93   Cl16  S    
O77   Zn8   S    
C43   O75   A    
C87   Cl11  S    
O69   Zn3   S    
C37   C67   S    
H5    O140  S    
O53   S26   D    
C2    C91   T    
O25   S16   D    
O4    S9    D    
C55   C73   A    
C51   C109  S    
O47   S24   D    
O17   S14   D    
C6    S25   S    
H21   O42   S    
O72   Zn12  S    
O87   Zn10  S    
H7    O146  S    
C92   Cl15  S    
O58   Zn12  S    
O122  S31   D    
O119  S30   D    
C82   C99   A    
O1    Zn3   S    
C32   C72   S    
O71   Zn5   S    
C45   C76   S    
O146  S7    S    
C34   O66   A    
O105  Zn4   S    
C85   C88   A    
C81   C98   A    
O84   Zn9   S    
C1    O116  A    
C31   O82   A    
C29   O60   A    
C11   C30   S    
C86   Cl10  S    
H13   O16   S    
H31   O123  S    
O91   Zn12  S    
C109  S17   S    
C52   C55   A    
O142  S6    D    
O61   Zn4   S    
C105  S13   S    
C101  S9    S    
C56   C74   A    
O46   Zn9   S    
O75   Zn8   S    
C33   O80   A    
C56   C104  S    
O125  S32   D    
C95   C100  A    
H26   O55   S    
O89   Zn14  S    
O112  S28   D    
C25   O127  A    
C61   C64   A    
C108  S30   S    
C9    C14   T    
O55   S26   S    
C11   C16   T    
O140  S5    S    
O6    S9    S    
C41   C81   S    
O45   S22   S    
H11   O12   S    
O110  S27   S    
C40   O71   A    
O72   Zn14  S    
O78   Zn7   S    
H28   O113  S    
O9    S10   S    
C39   O70   A    
H23   O107  S    
O130  S2    S    
C27   O35   A    
C7    C60   S    
O144  S7    D    
O22   S15   S    
H17   O29   S    
C47   O24   A    
O98   S1    D    
H20   O39   S    
C45   O97   A    
O79   Zn6   S    
O34   S19   D    
O145  S7    D    
O31   S18   D    
C5    C57   S    
O132  S3    D    
O59   Zn13  S    
C10   C29   S    
O48   S24   D    
C53   C103  S    
C41   O92   A    
O26   S16   S    
H32   O126  S    
C31   C73   S    
O133  S3    S    
O134  S4    D    
O73   Zn6   S    
O65   Zn3   S    
C87   C90   A    
O29   S17   S    
O121  S31   D    
C8    C27   S    
C86   C92   A    
C30   O59   A    
H8    O3    S    
O5    S9    D    
C84   Cl1   S    
O100  S1    S    
C68   C86   A    
C94   Cl2   S    
C49   C107  S    
H16   O26   S    
C37   O88   A    
O62   Zn15  S    
C63   C81   A    
O36   S19   S    
C10   C15   T    
C104  C109  S    
O2    Zn8   S    
C65   C83   A    
O102  S12   D    
C49   C54   A    
O108  S27   D    
C51   C56   A    
C48   C78   S    
O66   Zn4   S    
O38   S20   D    
O148  S8    D    
C109  S31   S    
O10   S11   D    
C38   C66   S    
C95   Cl3   S    
O136  S4    S    
C100  Cl8   S    
C12   C58   S    
C5    S24   S    
O60   Zn14  S    
O82   Zn1   S    
H18   O32   S    
O128  S2    D    
C111  S2    S    
C106  S28   S    
C3    S21   S    
C105  C108  S    
C60   C77   A    
C20   C24   T    
C62   C79   A    
O8    S10   D    
O30   S18   D    
O96   Zn14  S    
C13   C58   T    
C77   C95   A    
O113  S28   S    
O32   S18   S    
O106  S23   D    
H14   O19   S    
O116  Zn16  S    
C61   C78   A    
H2    O130  S    
O24   Zn6   S    
C101  S1    S    
C64   C82   A    
C5    S6    S    
C31   O63   A    
C34   C74   S    
C1    C23   S    
C84   C89   A    
O14   S13   D    
C26   C36   S    
O129  S2    D    
C59   C62   A    
O86   Zn11  S    
O33   S19   D    
C24   C47   S    
O80   Zn10  S    
H22   O45   S    
O3    S8    S    
C25   O105  A    
C105  S27   S    
C35   O87   A    
O67   Zn16  S    
C63   C110  S    
O137  S5    D    
O107  S23   S    
C72   C89   A    
O99   S1    D    
C43   O90   A    
C35   C68   S    
O90   Zn15  S    
C59   C76   A    
C4    C59   S    
C39   C70   S    
C103  C106  S    
C51   C68   A    
C46   O78   A    
C52   C70   A    
O139  S5    D    
C66   C84   A    
C54   C72   A    
C52   C108  S    
O147  S8    D    
C111  S19   S    
O115  S29   D    
O41   S21   D    
C93   C98   A    
C110  S32   S    
O40   S21   D    
C34   O81   A    
