data_mof_unit_690.cif
_audit_creation_date              2013-03-05T16:36:16-0500
_audit_creation_method            fapswitch 2.2
_symmetry_space_group_name_H-M    P1
_symmetry_Int_Tables_number       1
_space_group_crystal_system       triclinic
_cell_length_a                    27.863242
_cell_length_b                    9.083386
_cell_length_c                    7.774697
_cell_angle_alpha                 89.981619
_cell_angle_beta                  89.999971
_cell_angle_gamma                 90.000088
_cell_volume                      1967.71803905

loop_
_atom_site_label
_atom_site_type_symbol
_atom_site_description
_atom_site_fract_x
_atom_site_fract_y
_atom_site_fract_z
_atom_type_partial_charge
O1    O     O_R   0.500000 0.288390 0.642760 -0.585015
O2    O     O_R   0.500000 0.711610 0.357240 -0.585015
O3    O     O_R   0.500000 0.711610 0.642760 -0.578086
O4    O     O_R   0.500000 0.288390 0.357240 -0.578087
C1    C     C_R   0.500000 0.219996 0.500016 0.826426
C2    C     C_R   0.500000 0.780004 0.499984 0.826427
O5    O     O_R   0.430260 0.500000 0.642770 -0.530971
O6    O     O_R   0.569740 0.500000 0.357230 -0.531068
O7    O     O_R   0.569740 0.500000 0.642770 -0.531068
O8    O     O_R   0.430260 0.500000 0.357230 -0.530970
C3    C     C_R   0.407096 0.500000 0.500000 0.950466
C4    C     C_R   0.592900 0.500000 0.500000 0.951106
Cu1   Cu    Cu3+1 0.500000 0.500000 0.669080 1.124094
Cu2   Cu    Cu3+1 0.500000 0.500000 0.330920 1.124094
C5    C     C_R   0.177806 0.370358 0.523797 0.673091
C6    C     C_R   0.822178 0.629663 0.476542 0.673222
C7    C     C_R   0.177806 0.629626 0.476206 0.673091
C8    C     C_R   0.822178 0.370311 0.523463 0.673228
O9    O     O_2   0.202692 0.244410 0.546965 -0.478573
O10   O     O_2   0.797294 0.755650 0.453672 -0.478106
O11   O     O_2   0.202691 0.755575 0.453038 -0.478574
O12   O     O_2   0.797294 0.244323 0.546333 -0.478103
N1    N     N_R   0.201773 0.499992 0.500002 -0.398106
N2    N     N_R   0.798211 0.499986 0.500003 -0.398228
C9    C     C_R   0.278215 0.525503 0.652966 0.574626
C10   C     C_R   0.721766 0.472647 0.347441 0.574985
C11   C     C_R   0.278215 0.474487 0.347037 0.574624
C12   C     C_R   0.721766 0.527331 0.652563 0.574985
C13   C     C_R   0.328285 0.525563 0.653611 0.491552
C14   C     C_R   0.671696 0.472612 0.346796 0.491746
C15   C     C_R   0.328285 0.474432 0.346391 0.491553
C16   C     C_R   0.671696 0.527377 0.653205 0.491747
C17   C     C_R   0.253157 0.499993 0.500002 -0.111489
C18   C     C_R   0.746826 0.499986 0.500003 -0.111198
C19   C     C_R   0.101801 0.499991 0.500002 -0.041396
C20   C     C_R   0.898184 0.499988 0.500002 -0.041441
C21   C     C_R   0.127428 0.367928 0.524323 -0.050886
C22   C     C_R   0.872556 0.632089 0.475992 -0.050973
C23   C     C_R   0.127428 0.632054 0.475680 -0.050885
C24   C     C_R   0.872556 0.367886 0.524013 -0.050976
C25   C     C_R   0.102414 0.236605 0.548742 -0.123454
C26   C     C_R   0.897570 0.763447 0.451867 -0.123251
C27   C     C_R   0.102414 0.763377 0.451260 -0.123455
C28   C     C_R   0.897571 0.236528 0.548138 -0.123252
C29   C     C_R   0.354006 0.499998 0.500000 -0.524314
C30   C     C_R   0.645982 0.499997 0.500000 -0.523666
H1    H     H_    0.121292 0.133617 0.568005 0.188423
H2    H     H_    0.878693 0.866470 0.432896 0.188356
H3    H     H_    0.121291 0.866365 0.431996 0.188422
H4    H     H_    0.878693 0.133505 0.567110 0.188355
C31   C     C_R   0.974458 0.365441 0.524789 0.044390
C32   C     C_R   0.025526 0.634522 0.475092 0.044397
C33   C     C_R   0.974458 0.634536 0.475214 0.044390
C34   C     C_R   0.025527 0.365457 0.524911 0.044396
C35   C     C_R   0.949265 0.499988 0.500002 0.079890
C36   C     C_R   0.050719 0.499990 0.500001 0.079887
C37   C     C_R   0.947374 0.234967 0.548695 -0.194476
C38   C     C_R   0.052610 0.764948 0.450785 -0.194580
C39   C     C_R   0.947374 0.765010 0.451309 -0.194477
C40   C     C_R   0.052610 0.235031 0.549216 -0.194580
H5    H     H_    0.963290 0.128527 0.568563 0.130476
H6    H     H_    0.036695 0.871346 0.430550 0.130644
H7    H     H_    0.963289 0.871451 0.431443 0.130475
H8    H     H_    0.036696 0.128633 0.569450 0.130644
C41   C     C_1   0.500000 0.065383 0.500023 -0.115182
C42   C     C_1   0.500000 0.934617 0.499977 -0.115181
N3    N     N_1   0.500000 0.500000 0.076820 0.008674
N4    N     N_1   0.500000 0.500000 0.923180 0.008674
F1    F     F_    0.351333 0.447731 0.195702 -0.520488
F2    F     F_    0.648636 0.555936 0.803433 -0.521745
F3    F     F_    0.351333 0.552270 0.804297 -0.520489
F4    F     F_    0.648636 0.444060 0.196567 -0.521745
F5    F     F_    0.253884 0.449470 0.198649 -0.521518
F6    F     F_    0.746095 0.554100 0.800563 -0.522485
F7    F     F_    0.253883 0.550520 0.801355 -0.521517
F8    F     F_    0.746095 0.445873 0.199442 -0.522485

loop_
_geom_bond_atom_site_label_1
_geom_bond_atom_site_label_2
_geom_bond_distance
_ccdc_geom_bond_type
C38   H6    1.074859 S    
C19   C23   1.408723 A    
O3    C2    1.271891 A    
C12   F6    1.357510 S    
C33   C39   1.417202 A    
C34   C40   1.417243 A    
C11   C17   1.398449 A    
O5    C3    1.284001 A    
C7    N1    1.366226 A    
C2    C42   1.404407 S    
O1    C1    1.272017 A    
C19   C21   1.408723 A    
C22   C26   1.394450 A    
C9    C13   1.395127 A    
C7    C23   1.403871 A    
C8    C24   1.403874 A    
C5    C21   1.403871 A    
C20   C24   1.408696 A    
O7    Cu1   1.953916 S    
C27   C38   1.387774 A    
C10   C18   1.398666 A    
N1    C17   1.431730 S    
C10   F8    1.357512 S    
Cu2   N3    1.975550 S    
C31   C37   1.417202 A    
C24   C28   1.394450 A    
O3    Cu1   1.932932 S    
C6    O10   1.349764 S    
C5    N1    1.366226 A    
C12   C18   1.398667 A    
C6    N2    1.366216 A    
Cu1   Cu2   2.629092 S    
O4    Cu2   1.932933 S    
O2    C2    1.272017 A    
C33   C35   1.422448 A    
C23   C27   1.394477 A    
C34   C36   1.422465 A    
C11   C15   1.395127 A    
N3    N4    1.194505 T    
C12   C16   1.395130 A    
C4    C30   1.479042 S    
O8    Cu2   1.953919 S    
C27   H3    1.083567 S    
C16   F2    1.358121 S    
C7    O11   1.349784 S    
C13   C29   1.412088 A    
C9    F7    1.357349 S    
C5    O9    1.349784 S    
O5    Cu1   1.953919 S    
C28   C37   1.387775 A    
O6    C4    1.283943 A    
C25   H1    1.083567 S    
C26   H2    1.083533 S    
C32   C38   1.417242 A    
C1    C41   1.404407 S    
C10   C14   1.395130 A    
C8    N2    1.366214 A    
C3    C29   1.479268 S    
O1    Cu1   1.933063 S    
C32   C33   1.422934 A    
C28   H4    1.083531 S    
O6    Cu2   1.953916 S    
C19   C36   1.423296 A    
C8    O12   1.349763 S    
C16   C30   1.412144 A    
C14   C30   1.412147 A    
C25   C40   1.387774 A    
O4    C1    1.271891 A    
C26   C39   1.387772 A    
C14   F4    1.358118 S    
C37   H5    1.074804 S    
C39   H7    1.074806 S    
C40   H8    1.074859 S    
C31   C34   1.422932 A    
C20   C22   1.408694 A    
C20   C35   1.423302 A    
C31   C35   1.422448 A    
C21   C25   1.394479 A    
O2    Cu2   1.933062 S    
O7    C4    1.283942 A    
N2    C18   1.431755 S    
O8    C3    1.284001 A    
C15   F1    1.357931 S    
C41   C42   1.187797 T    
C15   C29   1.412085 A    
C6    C22   1.403874 A    
C11   F5    1.357345 S    
C32   C36   1.422465 A    
C9    C17   1.398447 A    
C13   F3    1.357927 S    
Cu1   N4    1.975550 S    
