data_mof_unit_3083.cif
_audit_creation_date              2013-03-05T16:41:36-0500
_audit_creation_method            fapswitch 2.2
_symmetry_space_group_name_H-M    P1
_symmetry_Int_Tables_number       1
_space_group_crystal_system       triclinic
_cell_length_a                    12.841599
_cell_length_b                    10.660206
_cell_length_c                    9.86518
_cell_angle_alpha                 90.039949
_cell_angle_beta                  97.240701
_cell_angle_gamma                 89.731155
_cell_volume                      1339.70053841

loop_
_atom_site_label
_atom_site_type_symbol
_atom_site_description
_atom_site_fract_x
_atom_site_fract_y
_atom_site_fract_z
_atom_type_partial_charge
O1    O     O_R   0.500010 0.316790 0.614690 -0.625896
O2    O     O_R   0.500000 0.316760 0.385350 -0.599181
C1    C     C_R   0.506865 0.259847 0.500719 0.881313
O3    O     O_R   0.346360 0.499990 0.595720 -0.584929
O4    O     O_R   0.346350 0.499960 0.366370 -0.620352
C2    C     C_R   0.298278 0.502203 0.473135 0.949261
Zn1   Zn    Zn3+2 0.500010 0.500020 0.653130 0.973638
Zn2   Zn    Zn3+2 0.499990 0.499980 0.346870 0.956729
O5    O     O_R   0.500000 0.683240 0.614650 -0.602214
O6    O     O_R   0.499990 0.683210 0.385310 -0.621399
O7    O     O_R   0.653650 0.500040 0.633630 -0.634984
O8    O     O_R   0.653640 0.500010 0.404280 -0.635784
C3    C     C_R   0.504986 0.740042 0.500939 0.932162
C4    C     C_R   0.701577 0.500090 0.526963 0.859242
C5    C     C_R   0.813113 0.507608 0.544048 -0.027689
C6    C     C_R   0.185966 0.502385 0.456618 -0.160378
C7    C     C_R   0.026051 0.407259 0.354196 -0.201327
C8    C     C_R   0.132699 0.424569 0.357319 -0.248802
C9    C     C_R   0.133144 0.568361 0.550772 0.242150
C10   C     C_R   0.026274 0.547514 0.551411 0.054229
C11   C     C_R   0.973127 0.466317 0.451819 0.145198
C12   C     C_R   0.866884 0.447063 0.449227 -0.256554
C13   C     C_R   0.864414 0.585174 0.644929 -0.229292
C14   C     C_R   0.970731 0.606532 0.647727 -0.154219
H1    H     H_    0.825266 0.386999 0.371693 0.138944
H2    H     H_    0.821398 0.633601 0.717142 0.151189
H3    H     H_    0.985465 0.345592 0.277754 0.149170
H4    H     H_    0.007829 0.670536 0.723872 0.196621
H5    H     H_    0.174375 0.373057 0.286131 0.166851
C15   C     C_R   0.532114 0.063830 0.626717 0.099403
C16   C     C_R   0.530879 0.128539 0.503822 -0.125551
C17   C     C_R   0.555128 0.063102 0.386420 0.095738
C18   C     C_R   0.552008 0.932437 0.388136 -0.253493
H6    H     H_    0.561634 0.880528 0.296018 0.170037
C19   C     C_R   0.527718 0.870560 0.505349 -0.126254
C20   C     C_R   0.531378 0.936005 0.627754 0.104183
C21   C     C_3   0.462187 0.930503 0.738515 -0.409823
C22   C     C_3   0.462288 0.072634 0.736726 -0.486855
H7    H     H_    0.383939 0.889918 0.704095 0.266044
H8    H     H_    0.503403 0.890097 0.834600 0.197996
H9    H     H_    0.384062 0.113725 0.699893 0.211139
H10   H     H_    0.503173 0.114219 0.832187 0.204593
C23   C     C_R   0.408780 0.483335 0.056355 0.237084
N1    N     N_R   0.499290 0.499140 0.142710 -0.112926
C24   C     C_R   0.588319 0.527972 0.086281 -0.142120
H11   H     H_    0.660146 0.548878 0.151625 0.161239
C25   C     C_R   0.588315 0.527946 0.942439 -0.158240
H12   H     H_    0.660006 0.548641 0.900145 0.155496
N2    N     N_R   0.499290 0.499180 0.857070 -0.120360
C26   C     C_R   0.408784 0.483334 0.913877 0.323095
C27   C     C_3   0.338999 0.371646 0.896850 -0.500559
C28   C     C_3   0.338915 0.371782 0.050721 -0.521150
H13   H     H_    0.260988 0.394031 0.839562 0.237055
H14   H     H_    0.378704 0.288489 0.859014 0.201133
H15   H     H_    0.260879 0.395144 0.081574 0.212010
H16   H     H_    0.378262 0.288301 0.102239 0.227601
N3    N     N_R   0.187819 0.658608 0.641434 0.197415
O9    O     O_R   0.234453 0.752736 0.591283 -0.433341
O10   O     O_R   0.200276 0.639987 0.772844 -0.435339
N4    N     N_3   0.575696 0.127848 0.264724 -0.423776
H17   H     H_    0.647888 0.173062 0.287303 0.183379
H18   H     H_    0.584399 0.064362 0.186031 0.171447

loop_
_geom_bond_atom_site_label_1
_geom_bond_atom_site_label_2
_geom_bond_distance
_ccdc_geom_bond_type
Zn2   N1    2.012977 S    
O4    Zn2   2.006328 S    
C1    C16   1.431439 S    
C23   N1    1.362752 A    
C23   C26   1.405571 A    
C3    C19   1.422493 S    
C21   C22   1.515266 S    
C15   C20   1.362777 A    
C16   C17   1.418712 A    
C28   H15   1.110547 S    
Zn2   O8    1.982989 S    
C13   C14   1.382026 A    
C27   H14   1.108335 S    
C17   C18   1.393859 A    
C9    C10   1.392079 A    
C5    C13   1.395298 A    
C7    C8    1.379247 A    
C25   N2    1.367659 A    
C8    H5    1.082877 S    
O1    Zn1   1.989482 S    
C24   H11   1.080668 S    
C9    N3    1.437118 S    
N4    H18   1.045762 S    
Zn1   O7    2.006327 S    
Zn1   N2    2.013117 S    
N3    O9    1.300498 A    
O4    C2    1.286367 A    
C28   H16   1.112316 S    
O3    Zn1   1.982989 S    
O3    C2    1.286835 A    
C20   C21   1.494046 S    
C18   C19   1.401213 A    
O8    C4    1.286835 A    
C22   H10   1.111763 S    
C21   H8    1.111815 S    
O2    C1    1.283112 A    
C24   C25   1.419017 A    
C6    C9    1.403908 A    
C15   C16   1.393624 A    
C21   H7    1.109064 S    
O7    C4    1.284277 A    
C7    C11   1.394956 A    
C23   C28   1.489811 S    
N3    O10   1.301297 A    
C17   N4    1.438845 S    
C27   H13   1.111369 S    
C2    C6    1.430875 S    
C27   C28   1.518102 S    
C7    H3    1.084402 S    
C25   H12   1.081281 S    
C14   H4    1.081152 S    
C18   H6    1.083651 S    
C10   C11   1.419735 A    
C15   C22   1.494980 S    
C22   H9    1.112255 S    
Zn2   O6    1.989480 S    
N2    C26   1.363655 A    
C13   H2    1.084041 S    
Zn1   O5    1.989968 S    
C10   C14   1.404705 A    
C4    C5    1.423554 S    
O5    C3    1.283961 A    
C26   C27   1.490188 S    
C11   C12   1.377677 A    
O6    C3    1.285813 A    
C5    C12   1.387877 A    
O2    Zn2   1.989967 S    
N1    C24   1.369454 A    
C19   C20   1.389938 A    
N4    H17   1.045646 S    
O1    C1    1.289913 A    
C12   H1    1.086341 S    
C6    C8    1.396763 A    
