data_mof_unit_2556.cif
_audit_creation_date              2012-12-11T14:14:32-0500
_audit_creation_method            fapswitch 2.2
_symmetry_space_group_name_H-M    P1
_symmetry_Int_Tables_number       1
_space_group_crystal_system       triclinic
_cell_length_a                    24.437544
_cell_length_b                    17.218918
_cell_length_c                    15.626642
_cell_angle_alpha                 89.975115
_cell_angle_beta                  129.043437
_cell_angle_gamma                 89.791102
_cell_volume                      5106.92258959

loop_
_atom_site_label
_atom_site_type_symbol
_atom_type_description
_atom_site_fract_x
_atom_site_fract_y
_atom_site_fract_z
_atom_type_partial_charge
C1    C     C_R   0.343431 0.369860 0.225456 -0.114823
C2    C     C_R   0.655541 0.366742 0.767880 -0.116231
C3    C     C_R   0.848305 0.862838 0.239640 -0.107467
C4    C     C_R   0.151664 0.862194 0.759775 -0.110880
C5    C     C_R   0.415340 0.644560 0.592769 -0.096077
C6    C     C_R   0.584742 0.644109 0.406603 -0.094408
C7    C     C_R   0.914854 0.144271 0.592689 -0.091785
C8    C     C_R   0.101580 0.122540 0.403525 -0.053023
C9    C     C_R   0.367664 0.690599 0.501322 0.150703
C10   C     C_R   0.632523 0.689860 0.497654 0.146156
C11   C     C_R   0.867041 0.190178 0.501205 0.148721
C12   C     C_R   0.163998 0.152641 0.492460 0.157132
C13   C     C_R   0.350693 0.620008 0.131821 0.101850
C14   C     C_R   0.649379 0.619699 0.867961 0.101867
C15   C     C_R   0.852134 0.122592 0.133793 0.100186
C16   C     C_R   0.147829 0.124306 0.864923 0.096792
C17   C     C_2   0.648675 0.799222 0.414532 0.722197
C18   C     C_2   0.352243 0.801400 0.583540 0.717807
C19   C     C_2   0.233958 0.159091 0.431593 0.771163
C20   C     C_2   0.851112 0.300104 0.583593 0.723011
C21   C     C_2   0.659715 0.766558 0.502120 -0.255872
C22   C     C_2   0.340765 0.768010 0.496087 -0.255356
C23   C     C_2   0.212415 0.191240 0.484432 -0.393754
C24   C     C_2   0.839581 0.267122 0.495946 -0.260573
C25   C     C_2   0.277356 0.209319 0.420208 -0.518989
C26   C     C_2   0.791937 0.344251 0.563927 -0.535156
C27   C     C_2   0.707232 0.844633 0.434780 -0.533016
C28   C     C_2   0.293271 0.846566 0.563393 -0.519346
C29   C     C_2   0.334330 0.241848 0.511331 0.597898
C30   C     C_2   0.726371 0.314286 0.502753 0.574303
C31   C     C_2   0.773654 0.816206 0.498408 0.573786
C32   C     C_2   0.227447 0.817303 0.501794 0.569424
C33   C     C_2   0.654816 0.253787 0.870290 -0.187739
C34   C     C_2   0.348362 0.253209 0.132489 -0.202853
C35   C     C_2   0.144979 0.743646 0.849493 -0.207198
C36   C     C_2   0.854887 0.744996 0.148911 -0.208088
C37   C     C_2   0.700173 0.210495 0.869642 -0.123598
C38   C     C_2   0.299709 0.213232 0.128094 -0.118351
C39   C     C_2   0.197597 0.705297 0.862524 -0.122231
C40   C     C_2   0.801845 0.707293 0.134804 -0.121458
C41   C     C_2   0.307171 0.650036 0.018330 -0.208909
C42   C     C_2   0.692926 0.650144 0.981041 -0.207358
C43   C     C_2   0.809380 0.154239 0.021610 -0.211091
C44   C     C_2   0.190571 0.157092 0.976300 -0.206627
C45   C     C_R   0.608988 0.382996 0.408377 -0.130008
C46   C     C_R   0.408125 0.362348 0.593930 -0.088621
C47   C     C_R   0.109722 0.884808 0.408247 -0.102267
C48   C     C_R   0.890692 0.884284 0.591899 -0.129558
C49   C     C_2   0.236797 0.646905 0.949099 -0.115544
C50   C     C_2   0.763388 0.648727 0.048974 -0.116958
C51   C     C_2   0.739243 0.149600 0.951467 -0.114476
C52   C     C_2   0.260822 0.152569 0.046328 -0.126264
C53   C     C_R   0.683453 0.384111 0.592118 -0.171779
C54   C     C_R   0.333449 0.360743 0.411025 -0.158316
C55   C     C_R   0.184291 0.886050 0.591804 -0.175674
C56   C     C_R   0.816220 0.885599 0.408279 -0.176718
C57   C     C_R   0.567965 0.366535 0.775734 -0.132210
C58   C     C_R   0.437227 0.363171 0.232858 -0.150234
C59   C     C_R   0.060379 0.859008 0.759415 -0.151167
C60   C     C_R   0.939704 0.859362 0.240209 -0.152879
C61   C     C_R   0.374846 0.326476 0.192503 0.139334
C62   C     C_R   0.627777 0.326672 0.808810 0.135708
C63   C     C_R   0.880194 0.819090 0.207585 0.139405
C64   C     C_R   0.119803 0.818297 0.791538 0.138721
C65   C     C_R   0.673460 0.356061 0.500733 -0.019266
C66   C     C_R   0.357087 0.318712 0.504806 -0.029997
C67   C     C_R   0.174720 0.859028 0.500331 -0.010950
C68   C     C_R   0.826074 0.858188 0.499885 -0.016094
C69   C     C_R   0.342427 0.646451 0.409484 -0.130255
C70   C     C_R   0.657640 0.646018 0.589972 -0.129802
C71   C     C_R   0.842050 0.146199 0.409412 -0.133345
C72   C     C_R   0.178527 0.123573 0.587729 -0.134014
C73   C     C_R   0.422275 0.605298 0.196335 -0.170058
C74   C     C_R   0.577828 0.605121 0.803728 -0.170675
C75   C     C_R   0.923634 0.107670 0.198448 -0.185252
C76   C     C_R   0.076927 0.107281 0.802108 -0.171305
C77   C     C_R   0.668860 0.600009 0.804071 0.071893
C78   C     C_R   0.331120 0.600396 0.195592 0.068626
C79   C     C_R   0.167978 0.103865 0.802072 0.091171
C80   C     C_R   0.831635 0.101553 0.196031 0.068557
H1    H     H_    0.290251 0.364291 0.196127 0.088416
H2    H     H_    0.704770 0.355783 0.784203 0.088321
H3    H     H_    0.799325 0.851219 0.223507 0.087762
H4    H     H_    0.200532 0.850114 0.775497 0.087983
H5    H     H_    0.703519 0.786579 0.584248 0.139431
H6    H     H_    0.296528 0.787905 0.413840 0.135419
H7    H     H_    0.228515 0.249084 0.519351 0.109182
H8    H     H_    0.794902 0.286630 0.413773 0.136366
H9    H     H_    0.251239 0.233934 0.339026 0.106993
H10   H     H_    0.803967 0.397474 0.610033 0.137092
H11   H     H_    0.694186 0.897189 0.386684 0.137818
H12   H     H_    0.305610 0.899623 0.609949 0.147208
H13   H     H_    0.207860 0.611895 0.965555 0.151624
H14   H     H_    0.792739 0.614706 0.032199 0.150687
H15   H     H_    0.710365 0.112101 0.965547 0.155589
H16   H     H_    0.289869 0.114383 0.032982 0.154927
H17   H     H_    0.716923 0.227368 0.822384 0.127589
H18   H     H_    0.280652 0.232872 0.171231 0.126746
H19   H     H_    0.219591 0.725544 0.824141 0.125367
H20   H     H_    0.779406 0.727684 0.172518 0.125319
H21   H     H_    0.333904 0.684715 0.996499 0.134837
H22   H     H_    0.665860 0.683888 0.003287 0.134610
H23   H     H_    0.836027 0.191655 0.002164 0.133471
H24   H     H_    0.163632 0.194772 0.995193 0.138763
H25   H     H_    0.639358 0.236663 0.919341 0.138676
H26   H     H_    0.366574 0.233465 0.088124 0.137093
H27   H     H_    0.124294 0.723322 0.889983 0.138101
H28   H     H_    0.876069 0.724451 0.109181 0.137577
H29   H     H_    0.589695 0.380799 0.324355 0.100765
H30   H     H_    0.432231 0.351182 0.678235 0.098279
H31   H     H_    0.090307 0.883144 0.324123 0.104112
H32   H     H_    0.910014 0.882368 0.675968 0.103967
H33   H     H_    0.732060 0.383020 0.675975 0.095985
H34   H     H_    0.289540 0.346528 0.327719 0.094291
H35   H     H_    0.232969 0.885519 0.675645 0.096692
H36   H     H_    0.767623 0.884961 0.324384 0.097615
H37   H     H_    0.539426 0.356034 0.805930 0.087490
H38   H     H_    0.473656 0.346664 0.218891 0.097102
H39   H     H_    0.024067 0.842016 0.773253 0.099868
H40   H     H_    0.976095 0.842391 0.226350 0.098990
H41   H     H_    0.304830 0.665897 0.325473 0.120996
H42   H     H_    0.695300 0.665277 0.673857 0.121856
H43   H     H_    0.804232 0.165544 0.325432 0.120291
H44   H     H_    0.227769 0.128797 0.669754 0.118369
H45   H     H_    0.452276 0.603931 0.167053 0.103752
H46   H     H_    0.547944 0.603976 0.833213 0.103274
H47   H     H_    0.954516 0.108159 0.170724 0.107955
H48   H     H_    0.047159 0.106297 0.831795 0.107405
H49   H     H_    0.444839 0.659382 0.678227 0.155845
H50   H     H_    0.555304 0.658744 0.320989 0.155775
H51   H     H_    0.943823 0.158900 0.678058 0.154550
H52   H     H_    0.078945 0.126226 0.317843 0.109090
N1    N     N_R   0.389060 0.424180 0.294540 -0.042479
N2    N     N_R   0.610940 0.424180 0.705460 -0.043787
N3    N     N_R   0.889060 0.924180 0.294540 -0.045301
N4    N     N_R   0.110940 0.924180 0.705460 -0.045937
N5    N     N_R   0.579670 0.423790 0.443360 -0.036244
N6    N     N_R   0.420330 0.423790 0.556640 -0.043853
N7    N     N_R   0.079670 0.923790 0.443360 -0.038824
N8    N     N_R   0.920330 0.923790 0.556640 -0.037049
N9    N     N_R   0.625470 0.423490 0.556600 -0.028079
N10   N     N_R   0.374530 0.423490 0.443400 -0.031422
N11   N     N_R   0.125470 0.923490 0.556600 -0.030249
N12   N     N_R   0.874530 0.923490 0.443400 -0.028900
N13   N     N_R   0.555250 0.423100 0.705420 -0.043983
N14   N     N_R   0.444750 0.423100 0.294580 -0.041876
N15   N     N_R   0.055250 0.923100 0.705420 -0.043187
N16   N     N_R   0.944750 0.923100 0.294580 -0.043241
N17   N     N_R   0.375210 0.577180 0.443400 -0.047353
N18   N     N_R   0.624790 0.577180 0.556600 -0.045964
N19   N     N_R   0.875210 0.077180 0.443400 -0.045570
N20   N     N_R   0.124790 0.077180 0.556600 -0.047727
N21   N     N_R   0.445430 0.577570 0.294580 -0.052320
N22   N     N_R   0.554570 0.577570 0.705420 -0.052267
N23   N     N_R   0.945430 0.077570 0.294580 -0.052199
N24   N     N_R   0.054570 0.077570 0.705420 -0.054049
N25   N     N_R   0.611620 0.576500 0.705460 -0.063096
N26   N     N_R   0.388380 0.576500 0.294540 -0.063328
N27   N     N_R   0.111620 0.076500 0.705460 -0.064706
N28   N     N_R   0.888380 0.076500 0.294540 -0.064573
N29   N     N_R   0.421010 0.576890 0.556640 -0.060175
N30   N     N_R   0.578990 0.576890 0.443360 -0.058032
N31   N     N_R   0.921010 0.076890 0.556640 -0.057750
N32   N     N_R   0.078990 0.076890 0.443360 -0.053125
Ni1   Ni    Ni4+2 0.383200 0.500680 0.370150 0.230432
Ni2   Ni    Ni4+2 0.616800 0.500680 0.629850 0.228062
Ni3   Ni    Ni4+2 0.883200 0.000680 0.370150 0.225323
Ni4   Ni    Ni4+2 0.116800 0.000680 0.629850 0.225292
Ni5   Ni    Ni4+2 0.512440 0.500680 0.370150 0.207932
Ni6   Ni    Ni4+2 0.487560 0.500680 0.629850 0.205313
Ni7   Ni    Ni4+2 0.012440 0.000680 0.370150 0.218776
Ni8   Ni    Ni4+2 0.987560 0.000680 0.629850 0.206295
O1    O     O_3   0.373873 0.199333 0.609340 -0.597212
C81   C     C_3   0.370364 0.231606 0.689037 -0.265912
H53   H     H_    0.341309 0.287830 0.665203 0.098712
H54   H     H_    0.424753 0.240522 0.766585 0.160744
H55   H     H_    0.344586 0.189338 0.706996 0.170473
O2    O     O_3   0.710434 0.245719 0.443640 -0.629211
C82   C     C_3   0.663327 0.198981 0.444172 -0.219434
H56   H     H_    0.608740 0.222237 0.386146 0.145478
H57   H     H_    0.679965 0.192656 0.528584 0.128210
H58   H     H_    0.663163 0.140061 0.415335 0.168369
O3    O     O_3   0.791074 0.748653 0.560376 -0.628478
C83   C     C_3   0.837182 0.700741 0.558239 -0.224590
H59   H     H_    0.891790 0.723586 0.613907 0.145534
H60   H     H_    0.819019 0.693426 0.473047 0.125871
H61   H     H_    0.838163 0.642301 0.589094 0.168550
O4    O     O_3   0.210936 0.749107 0.441771 -0.628316
C84   C     C_3   0.165113 0.701648 0.444571 -0.231539
H62   H     H_    0.110254 0.724302 0.387806 0.144393
H63   H     H_    0.182974 0.695226 0.529723 0.126334
H64   H     H_    0.164984 0.642846 0.415490 0.169439
C85   C     C_1   0.738607 0.582496 0.841776 -0.026840
N33   N     N_1   0.794395 0.568113 0.871129 -0.098627
C86   C     C_1   0.261248 0.583980 0.157581 -0.024230
N34   N     N_1   0.205338 0.570522 0.127919 -0.094535
C87   C     C_1   0.238497 0.091179 0.840670 -0.033684
N35   N     N_1   0.295270 0.080488 0.872017 -0.107270
C88   C     C_1   0.761369 0.085948 0.156876 -0.024012
N36   N     N_1   0.705138 0.073153 0.126272 -0.094240
O5    O     O_3   0.584371 0.788272 0.309710 -0.629776
C89   C     C_3   0.590314 0.794745 0.225836 -0.296226
H65   H     H_    0.634626 0.758888 0.244126 0.137963
H66   H     H_    0.595727 0.856481 0.211687 0.156764
H67   H     H_    0.541130 0.772615 0.148044 0.167275
O6    O     O_3   0.417015 0.790504 0.688068 -0.628030
C90   C     C_3   0.412616 0.800683 0.773163 -0.290141
H68   H     H_    0.368802 0.766344 0.758218 0.135318
H69   H     H_    0.407493 0.863211 0.784596 0.158869
H70   H     H_    0.462319 0.779226 0.851302 0.167240
O7    O     O_3   0.209127 0.086204 0.382402 -0.631678
C91   C     C_3   0.247456 0.055321 0.350650 -0.219052
H71   H     H_    0.304913 0.053015 0.421415 0.165250
H72   H     H_    0.236937 0.088927 0.280813 0.139530
H73   H     H_    0.229731 0.994872 0.322005 0.162563
O8    O     O_3   0.916295 0.290156 0.687800 -0.630742
C92   C     C_3   0.911983 0.298399 0.773229 -0.292161
H74   H     H_    0.868924 0.262480 0.758342 0.138696
H75   H     H_    0.905693 0.360444 0.785087 0.155394
H76   H     H_    0.962172 0.277512 0.851097 0.170436

loop_
_geom_bond_atom_site_label_1
_geom_bond_atom_site_label_2
_ccdc_geom_bond_type
C15   C75   A    
C53   N9    A    
C18   C28   S    
C79   C87   S    
C57   N13   A    
N6    Ni6   S    
N21   Ni5   S    
O5    C89   S    
C19   C23   D    
C70   N18   A    
C6    H50   S    
C37   H17   S    
O2    C82   S    
C44   H24   S    
C57   C62   A    
O1    C81   S    
N27   Ni4   S    
C92   H76   S    
C7    C11   A    
C12   C23   S    
C74   N22   A    
N9    Ni2   S    
C2    N2    A    
C89   H66   S    
C60   C63   A    
C19   O7    S    
C14   C74   A    
C71   H43   S    
C9    C69   A    
C46   C66   A    
C79   N27   A    
C37   C51   S    
C45   H29   S    
C9    C22   S    
C80   N28   A    
C38   C52   S    
C1    H1    S    
N18   Ni2   S    
C11   C24   S    
C58   H38   S    
N16   Ni7   S    
C83   H59   S    
N22   Ni6   S    
C14   C77   A    
C41   C49   D    
N21   N26   A    
C84   H63   S    
C77   C85   S    
C81   H53   S    
N13   Ni6   S    
N17   N29   A    
N7    N11   A    
C78   N26   A    
C71   N19   A    
C6    N30   A    
C83   H60   S    
C33   C62   S    
C72   N20   A    
C89   H67   S    
C51   H15   S    
C8    H52   S    
C90   H70   S    
N2    Ni2   S    
N7    Ni7   S    
C35   C64   S    
C69   H41   S    
C36   C63   S    
C53   C65   A    
C16   C44   S    
C17   C27   S    
C3    N3    A    
C85   N33   T    
C38   H18   S    
C4    N4    A    
C82   H58   S    
C31   O3    S    
C44   C52   D    
C58   C61   A    
C5    H49   S    
C12   C72   A    
C76   N24   A    
C88   N36   T    
N8    Ni8   S    
C16   C76   A    
C72   H44   S    
C25   C29   D    
C87   N35   T    
N28   Ni3   S    
C1    N1    A    
C42   H22   S    
C47   C67   A    
N20   Ni4   S    
C53   H33   S    
C43   H23   S    
N19   Ni3   S    
C10   C21   S    
C30   O2    S    
C31   C68   S    
N18   N30   A    
C21   H5    S    
C55   N11   A    
C89   H65   S    
C32   O4    S    
N12   Ni3   S    
C27   C31   D    
C90   H68   S    
C34   H26   S    
C20   C24   D    
C36   C40   D    
N17   Ni1   S    
O8    C92   S    
N22   N25   A    
N6    N10   A    
C48   N8    A    
O6    C90   S    
C50   H14   S    
C56   H36   S    
C86   N34   T    
N4    Ni4   S    
C92   H74   S    
C56   C68   A    
C80   C88   S    
C7    N31   A    
N24   Ni8   S    
C34   C61   S    
C17   C21   D    
C29   C66   S    
O4    C84   S    
C5    N29   A    
C84   H64   S    
C35   C39   D    
O3    C83   S    
C47   H31   S    
O7    C91   S    
C5    C9    A    
N1    Ni1   S    
C70   H42   S    
C39   H19   S    
C15   C80   A    
C4    H4    S    
C91   H73   S    
C28   C32   D    
C8    C12   A    
C45   N5    A    
C59   C64   A    
C33   H25   S    
C28   H12   S    
C91   H71   S    
C48   C68   A    
C27   H11   S    
N31   Ni8   S    
C24   H8    S    
C81   H55   S    
N20   N32   A    
C42   C50   D    
C32   C67   S    
N29   Ni6   S    
C10   C70   A    
C39   C49   S    
C91   H72   S    
C26   C30   D    
N19   N31   A    
C46   H30   S    
C8    N32   A    
C30   C65   S    
C76   H48   S    
C2    H2    S    
C26   H10   S    
C57   H37   S    
C73   N21   A    
C73   H45   S    
C20   O8    S    
N15   Ni8   S    
C33   C37   D    
N2    N13   A    
N5    N9    A    
C13   C78   A    
C59   H39   S    
C48   H32   S    
N23   N28   A    
C34   C38   D    
C7    H51   S    
N5    Ni5   S    
N24   N27   A    
N8    N12   A    
C29   O1    S    
C1    C61   A    
N25   Ni2   S    
C6    C10   A    
C55   C67   A    
C58   N14   A    
C75   N23   A    
C13   C41   S    
C54   C66   A    
C3    C63   A    
C17   O5    S    
C92   H75   S    
C60   N16   A    
C4    C64   A    
C25   H9    S    
C83   H61   S    
C14   C42   S    
C18   O6    S    
C16   C79   A    
C69   N17   A    
C54   N10   A    
C18   C22   D    
C15   C43   S    
N10   Ni1   S    
C45   C65   A    
C55   H35   S    
C43   C51   D    
C74   H46   S    
N30   Ni5   S    
C20   C26   S    
C40   C50   S    
C54   H34   S    
C41   H21   S    
C52   H16   S    
C11   C71   A    
C78   C86   S    
C22   H6    S    
C84   H62   S    
C19   C25   S    
C81   H54   S    
N11   Ni4   S    
N4    N15   A    
C35   H27   S    
C60   H40   S    
C82   H56   S    
C56   N12   A    
N23   Ni7   S    
C3    H3    S    
C36   H28   S    
N3    N16   A    
N14   Ni5   S    
C47   N7    A    
C90   H69   S    
N3    Ni3   S    
C46   N6    A    
N32   Ni7   S    
C23   H7    S    
N1    N14   A    
C13   C73   A    
C49   H13   S    
C40   H20   S    
C2    C62   A    
N26   Ni1   S    
C77   N25   A    
C82   H57   S    
C75   H47   S    
C59   N15   A    
