data_mof_unit_2546.cif
_audit_creation_date              2012-12-11T14:57:58-0500
_audit_creation_method            fapswitch 2.2
_symmetry_space_group_name_H-M    P1
_symmetry_Int_Tables_number       1
_space_group_crystal_system       triclinic
_cell_length_a                    6.928471
_cell_length_b                    16.65518
_cell_length_c                    17.25629
_cell_angle_alpha                 100.33035
_cell_angle_beta                  90.661844
_cell_angle_gamma                 89.854495
_cell_volume                      1958.87907266

loop_
_atom_site_label
_atom_site_type_symbol
_atom_type_description
_atom_site_fract_x
_atom_site_fract_y
_atom_site_fract_z
_atom_type_partial_charge
O1    O     O_R   0.506180 0.438940 0.579430 -0.541260
O2    O     O_R   0.170520 0.406230 0.413590 -0.539911
O3    O     O_R   0.005180 0.561060 0.420570 -0.541768
C1    C     C_R   0.340292 0.382185 0.386610 0.688172
O4    O     O_R   0.176140 0.429310 0.578370 -0.542110
O5    O     O_R   0.010830 0.584300 0.586530 -0.534464
C2    C     C_R   0.345156 0.412479 0.603691 0.694624
O6    O     O_R   0.500520 0.415700 0.413470 -0.539567
O7    O     O_3   0.340830 0.550820 0.502480 -0.366204
V1    V     V_3+5 0.064040 0.490570 0.499540 1.413795
O8    O     O_R   0.681400 0.593770 0.586410 -0.536460
C3    C     C_R   0.850840 0.616685 0.614813 0.702366
O9    O     O_R   0.675790 0.570690 0.421630 -0.542880
C4    C     C_R   0.842018 0.586640 0.394945 0.689494
V2    V     V_3+5 0.564650 0.509430 0.500460 1.417285
O10   O     O_3   0.837730 0.449180 0.497520 -0.369494
C5    C     C_R   0.929739 0.859973 0.165888 -0.066619
C6    C     C_R   0.836761 0.639871 0.333891 -0.073305
C7    C     C_R   0.645744 0.698445 0.237316 -0.198437
C8    C     C_R   0.665578 0.643571 0.289451 -0.160564
C9    C     C_R   0.990284 0.691893 0.323592 -0.243966
C10   C     C_R   0.970299 0.748090 0.271508 0.160918
C11   C     C_R   0.796256 0.751718 0.228236 0.158413
C12   C     C_R   0.776241 0.807935 0.176174 -0.245079
C13   C     C_R   0.100970 0.856240 0.210289 -0.165591
C14   C     C_R   0.120826 0.801353 0.262412 -0.202801
H1    H     H_    0.644233 0.809360 0.142099 0.123904
H2    H     H_    0.221988 0.895589 0.204131 0.126513
H3    H     H_    0.511602 0.699647 0.204613 0.125445
H4    H     H_    0.254983 0.800140 0.295102 0.122367
H5    H     H_    0.544559 0.604220 0.295600 0.130508
H6    H     H_    0.122272 0.690480 0.357682 0.123885
H7    H     H_    0.924200 0.619284 0.973893 0.127364
C15   C     C_R   0.889010 0.913439 0.725072 -0.151634
C16   C     C_R   0.873059 0.930404 0.649048 -0.124050
C17   C     C_R   0.854075 0.867133 0.584858 -0.115001
C18   C     C_R   0.850911 0.786351 0.596132 -0.132479
C19   C     C_R   0.866267 0.767181 0.672572 0.068775
C20   C     C_R   0.885541 0.832136 0.738504 0.068726
C21   C     C_R   0.863538 0.684928 0.683864 -0.183260
C22   C     C_R   0.879677 0.667905 0.761375 0.070947
C23   C     C_R   0.899337 0.732843 0.827295 0.069237
C24   C     C_R   0.901964 0.815101 0.816003 -0.182389
C25   C     C_R   0.875571 0.586621 0.774820 -0.150618
C26   C     C_R   0.892040 0.569608 0.850813 -0.111316
C27   C     C_R   0.911789 0.632856 0.914985 -0.104962
C28   C     C_R   0.915072 0.713647 0.903719 -0.140412
H8    H     H_    0.904773 0.964689 0.773064 0.101321
H9    H     H_    0.875761 0.993029 0.639911 0.111700
H10   H     H_    0.842020 0.880682 0.525932 0.114855
H11   H     H_    0.836243 0.739237 0.544343 0.092935
H12   H     H_    0.858686 0.535453 0.726842 0.098078
H13   H     H_    0.889056 0.506978 0.859942 0.132441
H14   H     H_    0.930148 0.760748 0.955497 0.094831
H15   H     H_    0.874862 0.421956 0.183327 0.125964
C29   C     C_R   0.596984 0.244212 0.390983 -0.125252
C30   C     C_R   0.732882 0.183071 0.393279 -0.123161
C31   C     C_R   0.762277 0.123548 0.327336 -0.123860
C32   C     C_R   0.654459 0.124209 0.258920 -0.158308
C33   C     C_R   0.518500 0.186970 0.253506 0.055124
C34   C     C_R   0.491118 0.249141 0.321090 0.076136
C35   C     C_R   0.401343 0.185481 0.184840 -0.191354
C36   C     C_R   0.248149 0.244949 0.187383 0.050892
C37   C     C_R   0.238940 0.312184 0.251122 0.057311
C38   C     C_R   0.355894 0.313232 0.318824 -0.189045
C39   C     C_R   0.101321 0.240719 0.128374 -0.011226
C40   C     C_R   0.965935 0.302656 0.128348 -0.033640
C41   C     C_R   0.974825 0.372261 0.185313 -0.140811
C42   C     C_R   0.110914 0.377746 0.245525 -0.135115
H16   H     H_    0.573606 0.286036 0.445564 0.109890
H17   H     H_    0.813025 0.180969 0.447118 0.107002
H18   H     H_    0.865351 0.075074 0.329856 0.113345
H19   H     H_    0.676310 0.072950 0.212121 0.119299
H20   H     H_    0.084719 0.191141 0.080223 0.201943
H21   H     H_    0.856699 0.297518 0.082339 0.171796
H22   H     H_    0.113508 0.434450 0.287100 0.125152
C43   C     C_R   0.418518 0.139850 0.833930 -0.162391
C44   C     C_R   0.347286 0.361933 0.665992 -0.053611
C45   C     C_R   0.194321 0.328700 0.782219 -0.128974
C46   C     C_R   0.208784 0.377782 0.725272 -0.180223
C47   C     C_R   0.466940 0.293037 0.662442 -0.211458
C48   C     C_R   0.449625 0.241672 0.719010 0.114695
C49   C     C_R   0.319820 0.262195 0.782413 0.011902
C50   C     C_R   0.318196 0.215431 0.843699 0.364053
C51   C     C_R   0.538259 0.118513 0.768197 -0.227448
C52   C     C_R   0.558084 0.169733 0.712776 -0.163716
H23   H     H_    0.621369 0.062579 0.760874 0.133729
H24   H     H_    0.078303 0.341616 0.823864 0.196045
H25   H     H_    0.656092 0.152236 0.664159 0.119961
H26   H     H_    0.109233 0.428271 0.727111 0.121488
H27   H     H_    0.567560 0.277899 0.614354 0.103486
O11   O     O_R   0.265840 0.084300 0.086750 -0.552871
O12   O     O_R   0.589750 0.070740 0.921690 -0.529771
O13   O     O_R   0.755020 0.915730 0.913400 -0.541437
C53   C     C_R   0.421187 0.086448 0.895030 0.825213
O14   O     O_R   0.595830 0.093740 0.086480 -0.539251
O15   O     O_R   0.761150 0.938890 0.079360 -0.548129
C54   C     C_R   0.424586 0.117716 0.114661 0.758480
O16   O     O_R   0.259710 0.061140 0.920790 -0.518700
O17   O     O_3   0.425260 0.949200 0.997610 -0.382396
V3    V     V_3+5 0.702060 0.009430 0.000450 1.471025
O18   O     O_R   0.090530 0.929220 0.078150 -0.548206
C55   C     C_R   0.924367 0.913265 0.104889 0.669646
O19   O     O_R   0.084440 0.906220 0.913360 -0.542725
C56   C     C_R   0.914911 0.883330 0.885043 0.690640
V4    V     V_3+5 0.201450 0.990520 0.999290 1.459258
O20   O     O_3   0.928380 0.050800 0.002390 -0.356123
S1    S     S_3+6 0.226066 0.257916 0.937516 -0.057064
O21   O     O_2   0.027650 0.223798 0.944066 -0.346314
O22   O     O_2   0.357155 0.234584 0.999701 -0.384708
O23   O     O_3   0.213985 0.360473 0.953260 -0.507720
H28   H     H_    0.349511 0.378811 0.951474 0.339234

loop_
_geom_bond_atom_site_label_1
_geom_bond_atom_site_label_2
_ccdc_geom_bond_type
V3    O20   S    
C45   C49   A    
O13   C56   A    
C6    C9    A    
C22   C23   A    
C4    C6    S    
O2    C1    A    
C7    C8    A    
C12   H1    S    
C1    O6    A    
O19   V4    S    
H15   C41   S    
O11   C54   A    
C51   C52   A    
C29   C30   A    
C13   H2    S    
C35   C36   A    
C17   C18   A    
O5    C3    A    
C19   C20   A    
C18   H11   S    
C44   C46   A    
V4    O20   S    
C53   O16   A    
V2    O10   S    
C39   H20   S    
S1    O21   D    
C42   H22   S    
C33   C35   A    
C15   C16   A    
C24   C56   S    
C45   H24   S    
C35   C54   S    
O8    V2    S    
O23   H28   S    
O13   V3    S    
C41   C42   A    
O14   C54   A    
C16   H9    S    
C11   C12   A    
O1    V2    S    
O7    V1    S    
C32   H19   S    
C25   H12   S    
C39   C40   A    
C36   C39   A    
C43   C51   A    
C32   C33   A    
O12   C53   A    
O9    C4    A    
C46   H26   S    
H7    C27   S    
O19   C56   A    
C13   C14   A    
C47   C48   A    
C51   H23   S    
C9    H6    S    
C5    C12   A    
C40   C41   A    
O14   V3    S    
O12   V3    S    
O4    C2    A    
C20   C24   A    
C43   C50   A    
C31   C32   A    
C48   C52   A    
C43   C53   S    
C15   C20   A    
C33   C34   A    
C16   C17   A    
C3    C21   S    
C7    C11   A    
C18   C19   A    
C34   C38   A    
C49   C50   A    
C29   C34   A    
C37   C42   A    
C30   H17   S    
O15   C55   A    
O3    C4    A    
C28   H14   S    
O11   V4    S    
C21   C22   A    
C14   H4    S    
O6    V2    S    
C29   H16   S    
C2    C44   S    
C22   C25   A    
C40   H21   S    
C23   C24   A    
O2    V1    S    
C17   H10   S    
C25   C26   A    
O16   V4    S    
C27   C28   A    
O1    C2    A    
C36   C37   A    
C52   H25   S    
O5    V1    S    
O8    C3    A    
O17   V4    S    
S1    O23   S    
C5    C13   A    
C37   C38   A    
O9    V2    S    
C5    C55   S    
O4    V1    S    
O3    V1    S    
V1    O10   S    
C19   C21   A    
C44   C47   A    
C31   H18   S    
C30   C31   A    
C1    C38   S    
O17   V3    S    
C50   S1    S    
S1    O22   D    
O18   V4    S    
C6    C8    A    
C23   C28   A    
O7    V2    S    
O18   C55   A    
C26   H13   S    
C45   C46   A    
C47   H27   S    
C26   C27   A    
C15   H8    S    
C48   C49   A    
C10   C14   A    
C10   C11   A    
C9    C10   A    
O15   V3    S    
C8    H5    S    
C7    H3    S    
