data_mof_unit_4245.cif
_audit_creation_date              2012-12-11T14:17:51-0500
_audit_creation_method            fapswitch 2.2
_symmetry_space_group_name_H-M    P1
_symmetry_Int_Tables_number       1
_space_group_crystal_system       triclinic
_cell_length_a                    6.93752
_cell_length_b                    13.639604
_cell_length_c                    20.389115
_cell_angle_alpha                 101.822804
_cell_angle_beta                  90.133113
_cell_angle_gamma                 90.561421
_cell_volume                      1888.28262806

loop_
_atom_site_label
_atom_site_type_symbol
_atom_type_description
_atom_site_fract_x
_atom_site_fract_y
_atom_site_fract_z
_atom_type_partial_charge
O1    O     O_R   0.506860 0.599390 0.449240 -0.531066
O2    O     O_R   0.180220 0.594600 0.586780 -0.510486
O3    O     O_R   0.004500 0.400610 0.550760 -0.549167
C1    C     C_R   0.348734 0.614008 0.614003 0.837416
O4    O     O_R   0.177490 0.611290 0.451970 -0.539509
O5    O     O_R   0.001750 0.417420 0.414990 -0.532197
C2    C     C_R   0.346748 0.637584 0.434688 0.823928
O6    O     O_R   0.509610 0.582580 0.585010 -0.529478
O7    O     O_3   0.337420 0.436370 0.488020 -0.391165
V1    V     V_3+5 0.064680 0.511800 0.502220 1.624065
O8    O     O_R   0.671710 0.405400 0.413220 -0.552466
C3    C     C_R   0.840081 0.383619 0.386840 0.693788
O9    O     O_R   0.674440 0.388710 0.548030 -0.533484
C4    C     C_R   0.843121 0.362278 0.565121 0.781125
V2    V     V_3+5 0.564010 0.488200 0.497780 1.600059
O10   O     O_3   0.841140 0.563630 0.511980 -0.358430
C5    C     C_R   0.947557 0.116671 0.612844 0.416314
H1    H     H_    0.954072 0.173398 0.522265 0.164077
H2    H     H_    0.923926 0.986869 0.698282 0.170800
C6    C     C_R   0.855050 0.285019 0.605301 -0.211714
C7    C     C_R   0.873089 0.315227 0.927965 -0.252146
C8    C     C_R   0.906207 0.391647 0.892544 0.353988
C9    C     C_R   0.922508 0.367141 0.821913 0.423615
C10   C     C_R   0.882821 0.267560 0.786778 0.018429
C11   C     C_R   0.873967 0.190276 0.824008 -0.029495
C12   C     C_R   0.873975 0.240735 0.715241 0.008774
C13   C     C_R   0.914292 0.140168 0.683039 -0.055964
C14   C     C_R   0.911812 0.065411 0.721220 -0.091038
C15   C     C_R   0.883312 0.089718 0.790010 -0.088107
C16   C     C_R   0.819153 0.308734 0.674431 0.395313
C17   C     C_R   0.922856 0.190502 0.575452 -0.214624
C18   C     C_R   0.865245 0.215187 0.894667 -0.126469
H3    H     H_    0.866043 0.333136 0.982230 0.161435
H4    H     H_    0.877637 0.028812 0.816698 0.145956
C19   C     C_2   0.979546 0.318028 0.275200 0.324812
C20   C     C_2   0.849519 0.307802 0.323009 0.159663
C21   C     C_2   0.009662 0.237116 0.214256 0.335172
C22   C     C_2   0.859090 0.193493 0.176322 -0.304655
H5    H     H_    0.714395 0.218223 0.191239 0.196491
C23   C     C_2   0.220741 0.765180 0.789936 0.190499
C24   C     C_2   0.359102 0.833343 0.815262 0.126309
C25   C     C_2   0.205762 0.719055 0.717058 0.393469
C26   C     C_2   0.358376 0.671653 0.683856 -0.213751
H6    H     H_    0.494365 0.670380 0.710207 0.166134
C27   C     C_R   0.430902 0.891240 0.390678 0.389468
C28   C     C_R   0.360582 0.718085 0.396946 -0.170889
C29   C     C_R   0.349532 0.685762 0.074229 -0.263472
C30   C     C_R   0.375363 0.609982 0.109690 0.420928
C31   C     C_R   0.404355 0.633395 0.179480 0.328067
C32   C     C_R   0.384943 0.734593 0.215476 -0.024703
C33   C     C_R   0.377263 0.811296 0.177611 -0.026372
C34   C     C_R   0.381879 0.763125 0.287162 -0.007234
C35   C     C_R   0.412199 0.865281 0.319506 -0.011460
C36   C     C_R   0.418282 0.939552 0.280158 0.437346
C37   C     C_R   0.393285 0.911986 0.210605 -0.259583
C38   C     C_R   0.337637 0.693827 0.327599 -0.190246
C39   C     C_R   0.412063 0.815786 0.428854 0.253009
C40   C     C_R   0.359263 0.785965 0.106865 -0.125387
H7    H     H_    0.281330 0.620215 0.306072 0.200272
H8    H     H_    0.334182 0.666524 0.020164 0.187552
H9    H     H_    0.390448 0.970776 0.182113 0.140380
O11   O     O_R   0.203230 0.917310 0.915020 -0.535448
O12   O     O_R   0.535500 0.888690 0.048040 -0.545069
O13   O     O_R   0.711080 0.082610 0.085000 -0.542980
C41   C     C_R   0.366605 0.862451 0.065459 0.731948
O14   O     O_R   0.532630 0.905370 0.913230 -0.521820
O15   O     O_R   0.708190 0.099410 0.949230 -0.538130
C42   C     C_R   0.363946 0.886006 0.886142 0.777826
O16   O     O_R   0.206120 0.900510 0.050790 -0.538376
O17   O     O_3   0.375360 0.063570 0.011990 -0.363710
V3    V     V_3+5 0.648170 0.988200 0.997780 1.584311
O18   O     O_R   0.038240 0.111390 0.951940 -0.545282
C43   C     C_R   0.869949 0.137952 0.935097 0.721184
O19   O     O_R   0.041120 0.094710 0.086750 -0.508989
C44   C     C_R   0.872845 0.117771 0.112828 0.772035
V4    V     V_3+5 0.148810 0.011930 0.002180 1.590846
O20   O     O_3   0.871750 0.936430 0.988010 -0.361899
O21   O     O_3   0.733670 0.222959 0.314086 -0.646594
H10   H     H_    0.656840 0.225011 0.355264 0.322102
Cl1   Cl    Cl    0.252097 0.205962 0.193693 -0.637957
Cl2   Cl    Cl    0.043861 0.727175 0.842185 -0.596496
Cl3   Cl    Cl    0.533115 0.873955 0.763012 -0.670930
O22   O     O_3   0.030986 0.719599 0.684347 -0.600477
H11   H     H_    0.939947 0.761450 0.715233 0.349718
Cl4   Cl    Cl    0.450056 0.842081 0.516786 -0.612288
O23   O     O_3   0.440997 0.039449 0.310354 -0.587291
H12   H     H_    0.444306 0.080886 0.275729 0.342445
O24   O     O_3   0.471553 0.989700 0.421006 -0.586960
H13   H     H_    0.456954 0.999939 0.470074 0.353206
Cl5   Cl    Cl    0.509366 0.538573 0.215439 -0.595803
Cl6   Cl    Cl    0.383804 0.485563 0.063925 -0.554538
O25   O     O_3   0.008633 0.024101 0.578966 -0.599010
H14   H     H_    0.087494 0.993256 0.609654 0.322921
Cl7   Cl    Cl    0.670533 0.413190 0.705392 -0.591652
O26   O     O_3   0.998547 0.435425 0.786990 -0.597862
H15   H     H_    0.031921 0.499052 0.818114 0.383362
O27   O     O_3   0.929894 0.490015 0.925906 -0.607034
H16   H     H_    0.915388 0.494017 0.974768 0.334282
O28   O     O_3   0.093470 0.403739 0.284924 -0.635318
H17   H     H_    0.168417 0.403461 0.243581 0.361829

loop_
_geom_bond_atom_site_label_1
_geom_bond_atom_site_label_2
_ccdc_geom_bond_type
O14   C42   A    
O12   C41   A    
O26   H15   S    
C19   C20   D    
C31   Cl5   S    
C1    O6    A    
O27   H16   S    
C6    C16   A    
C35   C36   A    
C27   C39   A    
C12   C13   A    
O19   V4    S    
O22   H11   S    
C14   C15   A    
C19   C21   S    
C10   C12   A    
O5    C3    A    
C22   H5    S    
C7    H3    S    
V2    O10   S    
O16   V4    S    
O13   V3    S    
C29   H8    S    
O8    V2    S    
O14   V3    S    
C9    O26   S    
C30   Cl6   S    
C32   C34   A    
C9    C10   A    
O17   V3    S    
O15   C43   A    
C3    C20   S    
O7    V1    S    
C33   C37   A    
O18   V4    S    
C11   C18   A    
C23   C25   S    
C27   C35   A    
C8    O27   S    
O1    C2    A    
C7    C8    A    
O11   V4    S    
C5    O25   S    
C19   O28   S    
C7    C18   A    
C24   C42   S    
C22   C44   S    
C11   C15   A    
C21   Cl1   S    
O19   C44   A    
C5    C13   A    
C2    C28   S    
C4    C6    S    
C27   O24   S    
V4    O20   S    
C18   C43   S    
C36   O23   S    
O23   H12   S    
C15   H4    S    
O2    C1    A    
C26   H6    S    
C21   C22   D    
C40   C41   S    
C29   C30   A    
C32   C33   A    
C33   C40   A    
C10   C11   A    
H2    C14   S    
O3    C4    A    
O1    V2    S    
C30   C31   A    
O12   V3    S    
C12   C16   A    
O6    V2    S    
O9    V2    S    
C28   C39   A    
O17   V4    S    
C5    C17   A    
C25   C26   D    
O2    V1    S    
V3    O20   S    
C34   C35   A    
O4    C2    A    
C36   C37   A    
C23   C24   D    
O21   H10   S    
C23   Cl2   S    
C25   O22   S    
O18   C43   A    
O5    V1    S    
O8    C3    A    
C1    C26   S    
C38   H7    S    
O11   C42   A    
O7    V2    S    
O4    V1    S    
C16   Cl7   S    
O3    V1    S    
V1    O10   S    
O28   H17   S    
C29   C40   A    
C41   O16   A    
C24   Cl3   S    
C37   H9    S    
O25   H14   S    
O13   C44   A    
C39   Cl4   S    
O15   V3    S    
O24   H13   S    
C31   C32   A    
C28   C38   A    
C13   C14   A    
C8    C9    A    
C20   O21   S    
H1    C17   S    
O9    C4    A    
C34   C38   A    
C6    C17   A    
