data_mof_unit_4046.cif
_audit_creation_date              2013-03-05T15:46:46-0500
_audit_creation_method            fapswitch 2.2
_symmetry_space_group_name_H-M    P1
_symmetry_Int_Tables_number       1
_space_group_crystal_system       triclinic
_cell_length_a                    10.322365
_cell_length_b                    10.762633
_cell_length_c                    12.140479
_cell_angle_alpha                 90.964912
_cell_angle_beta                  109.335519
_cell_angle_gamma                 96.366808
_cell_volume                      1262.76726267

loop_
_atom_site_label
_atom_site_type_symbol
_atom_site_description
_atom_site_fract_x
_atom_site_fract_y
_atom_site_fract_z
_atom_type_partial_charge
O1    O     O_R   0.936910 0.692950 0.509080 -0.582875
O2    O     O_R   0.138320 0.658600 0.480130 -0.520855
C1    C     C_R   0.052429 0.732084 0.492719 0.972429
O3    O     O_R   0.002900 0.525670 0.675280 -0.609043
O4    O     O_R   0.204310 0.491320 0.646330 -0.625590
C2    C     C_R   0.131794 0.505743 0.714531 0.862884
Zn1   Zn    Zn3+2 0.865520 0.522940 0.519330 1.050809
Zn2   Zn    Zn3+2 0.134480 0.477060 0.480670 0.994183
O5    O     O_R   0.861680 0.341400 0.519870 -0.593221
O6    O     O_R   0.063090 0.307050 0.490920 -0.650692
O7    O     O_R   0.795690 0.508680 0.353670 -0.574369
O8    O     O_R   0.997100 0.474330 0.324720 -0.637440
C3    C     C_R   0.948798 0.267516 0.508717 0.931162
C4    C     C_R   0.865927 0.487354 0.284744 0.871795
C5    C     C_R   0.711550 0.317720 0.988801 -0.157366
H1    H     H_    0.496245 0.227947 0.804044 0.155588
H2    H     H_    0.732429 0.246430 0.934858 0.182913
C6    C     C_R   0.787421 0.463290 0.159285 -0.210409
C7    C     C_R   0.155265 0.570126 0.917687 -0.290675
C8    C     C_R   0.235680 0.587980 0.035743 0.003940
C9    C     C_R   0.367242 0.547879 0.072974 -0.025605
C10   C     C_R   0.415026 0.482947 0.994508 0.066477
C11   C     C_R   0.320632 0.443304 0.883433 0.087163
C12   C     C_R   0.552207 0.452406 0.023759 0.095371
C13   C     C_R   0.580084 0.356505 0.956478 0.113050
C14   C     C_R   0.476914 0.302156 0.855869 -0.234863
C15   C     C_R   0.349510 0.346959 0.818110 -0.201271
C16   C     C_R   0.663253 0.516615 0.115251 -0.079270
C17   C     C_R   0.815648 0.368305 0.091011 -0.028632
C18   C     C_R   0.200073 0.502112 0.840455 -0.096582
H3    H     H_    0.059409 0.611333 0.885682 0.176008
H4    H     H_    0.430119 0.565013 0.163843 0.202324
H5    H     H_    0.272665 0.303433 0.738857 0.157659
H6    H     H_    0.123573 0.105991 0.550080 0.175788
C19   C     C_2   0.091299 0.865326 0.500771 -0.274468
C20   C     C_2   0.992685 0.939021 0.458101 0.018732
H7    H     H_    0.805673 0.093610 0.472207 0.172829
C21   C     C_2   0.913619 0.133405 0.501684 -0.322258
C22   C     C_2   0.016151 0.064608 0.510833 -0.218782
H8    H     H_    0.190447 0.901325 0.565452 0.151443
N1    N     N_2   0.313640 0.446500 0.454900 -0.182857
C23   C     C_2   0.437162 0.499598 0.521535 -0.030913
N2    N     N_2   0.686360 0.553430 0.545150 -0.044296
C24   C     C_2   0.573338 0.472348 0.509875 -0.016455
C25   C     C_2   0.953099 0.323609 0.120576 0.415135
H9    H     H_    0.046218 0.386571 0.164024 0.090930
O9    O     O_2   0.963993 0.216720 0.092685 -0.534055
C26   C     C_2   0.873515 0.901742 0.349912 0.493626
H10   H     H_    0.772653 0.930735 0.338195 0.095830
O10   O     O_2   0.890845 0.843787 0.269621 -0.573332
C27   C     C_2   0.582668 0.341638 0.478349 0.485745
H11   H     H_    0.559795 0.267276 0.530828 -0.007847
O11   O     O_2   0.605194 0.315177 0.388762 -0.496134
C28   C     C_2   0.451147 0.580146 0.625587 0.587372
H12   H     H_    0.520276 0.559351 0.710515 0.008892
O12   O     O_2   0.395134 0.675152 0.616520 -0.496803
N3    N     N_R   0.668597 0.679591 0.549908 0.282456
O13   O     O_R   0.757475 0.754443 0.632142 -0.365048
O14   O     O_R   0.584953 0.727535 0.459994 -0.348862
C29   C     C_2   0.293037 0.372321 0.351092 0.552430
H13   H     H_    0.214289 0.291815 0.327606 0.062718
O15   O     O_2   0.354277 0.402857 0.283566 -0.566180
C30   C     C_2   0.659507 0.647754 0.153248 0.444456
H14   H     H_    0.695269 0.677840 0.244848 0.130970
O16   O     O_2   0.615083 0.723784 0.080901 -0.518719
C31   C     C_2   0.183493 0.653389 0.117648 0.438568
H15   H     H_    0.081746 0.684610 0.086240 0.081461
O17   O     O_2   0.252660 0.672650 0.220973 -0.497371

loop_
_geom_bond_atom_site_label_1
_geom_bond_atom_site_label_2
_geom_bond_distance
_ccdc_geom_bond_type
O1    C1    1.298850 A    
O4    Zn2   1.895548 S    
C31   O17   1.221321 D    
N2    C24   1.317867 D    
C30   O16   1.221490 D    
C5    C17   1.398340 A    
H7    C21   1.085365 S    
Zn1   N2    2.034963 S    
C16   C30   1.486046 S    
N1    C23   1.321562 D    
C4    C6    1.471910 S    
C7    C8    1.395597 A    
C1    C19   1.438296 S    
Zn2   O8    1.951259 S    
C7    H3    1.084082 S    
C8    C9    1.401747 A    
C10   C12   1.418966 A    
C26   O10   1.221063 D    
C19   H8    1.088021 S    
C14   C15   1.386019 A    
C31   H15   1.085712 S    
C27   H11   1.084923 S    
C6    C17   1.419313 A    
O1    Zn1   1.917256 S    
C25   H9    1.081253 S    
C12   C13   1.417197 A    
C29   O15   1.218955 D    
Zn1   O7    1.895548 S    
C28   H12   1.085524 S    
C3    C21   1.442773 S    
C21   C22   1.333968 D    
C23   C24   1.517808 S    
O3    Zn1   1.951259 S    
C5    H2    1.085012 S    
C24   C27   1.473478 S    
O3    C2    1.300066 A    
C26   H10   1.084921 S    
C2    C18   1.459459 S    
O8    C4    1.302987 A    
C20   C26   1.483992 S    
N3    O13   1.299956 A    
C11   C15   1.410808 A    
C25   O9    1.221276 D    
H1    C14   1.084044 S    
O4    C2    1.304546 A    
C9    H4    1.079231 S    
C28   O12   1.218485 D    
C5    C13   1.395818 A    
N3    O14   1.302677 A    
N2    N3    1.392928 S    
C30   H14   1.080425 S    
C11   C18   1.406188 A    
C23   C28   1.477417 S    
C6    C16   1.406307 A    
Zn2   N1    2.034884 S    
Zn2   O6    1.917258 S    
C8    C31   1.479796 S    
O7    C4    1.307949 A    
Zn1   O5    1.950018 S    
O5    C3    1.301890 A    
C10   C11   1.402934 A    
O2    C1    1.294637 A    
O2    Zn2   1.950015 S    
C13   C14   1.394496 A    
C9    C10   1.415746 A    
C7    C18   1.402877 A    
H6    C22   1.090141 S    
O6    C3    1.296201 A    
C20   C22   1.446027 S    
C15   H5    1.082331 S    
C12   C16   1.407336 A    
N1    C29   1.421929 S    
C17   C25   1.480965 S    
C29   H13   1.083876 S    
C27   O11   1.220588 D    
C19   C20   1.333167 D    
