data_mof_unit_1345.cif
_audit_creation_date              2012-12-10T17:05:23-0500
_audit_creation_method            fapswitch 2.2
_symmetry_space_group_name_H-M    P1
_symmetry_Int_Tables_number       1
_space_group_crystal_system       triclinic
_cell_length_a                    10.035209
_cell_length_b                    10.732903
_cell_length_c                    15.523948
_cell_angle_alpha                 90.18348
_cell_angle_beta                  67.842677
_cell_angle_gamma                 90.25879
_cell_volume                      1548.54191524

loop_
_atom_site_label
_atom_site_type_symbol
_atom_type_description
_atom_site_fract_x
_atom_site_fract_y
_atom_site_fract_z
_atom_type_partial_charge
C1    C     C_R   0.498337 0.737303 0.503727 0.800561
C2    C     C_R   0.738014 0.483775 0.029557 0.177537
C3    C     C_R   0.594169 0.449732 0.084450 0.096088
C4    C     C_R   0.410037 0.498783 0.675916 0.879279
C5    C     C_R   0.835823 0.512444 0.071842 -0.216396
C6    C     C_R   0.790258 0.513963 0.168416 -0.201832
C7    C     C_R   0.551050 0.453002 0.181003 -0.261679
C8    C     C_2   0.620027 0.066857 0.483904 -0.133305
C9    C     C_2   0.510524 0.132220 0.479307 -0.250277
C10   C     C_2   0.616673 0.933088 0.477960 -0.213489
C11   C     C_2   0.493362 0.869375 0.517326 0.297470
C12   C     C_R   0.427478 0.448868 0.907568 0.097378
C13   C     C_2   0.108581 0.435431 0.441724 -0.114584
C14   C     C_2   0.956865 0.430934 0.444631 -0.137652
C15   C     C_R   0.502476 0.262889 0.495251 0.914802
C16   C     C_R   0.590018 0.497951 0.324137 0.864193
C17   C     C_R   0.356182 0.479968 0.776298 -0.059210
C18   C     C_R   0.646358 0.487709 0.222999 -0.059426
C19   C     C_R   0.187287 0.387535 0.917115 -0.218838
C20   C     C_R   0.221453 0.426288 0.825490 -0.196449
C21   C     C_R   0.453558 0.497691 0.819624 -0.249180
C22   C     C_R   0.289572 0.398261 0.958485 0.177482
C23   C     C_R   0.534563 0.451476 0.946335 0.069449
C24   C     C_R   0.494607 0.423653 0.041749 0.069448
C25   C     C_R   0.356303 0.372240 0.091138 -0.228288
C26   C     C_R   0.256485 0.358163 0.049412 -0.238432
C27   C     C_R   0.680681 0.478777 0.892404 -0.223050
C28   C     C_R   0.781042 0.492594 0.933501 -0.242515
H1    H     H_    0.152147 0.317673 0.089045 0.148400
H2    H     H_    0.440629 0.435589 0.225190 0.153563
H3    H     H_    0.865735 0.539856 0.200183 0.160106
H4    H     H_    0.082913 0.345796 0.954586 0.145867
H5    H     H_    0.145154 0.410661 0.792421 0.158013
H6    H     H_    0.551333 0.548511 0.782372 0.152108
H7    H     H_    0.323817 0.337920 0.161339 0.140245
H8    H     H_    0.721300 0.486998 0.817652 0.149352
H9    H     H_    0.292323 0.862466 0.602334 0.335880
H10   H     H_    0.891444 0.515304 0.890269 0.147906
H11   H     H_    0.945838 0.538393 0.030408 0.149156
H12   H     H_    0.712492 0.110664 0.491947 0.166926
H13   H     H_    0.424516 0.088868 0.463249 0.193314
H14   H     H_    0.718005 0.886386 0.440120 0.132229
H15   H     H_    0.188784 0.380449 0.388592 0.150341
H16   H     H_    0.072024 0.546348 0.552086 0.156629
H17   H     H_    0.934798 0.367771 0.396900 0.152874
H18   H     H_    0.873877 0.562641 0.541400 0.163190
N1    N     N_2   0.148330 0.498670 0.499030 -0.186746
N2    N     N_2   0.852680 0.498640 0.499000 -0.188479
O1    O     O_R   0.386950 0.680940 0.500010 -0.609468
O2    O     O_R   0.613110 0.680900 0.499990 -0.623930
O3    O     O_R   0.322330 0.500030 0.632270 -0.614588
O4    O     O_R   0.548480 0.499990 0.632240 -0.607997
O5    O     O_R   0.386890 0.319100 0.500010 -0.607374
O6    O     O_R   0.613050 0.319060 0.499990 -0.609579
O7    O     O_R   0.451520 0.500010 0.367760 -0.611886
O8    O     O_R   0.677670 0.499970 0.367730 -0.612963
O9    O     O_3   0.367838 0.926701 0.575294 -0.769050
Zn1   Zn    Zn3+2 0.349000 0.500030 0.500020 0.945899
Zn2   Zn    Zn3+2 0.651000 0.499970 0.499980 0.940978

loop_
_geom_bond_atom_site_label_1
_geom_bond_atom_site_label_2
_ccdc_geom_bond_type
C14   N2    D    
O5    Zn1   S    
C16   O8    A    
C26   H1    S    
O4    Zn2   S    
C23   C27   A    
C27   H8    S    
C10   H14   S    
H16   N1    S    
C1    O2    A    
C9    H13   S    
C19   C20   A    
C1    C11   S    
O8    Zn2   S    
C28   H10   S    
C23   C24   A    
C7    C18   A    
C19   H4    S    
C17   C20   A    
C6    H3    S    
C9    C15   S    
C16   O7    A    
O3    Zn1   S    
C13   C14   S    
N1    Zn1   S    
C12   C23   A    
C3    C24   A    
C4    O4    A    
O2    Zn2   S    
C15   O5    A    
C16   C18   S    
C25   H7    S    
C2    C3    A    
C14   H17   S    
C3    C7    A    
O6    Zn2   S    
C5    H11   S    
C5    C6    A    
C6    C18   A    
H18   N2    S    
C2    C5    A    
C10   C11   D    
C4    C17   S    
C4    O3    A    
C15   O6    A    
C12   C22   A    
C13   H15   S    
C19   C22   A    
C24   C25   A    
C7    H2    S    
N2    Zn2   S    
C20   H5    S    
C22   C26   A    
O7    Zn1   S    
C27   C28   A    
C13   N1    D    
C2    C28   A    
C21   H6    S    
C8    H12   S    
C25   C26   A    
C11   O9    S    
C1    O1    A    
C12   C21   A    
C8    C10   S    
H9    O9    S    
O1    Zn1   S    
C8    C9    D    
C17   C21   A    
