data_mof_unit_2577.cif
_audit_creation_date              2013-03-05T15:40:52-0500
_audit_creation_method            fapswitch 2.2
_symmetry_space_group_name_H-M    P1
_symmetry_Int_Tables_number       1
_space_group_crystal_system       triclinic
_cell_length_a                    16.708408
_cell_length_b                    16.896652
_cell_length_c                    16.828957
_cell_angle_alpha                 65.314818
_cell_angle_beta                  65.043797
_cell_angle_gamma                 65.166935
_cell_volume                      3738.56535361

loop_
_atom_site_label
_atom_site_type_symbol
_atom_site_description
_atom_site_fract_x
_atom_site_fract_y
_atom_site_fract_z
_atom_type_partial_charge
O1    O     O_R   0.982940 0.138950 0.510160 -0.617905
O2    O     O_R   0.017060 0.861050 0.489840 -0.605039
O3    O     O_R   0.138950 0.510160 0.982940 -0.611041
O4    O     O_R   0.861050 0.489840 0.017060 -0.619162
O5    O     O_R   0.510160 0.982940 0.138950 -0.604524
O6    O     O_R   0.489840 0.017060 0.861050 -0.560291
O7    O     O_R   0.489840 0.861050 0.017060 -0.610893
O8    O     O_R   0.510160 0.138950 0.982940 -0.589977
O9    O     O_R   0.017060 0.489840 0.861050 -0.584618
O10   O     O_R   0.982940 0.510160 0.138950 -0.584576
O11   O     O_R   0.861050 0.017060 0.489840 -0.561143
O12   O     O_R   0.138950 0.982940 0.510160 -0.591615
O13   O     O_R   0.867700 0.025880 0.612340 -0.651316
O14   O     O_R   0.132300 0.974120 0.387660 -0.647109
O15   O     O_R   0.025880 0.612340 0.867700 -0.675826
O16   O     O_R   0.974120 0.387660 0.132300 -0.644961
O17   O     O_R   0.612340 0.867700 0.025880 -0.640427
O18   O     O_R   0.387660 0.132300 0.974120 -0.628382
O19   O     O_R   0.387660 0.974120 0.132300 -0.645436
O20   O     O_R   0.612340 0.025880 0.867700 -0.662934
O21   O     O_R   0.132300 0.387660 0.974120 -0.633841
O22   O     O_R   0.867700 0.612340 0.025880 -0.625739
O23   O     O_R   0.974120 0.132300 0.387660 -0.655405
O24   O     O_R   0.025880 0.867700 0.612340 -0.648982
C1    C     C_R   0.412280 0.006230 0.680936 0.472082
C2    C     C_R   0.509333 0.099185 0.313477 0.465338
C3    C     C_R   0.921934 0.703571 0.459294 0.430254
C4    C     C_R   0.086217 0.330317 0.504761 0.450270
C5    C     C_R   0.699897 0.424150 0.967819 0.463770
C6    C     C_R   0.323091 0.530579 0.075625 0.469864
C7    C     C_R   0.367436 0.907884 0.598418 0.473274
C8    C     C_R   0.655159 0.061223 0.395327 0.459867
C9    C     C_R   0.607049 0.357667 0.904960 0.462249
C10   C     C_R   0.420563 0.676661 0.990397 0.436930
C11   C     C_R   0.872823 0.604506 0.374855 0.468073
C12   C     C_R   0.050400 0.405962 0.651970 0.465676
C13   C     C_R   0.977313 0.177922 0.430405 0.960930
C14   C     C_R   0.019676 0.823660 0.570016 0.975267
C15   C     C_R   0.175605 0.428887 0.984418 0.972821
C16   C     C_R   0.839453 0.575534 0.991667 0.929577
C17   C     C_R   0.429486 0.980298 0.176546 1.007051
C18   C     C_R   0.562453 0.037452 0.819851 0.873919
C19   C     C_R   0.575471 0.835029 0.996220 0.950980
C20   C     C_R   0.437833 0.179814 0.962102 0.949067
C21   C     C_R   0.036789 0.562240 0.819889 0.897072
C22   C     C_R   0.957295 0.440005 0.179561 0.980475
C23   C     C_R   0.819619 0.039729 0.561166 0.942208
C24   C     C_R   0.179897 0.958800 0.439493 0.955626
Zn1   Zn    Zn3+2 0.004880 0.004880 0.583590 0.889693
Zn2   Zn    Zn3+2 0.995120 0.995120 0.416410 0.934894
Zn3   Zn    Zn3+2 0.004880 0.583590 0.004880 0.928281
Zn4   Zn    Zn3+2 0.995120 0.416410 0.995120 0.938932
Zn5   Zn    Zn3+2 0.583590 0.004880 0.004880 0.902019
Zn6   Zn    Zn3+2 0.416410 0.995120 0.995120 0.961850
C25   C     C_R   0.446750 0.043727 0.715189 0.484235
C26   C     C_R   0.476779 0.075123 0.263994 0.380355
C27   C     C_R   0.926069 0.742696 0.516369 0.434369
C28   C     C_R   0.066176 0.277048 0.473009 0.388543
C29   C     C_R   0.753649 0.480201 0.946226 0.415340
C30   C     C_R   0.270034 0.489379 0.065608 0.368822
C31   C     C_R   0.310123 0.905043 0.557751 0.377745
C32   C     C_R   0.703002 0.076990 0.437564 0.441782
C33   C     C_R   0.561747 0.302160 0.907897 0.392776
C34   C     C_R   0.472471 0.735974 0.968622 0.390376
C35   C     C_R   0.878866 0.559790 0.316620 0.406276
C36   C     C_R   0.072239 0.448346 0.693144 0.466217
C37   C     C_R   0.537870 0.027532 0.540646 -0.146996
C38   C     C_R   0.443981 0.998540 0.454267 -0.138371
C39   C     C_R   0.988179 0.553628 0.552078 -0.116441
C40   C     C_R   0.972457 0.465679 0.449920 -0.115990
C41   C     C_R   0.560825 0.550856 0.982565 -0.149791
C42   C     C_R   0.463702 0.445060 0.989106 -0.152090
C43   C     C_R   0.568193 0.045202 0.445438 -0.036241
C44   C     C_R   0.423211 0.966791 0.549870 -0.057369
C45   C     C_R   0.020516 0.457803 0.572506 -0.068750
C46   C     C_R   0.929986 0.561251 0.434445 -0.075636
C47   C     C_R   0.464057 0.582087 0.004337 -0.018071
C48   C     C_R   0.560384 0.419894 0.956806 -0.054222
C49   C     C_R   0.509714 0.046224 0.403178 -0.048069
C50   C     C_R   0.459709 0.994925 0.592915 -0.059149
C51   C     C_R   0.416074 0.520316 0.023378 -0.041904
C52   C     C_R   0.607394 0.464173 0.969578 -0.036561
C53   C     C_R   0.024262 0.416685 0.512153 -0.051451
C54   C     C_R   0.945751 0.607074 0.480537 -0.068605
C55   C     C_R   0.540174 0.047739 0.674953 -0.094588
C56   C     C_R   0.422671 0.012123 0.312960 -0.093544
C57   C     C_R   0.981003 0.691040 0.576204 -0.111873
C58   C     C_R   0.999340 0.321280 0.424397 -0.072670
C59   C     C_R   0.707349 0.568315 0.960900 -0.073358
C60   C     C_R   0.316558 0.426022 0.012253 -0.080939
C61   C     C_R   0.327856 0.941172 0.461472 -0.058813
C62   C     C_R   0.669416 0.063585 0.534443 -0.084991
C63   C     C_R   0.464032 0.323768 0.945788 -0.044228
C64   C     C_R   0.565769 0.697419 0.974478 -0.066850
C65   C     C_R   0.925332 0.465702 0.330148 -0.094173
C66   C     C_R   0.041193 0.543723 0.674123 -0.071270
C67   C     C_R   0.588406 0.061983 0.719215 -0.149532
C68   C     C_R   0.392062 0.973760 0.272339 -0.103979
C69   C     C_R   0.020777 0.729146 0.608184 -0.103217
C70   C     C_R   0.966332 0.275938 0.393384 -0.135693
C71   C     C_R   0.754543 0.620278 0.963975 -0.116895
C72   C     C_R   0.272334 0.391522 0.981125 -0.087521
C73   C     C_R   0.281124 0.931992 0.413406 -0.103359
C74   C     C_R   0.717544 0.069270 0.585068 -0.067310
C75   C     C_R   0.411533 0.279045 0.940896 -0.085827
C76   C     C_R   0.618941 0.748226 0.972603 -0.100840
C77   C     C_R   0.925388 0.414806 0.280604 -0.049708
C78   C     C_R   0.055833 0.589555 0.719684 -0.076720
C79   C     C_R   0.667948 0.088981 0.667640 0.022658
C80   C     C_R   0.328578 0.923435 0.326960 0.034284
C81   C     C_R   0.069874 0.672579 0.671366 0.010567
C82   C     C_R   0.917917 0.327958 0.328052 0.000585
C83   C     C_R   0.715343 0.713540 0.950226 0.056899
C84   C     C_R   0.326364 0.329965 0.930067 0.032473
C85   C     C_R   0.583203 0.045303 0.583477 -0.115634
C86   C     C_R   0.398712 0.983384 0.409640 -0.085716
C87   C     C_R   0.002851 0.595956 0.600902 -0.105127
C88   C     C_R   0.964558 0.417807 0.402394 -0.097288
C89   C     C_R   0.610987 0.605368 0.973868 -0.091342
C90   C     C_R   0.414812 0.398171 0.982904 -0.084213
O25   O     O_3   0.326467 0.991449 0.729678 -0.581375
C91   C     C_3   0.255175 0.073411 0.711490 -0.281473
H1    H     H_    0.273172 0.117914 0.639601 0.163623
H2    H     H_    0.234280 0.111412 0.760520 0.229757
H3    H     H_    0.192959 0.056410 0.724327 0.140494
O26   O     O_3   0.540845 0.175051 0.273027 -0.571667
C92   C     C_3   0.467106 0.250040 0.297041 -0.342659
H4    H     H_    0.443996 0.239213 0.372215 0.158533
H5    H     H_    0.408295 0.264055 0.273210 0.173425
H6    H     H_    0.491475 0.311392 0.262807 0.178015
O27   O     O_3   0.898083 0.762558 0.381031 -0.553890
C93   C     C_3   0.979642 0.773358 0.309139 -0.299339
H7    H     H_    0.026049 0.707324 0.295166 0.150974
H8    H     H_    0.016790 0.804541 0.323955 0.152714
H9    H     H_    0.960566 0.820259 0.245950 0.177891
O28   O     O_3   0.168528 0.298915 0.524930 -0.573709
C94   C     C_3   0.232434 0.339829 0.448920 -0.371895
H10   H     H_    0.208243 0.415299 0.434310 0.156833
H11   H     H_    0.246899 0.320848 0.387269 0.178482
H12   H     H_    0.298211 0.314498 0.465258 0.172960
O29   O     O_3   0.736216 0.330129 0.989349 -0.618925
C95   C     C_3   0.709743 0.293264 0.085602 -0.378376
H13   H     H_    0.633444 0.307506 0.114905 0.201520
H14   H     H_    0.735692 0.319369 0.117979 0.161247
H15   H     H_    0.740698 0.218134 0.102934 0.213048
O30   O     O_3   0.285108 0.578679 0.138838 -0.573322
C96   C     C_3   0.297359 0.516695 0.223469 -0.374101
H16   H     H_    0.372007 0.483708 0.218418 0.157143
H17   H     H_    0.261710 0.464092 0.249047 0.174892
H18   H     H_    0.266120 0.554763 0.274683 0.188784
O31   O     O_3   0.378002 0.843744 0.680492 -0.574881
C97   C     C_3   0.454658 0.768522 0.659999 -0.357634
H19   H     H_    0.519893 0.787934 0.623745 0.160841
H20   H     H_    0.444328 0.738282 0.618845 0.163957
H21   H     H_    0.463102 0.714434 0.724516 0.174691
O32   O     O_3   0.694625 0.060404 0.304839 -0.605472
C98   C     C_3   0.729457 0.969143 0.302128 -0.374843
H22   H     H_    0.775291 0.967416 0.231895 0.186645
H23   H     H_    0.672820 0.942039 0.317237 0.178883
H24   H     H_    0.771315 0.923503 0.350072 0.217865
O33   O     O_3   0.695193 0.355723 0.845007 -0.573624
C99   C     C_3   0.687616 0.422527 0.760922 -0.353588
H25   H     H_    0.654816 0.492288 0.769180 0.157850
H26   H     H_    0.648598 0.409589 0.730161 0.170492
H27   H     H_    0.758044 0.419531 0.712186 0.185389
O34   O     O_3   0.329636 0.712446 0.988974 -0.605031
C100  C     C_3   0.326923 0.722199 0.902594 -0.334659
H28   H     H_    0.353698 0.655774 0.888095 0.149410
H29   H     H_    0.365783 0.769429 0.847640 0.250327
H30   H     H_    0.253997 0.752490 0.901951 0.176808
O35   O     O_3   0.804651 0.687014 0.376422 -0.528621
C101  C     C_3   0.732571 0.674965 0.459609 -0.327122
H31   H     H_    0.754459 0.661900 0.518890 0.157789
H32   H     H_    0.706444 0.618979 0.471514 0.125318
H33   H     H_    0.674159 0.738818 0.455862 0.181189
O36   O     O_3   0.064541 0.312567 0.688472 -0.566295
C102  C     C_3   0.979719 0.292968 0.720722 -0.369217
H34   H     H_    0.973590 0.271544 0.670204 0.156728
H35   H     H_    0.917294 0.350891 0.736577 0.170688
H36   H     H_    0.978957 0.234759 0.784192 0.178262
C103  C     C_3   0.694752 0.145613 0.696998 -0.347425
C104  C     C_3   0.715918 0.230469 0.620001 -0.856163
H37   H     H_    0.779866 0.211896 0.564728 0.248255
H38   H     H_    0.657406 0.271266 0.590531 0.255691
H39   H     H_    0.726096 0.273403 0.647979 0.254213
H40   H     H_    0.634723 0.171815 0.750554 0.263656
H41   H     H_    0.753438 0.103818 0.725820 0.219161
C105  C     C_3   0.310502 0.858709 0.298782 -0.354229
C106  C     C_3   0.396655 0.778720 0.279628 -0.862168
H42   H     H_    0.452971 0.801737 0.220036 0.270286
H43   H     H_    0.421944 0.741252 0.340718 0.248695
H44   H     H_    0.379110 0.731048 0.264448 0.243830
H45   H     H_    0.257102 0.827677 0.355384 0.191142
H46   H     H_    0.281831 0.894994 0.240105 0.227229
C107  C     C_3   0.147615 0.690417 0.679469 -0.343543
C108  C     C_3   0.228063 0.693484 0.590730 -0.789619
H47   H     H_    0.247968 0.632654 0.568578 0.226546
H48   H     H_    0.209262 0.755903 0.535242 0.249461
H49   H     H_    0.289067 0.692899 0.602188 0.270237
H50   H     H_    0.122448 0.752319 0.700283 0.238654
H51   H     H_    0.176110 0.634605 0.734226 0.191143
C109  C     C_3   0.858383 0.293694 0.309072 -0.328282
C110  C     C_3   0.771500 0.367192 0.286766 -0.883902
H52   H     H_    0.728578 0.398481 0.343538 0.247288
H53   H     H_    0.788940 0.420913 0.221766 0.259866
H54   H     H_    0.729962 0.335474 0.278979 0.265126
H55   H     H_    0.900273 0.261793 0.252661 0.222148
H56   H     H_    0.831604 0.242563 0.371826 0.253166
C111  C     C_3   0.777636 0.775960 0.899307 -0.385899
C112  C     C_3   0.765497 0.833303 0.804644 -0.859371
H57   H     H_    0.692006 0.871620 0.809496 0.249703
H58   H     H_    0.806196 0.882536 0.771431 0.258473
H59   H     H_    0.790698 0.788356 0.760861 0.257620
H60   H     H_    0.766157 0.820056 0.938880 0.227941
H61   H     H_    0.851864 0.736576 0.886232 0.216042
C113  C     C_3   0.319101 0.352787 0.835964 -0.393838
C114  C     C_3   0.337095 0.444657 0.774679 -0.867314
H62   H     H_    0.281831 0.501115 0.801161 0.251939
H63   H     H_    0.404675 0.444489 0.772227 0.260196
H64   H     H_    0.339176 0.458017 0.703663 0.240610
H65   H     H_    0.372611 0.300494 0.802698 0.187540
H66   H     H_    0.251119 0.353179 0.840121 0.261584
O37   O     O_3   0.382054 0.088847 0.778638 -0.581351
C115  C     C_3   0.364257 0.183136 0.735621 -0.379697
H67   H     H_    0.303811 0.217384 0.783931 0.218077
H68   H     H_    0.345990 0.203912 0.671820 0.156846
H69   H     H_    0.424418 0.205631 0.719438 0.163412
O38   O     O_3   0.489613 0.120277 0.171029 -0.598791
C116  C     C_3   0.583298 0.120614 0.123989 -0.108662
H70   H     H_    0.632651 0.077735 0.164833 0.139767
H71   H     H_    0.586282 0.191852 0.095951 0.166915
H72   H     H_    0.611643 0.091359 0.066854 0.166960
O39   O     O_3   0.870798 0.830365 0.517485 -0.571418
C117  C     C_3   0.778951 0.828041 0.567863 -0.336226
H73   H     H_    0.773665 0.764073 0.625442 0.136855
H74   H     H_    0.741827 0.838450 0.521260 0.184657
H75   H     H_    0.743248 0.883988 0.599866 0.188177
O40   O     O_3   0.123621 0.189283 0.471948 -0.588932
C118  C     C_3   0.136100 0.133917 0.559174 -0.167567
H76   H     H_    0.092949 0.087388 0.593866 0.176240
H77   H     H_    0.116987 0.169706 0.609516 0.158073
H78   H     H_    0.209533 0.092475 0.548908 0.160786
O41   O     O_3   0.846269 0.461923 0.891971 -0.617262
C119  C     C_3   0.897588 0.368689 0.915058 -0.108853
H79   H     H_    0.882311 0.329466 0.887515 0.178777
H80   H     H_    0.886947 0.338399 0.990150 0.145479
H81   H     H_    0.972143 0.361601 0.881777 0.184918
O42   O     O_3   0.176361 0.503192 0.114319 -0.605476
C120  C     C_3   0.128893 0.596636 0.109645 -0.104252
H82   H     H_    0.162750 0.644879 0.048251 0.132885
H83   H     H_    0.118731 0.608701 0.173675 0.170753
H84   H     H_    0.059230 0.614883 0.104834 0.179012
O43   O     O_3   0.246899 0.855611 0.608488 -0.608242
C121  C     C_3   0.189555 0.879472 0.690476 -0.193664
H85   H     H_    0.187013 0.946420 0.689599 0.112788
H86   H     H_    0.211789 0.825186 0.749532 0.180119
H87   H     H_    0.117369 0.885553 0.701286 0.152749
O44   O     O_3   0.766772 0.126274 0.384540 -0.624293
C122  C     C_3   0.837363 0.089969 0.313730 -0.161118
H88   H     H_    0.818765 0.124335 0.248848 0.174939
H89   H     H_    0.856090 0.014449 0.332424 0.165323
H90   H     H_    0.900881 0.105344 0.299959 0.156648
O45   O     O_3   0.609055 0.238574 0.859309 -0.625912
C123  C     C_3   0.693891 0.181246 0.878182 -0.229679
H91   H     H_    0.700845 0.182637 0.940509 0.138072
H92   H     H_    0.752318 0.199703 0.818100 0.193021
H93   H     H_    0.700650 0.109753 0.888741 0.160250
O46   O     O_3   0.444722 0.827179 0.917550 -0.609690
C124  C     C_3   0.352248 0.874293 0.957993 -0.043276
H94   H     H_    0.328221 0.846270 0.034021 0.120677
H95   H     H_    0.304551 0.877500 0.926195 0.177027
H96   H     H_    0.347218 0.946336 0.941939 0.188333
O47   O     O_3   0.833725 0.607672 0.250125 -0.569835
C125  C     C_3   0.742291 0.602365 0.287106 -0.269515
H97   H     H_    0.694847 0.662313 0.312087 0.196021
H98   H     H_    0.733584 0.538562 0.343338 0.119055
H99   H     H_    0.721138 0.604960 0.231589 0.184077
O48   O     O_3   0.142431 0.398273 0.733196 -0.583754
C126  C     C_3   0.226329 0.398440 0.660800 -0.376325
H100  H     H_    0.231020 0.468882 0.620682 0.157565
H101  H     H_    0.235900 0.361497 0.614598 0.204163
H102  H     H_    0.285100 0.362834 0.688585 0.178392

loop_
_geom_bond_atom_site_label_1
_geom_bond_atom_site_label_2
_geom_bond_distance
_ccdc_geom_bond_type
O35   C101  1.413107 S    
O9    C21   1.234193 A    
C98   H22   1.109301 S    
C68   C80   1.405369 A    
C48   C52   1.411852 A    
C125  H99   1.109581 S    
C3    O27   1.378304 S    
C77   C82   1.377521 A    
C7    C31   1.416603 A    
O11   C23   1.235665 A    
C118  H76   1.102864 S    
C82   C109  1.527400 S    
O12   C24   1.238116 A    
C122  H90   1.105109 S    
C115  H67   1.106813 S    
C46   C54   1.454615 A    
C92   H5    1.113682 S    
O12   Zn1   2.007910 S    
C103  H41   1.108629 S    
O45   C123  1.420570 S    
C100  H29   1.107142 S    
O14   Zn2   2.034207 S    
C20   C75   1.464702 S    
C119  H79   1.103520 S    
C114  H64   1.107558 S    
C94   H11   1.113091 S    
C80   C105  1.530901 S    
C120  H82   1.114737 S    
O26   C92   1.408202 S    
O4    Zn4   2.010951 S    
C73   C80   1.368214 A    
C13   C70   1.464254 S    
C29   O41   1.402023 S    
O32   C98   1.414623 S    
C96   H17   1.113024 S    
C57   C87   1.401720 A    
C116  H72   1.099654 S    
O18   C20   1.294155 A    
C123  H93   1.107541 S    
C10   C47   1.411384 A    
C29   C59   1.433349 A    
C74   C79   1.382615 A    
C28   O40   1.390243 S    
C12   C36   1.404815 A    
C9    C48   1.406511 A    
C11   C35   1.418595 A    
C38   C44   1.400375 A    
O41   C119  1.415347 S    
C1    C50   1.406189 A    
C67   C79   1.390268 A    
C61   C86   1.410438 A    
C21   C78   1.475976 S    
C56   C86   1.413144 A    
C125  H97   1.109566 S    
C2    O26   1.385432 S    
C126  H102  1.095956 S    
C39   C87   1.433464 A    
C106  H43   1.111087 S    
C37   C85   1.419848 A    
C113  H65   1.104864 S    
C60   C72   1.450413 A    
C121  H86   1.109506 S    
O2    Zn2   2.034630 S    
C96   H16   1.113423 S    
C63   C75   1.420180 A    
C16   C71   1.471120 S    
C8    O32   1.384393 S    
C10   O34   1.386103 S    
C111  H60   1.105481 S    
C112  H57   1.106978 S    
C5    C29   1.409686 A    
C123  H91   1.113540 S    
C102  H35   1.114808 S    
C6    C30   1.428767 A    
O10   C22   1.248461 A    
O24   C14   1.281240 A    
O31   C97   1.414522 S    
C39   C45   1.410203 A    
C37   C43   1.398396 A    
C63   C90   1.414551 A    
O7    C19   1.241118 A    
O39   C117  1.414326 S    
C32   O44   1.395448 S    
C99   H26   1.113476 S    
C42   C51   1.399350 A    
O48   C126  1.417279 S    
C101  H33   1.109582 S    
O1    C13   1.249070 A    
C41   C52   1.401802 A    
C38   C49   1.400879 A    
C66   C78   1.435517 A    
O3    C15   1.240728 A    
C98   H23   1.110673 S    
C109  H56   1.107140 S    
C11   O35   1.383190 S    
C4    C53   1.410957 A    
C95   H15   1.109330 S    
O9    Zn4   2.027393 S    
C117  H74   1.111057 S    
O6    Zn6   2.020114 S    
C108  H49   1.109957 S    
C1    O25   1.388605 S    
O10   Zn3   2.027393 S    
O38   C116  1.426537 S    
C94   H12   1.108251 S    
C101  H32   1.113704 S    
C6    O30   1.383552 S    
C100  H30   1.108793 S    
C57   C69   1.447921 A    
C65   C88   1.402781 A    
C5    O29   1.385021 S    
C110  H54   1.110821 S    
C11   C46   1.435888 A    
C120  H83   1.109729 S    
C70   C82   1.407810 A    
C95   H13   1.112312 S    
C109  C110  1.531909 S    
C26   O38   1.390343 S    
C76   C83   1.399743 A    
C35   O47   1.385346 S    
C59   C89   1.415201 A    
C66   C87   1.410902 A    
C55   C85   1.408041 A    
C96   H18   1.109256 S    
C113  C114  1.535200 S    
O37   C115  1.403944 S    
O16   Zn4   2.052220 S    
C34   O46   1.399404 S    
C18   C67   1.474113 S    
O16   C22   1.297663 A    
C100  H28   1.110981 S    
O13   C23   1.303618 A    
O3    Zn3   2.010951 S    
O22   C16   1.309943 A    
C14   C69   1.446297 S    
C7    C44   1.408563 A    
O14   C24   1.297794 A    
C107  C108  1.529576 S    
C121  H87   1.106668 S    
C122  H89   1.112458 S    
C114  H62   1.108708 S    
C103  C104  1.532069 S    
C24   C73   1.467831 S    
C36   O48   1.379449 S    
C27   C57   1.411085 A    
C32   C62   1.431996 A    
C105  C106  1.529982 S    
C104  H39   1.110588 S    
C60   C90   1.421793 A    
C25   C55   1.434690 A    
C106  H44   1.110604 S    
C9    O33   1.386069 S    
O17   C19   1.307143 A    
O4    C16   1.258493 A    
C116  H70   1.112603 S    
C72   C84   1.392259 A    
C12   C45   1.422194 A    
C84   C113  1.511353 S    
C99   H27   1.109140 S    
C110  H53   1.108719 S    
C64   C89   1.417678 A    
C75   C84   1.363075 A    
C62   C74   1.446745 A    
C26   C56   1.441012 A    
C111  C112  1.528449 S    
O21   C15   1.291831 A    
C97   H21   1.107317 S    
C47   C51   1.428801 A    
C9    C33   1.407478 A    
C102  H36   1.109038 S    
C69   C81   1.394881 A    
C22   C77   1.475796 S    
C42   C90   1.410835 A    
C10   C34   1.430391 A    
C7    O31   1.381377 S    
C43   C49   1.422229 A    
O7    Zn6   2.030388 S    
C118  H77   1.105803 S    
C91   H3    1.104231 S    
C111  H61   1.108247 S    
C97   H19   1.113482 S    
C40   C53   1.403694 A    
O8    C20   1.230694 A    
O25   C91   1.413669 S    
C58   C70   1.447495 A    
O30   C96   1.409711 S    
C65   C77   1.425584 A    
C38   C86   1.415773 A    
C93   H8    1.113559 S    
O13   Zn1   2.034207 S    
O20   Zn5   2.051686 S    
O19   Zn6   2.051686 S    
C108  H48   1.108888 S    
O36   C102  1.416965 S    
C97   H20   1.114001 S    
C105  H45   1.112185 S    
C30   O42   1.395134 S    
C98   H24   1.112791 S    
O15   Zn3   2.052220 S    
C109  H55   1.109718 S    
C124  H95   1.106251 S    
C3    C27   1.410368 A    
O34   C100  1.411260 S    
C95   H14   1.113635 S    
C114  H63   1.111211 S    
C117  H73   1.117202 S    
O15   C21   1.308730 A    
C91   H2    1.107312 S    
C122  H88   1.109575 S    
C115  H69   1.110188 S    
O17   Zn5   2.062048 S    
C8    C43   1.414745 A    
O42   C120  1.423103 S    
C27   O39   1.380955 S    
C15   C72   1.452699 S    
C25   O37   1.379702 S    
C107  H50   1.098104 S    
C79   C103  1.517206 S    
O24   Zn1   2.062329 S    
C3    C54   1.425761 A    
O5    C17   1.235526 A    
O40   C118  1.421562 S    
C64   C76   1.456575 A    
C120  H84   1.101656 S    
C31   O43   1.388128 S    
C23   C74   1.481036 S    
C104  H38   1.111058 S    
C59   C71   1.431545 A    
C4    O28   1.385172 S    
C19   C76   1.478228 S    
C37   C50   1.418791 A    
C1    C25   1.398970 A    
C61   C73   1.423942 A    
C108  H47   1.111000 S    
O23   Zn2   2.062327 S    
O27   C93   1.409709 S    
C115  H68   1.113974 S    
O8    Zn5   2.030386 S    
O20   C18   1.295927 A    
C103  H40   1.100809 S    
C119  H81   1.105334 S    
C12   O36   1.386747 S    
C92   H4    1.112131 S    
C107  H51   1.110134 S    
C6    C51   1.401853 A    
C4    C28   1.419033 A    
C99   H25   1.113113 S    
C112  H59   1.110840 S    
C33   O45   1.386644 S    
C94   H10   1.113094 S    
C33   C63   1.421539 A    
C112  H58   1.110361 S    
C2    C49   1.398088 A    
C71   C83   1.386407 A    
C78   C81   1.358991 A    
C41   C89   1.415813 A    
C58   C88   1.419850 A    
O2    C14   1.239423 A    
C121  H85   1.108088 S    
O44   C122  1.415731 S    
O5    Zn5   2.020114 S    
C126  H100  1.114049 S    
C34   C64   1.444710 A    
C5    C52   1.395418 A    
C116  H71   1.109117 S    
O11   Zn2   2.007910 S    
O33   C99   1.410507 S    
O29   C95   1.411224 S    
C40   C46   1.421710 A    
C45   C53   1.420352 A    
O43   C121  1.417374 S    
C41   C47   1.404219 A    
C40   C88   1.424960 A    
C93   H9    1.109224 S    
O1    Zn1   2.034630 S    
O23   C13   1.282442 A    
C119  H80   1.112262 S    
C93   H7    1.113573 S    
C118  H78   1.107294 S    
C125  H98   1.114607 S    
C126  H101  1.111948 S    
C36   C66   1.405601 A    
C106  H42   1.108013 S    
C56   C68   1.446612 A    
C62   C85   1.417435 A    
C113  H66   1.105499 S    
C92   H6    1.109100 S    
C55   C67   1.442719 A    
O18   Zn6   2.062050 S    
C2    C26   1.416118 A    
C105  H46   1.107831 S    
C101  H31   1.110804 S    
O19   C17   1.272409 A    
C35   C65   1.411418 A    
O46   C124  1.419957 S    
C123  H92   1.109961 S    
C102  H34   1.107242 S    
O6    C18   1.230105 A    
C124  H96   1.104707 S    
C42   C48   1.400337 A    
C39   C54   1.428975 A    
C17   C68   1.435510 S    
O28   C94   1.408237 S    
C30   C60   1.439245 A    
C44   C50   1.423563 A    
C8    C32   1.425391 A    
C110  H52   1.109893 S    
C31   C61   1.416463 A    
C91   H1    1.114714 S    
C124  H94   1.114721 S    
C28   C58   1.426222 A    
C117  H75   1.104562 S    
O21   Zn4   2.034463 S    
C104  H37   1.108533 S    
C81   C107  1.519627 S    
O22   Zn3   2.034461 S    
C83   C111  1.531179 S    
O47   C125  1.412586 S    
