data_mof_unit_3553.cif
_audit_creation_date              2012-12-11T17:41:40-0500
_audit_creation_method            fapswitch 2.2
_symmetry_space_group_name_H-M    P1
_symmetry_Int_Tables_number       1
_space_group_crystal_system       triclinic
_cell_length_a                    15.572386
_cell_length_b                    14.978602
_cell_length_c                    15.169735
_cell_angle_alpha                 109.803731
_cell_angle_beta                  121.399102
_cell_angle_gamma                 59.367596
_cell_volume                      2585.76858959

loop_
_atom_site_label
_atom_site_type_symbol
_atom_type_description
_atom_site_fract_x
_atom_site_fract_y
_atom_site_fract_z
_atom_type_partial_charge
C1    C     C_R   0.793692 0.952445 0.779891 -0.119489
C2    C     C_R   0.314025 0.379975 0.092699 -0.113434
C3    C     C_R   0.617936 0.717838 0.867148 -0.130610
C4    C     C_R   0.387005 0.275275 0.086893 -0.110560
C5    C     C_R   0.654475 0.785559 0.953288 0.109697
C6    C     C_R   0.346250 0.198158 0.035743 0.092761
C7    C     C_R   0.768091 0.752443 0.019811 -0.195822
C8    C     C_R   0.232029 0.226828 0.991903 -0.143022
C9    C     C_R   0.843750 0.654015 0.999700 -0.111007
C10   C     C_R   0.159682 0.331287 0.000807 -0.079319
C11   C     C_R   0.806644 0.587583 0.913452 -0.102598
C12   C     C_R   0.229324 0.021708 0.210975 -0.128985
C13   C     C_R   0.200638 0.407956 0.050880 -0.126869
C14   C     C_R   0.578532 0.923656 0.072166 -0.240726
C15   C     C_R   0.414913 0.056465 0.917792 -0.226345
C16   C     C_R   0.246886 0.290389 0.492011 -0.241742
C17   C     C_R   0.800713 0.726579 0.560028 -0.252250
C18   C     C_R   0.503633 0.022526 0.093676 0.078771
C19   C     C_R   0.492334 0.959421 0.897173 0.054352
C20   C     C_R   0.421186 0.089930 0.016255 -0.000300
C21   C     C_R   0.574272 0.890870 0.973854 0.027424
C22   C     C_2   0.156502 0.399069 0.616120 -0.150077
C23   C     C_R   0.216810 0.301689 0.567966 -0.002596
C24   C     C_2   0.977268 0.653401 0.538495 -0.159212
C25   C     C_2   0.132911 0.491022 0.596121 -0.136271
C26   C     C_2   0.036362 0.581398 0.604854 -0.130258
C27   C     C_2   0.962957 0.987417 0.860374 -0.237108
C28   C     C_2   0.116797 0.916893 0.102688 -0.204032
C29   C     C_R   0.143616 0.744934 0.379974 0.349778
C30   C     C_R   0.895827 0.175164 0.572937 0.247282
C31   C     C_R   0.248927 0.662164 0.398851 0.386587
C32   C     C_R   0.798799 0.239539 0.495795 0.434132
C33   C     C_R   0.288890 0.627056 0.323451 -0.099688
C34   C     C_R   0.861668 0.724350 0.517224 -0.001402
C35   C     C_R   0.720785 0.329185 0.524924 -0.107638
C36   C     C_R   0.217632 0.660274 0.223977 -0.299310
C37   C     C_R   0.745746 0.362156 0.629971 -0.323321
C38   C     C_R   0.108121 0.732133 0.201184 -0.402902
C39   C     C_R   0.846431 0.305638 0.706168 -0.297289
C40   C     C_R   0.596132 0.214994 0.493115 -0.091885
C41   C     C_R   0.407527 0.767853 0.447325 -0.098535
C42   C     C_R   0.071356 0.778647 0.280234 0.526319
C43   C     C_R   0.922331 0.211343 0.680224 0.504808
C44   C     C_R   0.415338 0.447342 0.341785 -0.249739
C45   C     C_R   0.508770 0.299146 0.440459 0.072307
C46   C     C_R   0.602138 0.483797 0.433559 -0.284267
C47   C     C_R   0.515067 0.375567 0.405774 0.067004
C48   C     C_R   0.498621 0.568743 0.404539 0.056833
C49   C     C_R   0.612354 0.391202 0.446942 0.191875
C50   C     C_R   0.402877 0.547598 0.348518 0.154745
C51   C     C_2   0.027925 0.907054 0.917761 -0.124544
C52   C     C_2   0.118815 0.915354 0.015236 -0.119018
C53   C     C_R   0.408205 0.986340 0.714433 -0.061441
C54   C     C_R   0.592571 0.003233 0.280467 -0.130330
C55   C     C_R   0.413311 0.290094 0.416027 -0.139174
C56   C     C_R   0.497913 0.673292 0.452211 0.088600
C57   C     C_R   0.591033 0.694516 0.519846 -0.129449
C58   C     C_R   0.591431 0.922608 0.794229 -0.103085
C59   C     C_R   0.408681 0.072888 0.203822 -0.123424
C60   C     C_R   0.245007 0.202379 0.583020 0.594969
C61   C     C_R   0.797654 0.811257 0.462458 0.578897
C62   C     C_R   0.794759 0.044371 0.690506 -0.143847
C63   C     C_R   0.220145 0.936478 0.299608 -0.165322
C64   C     C_R   0.852149 0.999324 0.782474 0.154473
C65   C     C_R   0.185757 0.956643 0.200895 0.155624
C66   C     C_3   0.929383 0.931727 0.208023 -0.315622
C67   C     C_R   0.498412 0.945011 0.802513 0.006850
C68   C     C_3   0.070940 0.056139 0.751815 -0.203943
C69   C     C_3   0.167981 0.858759 0.524577 -0.204574
C70   C     C_3   0.910867 0.012023 0.489017 -0.012642
C71   C     C_3   0.279163 0.569218 0.511827 -0.178738
C72   C     C_3   0.834116 0.228311 0.364091 -0.232564
C73   C     C_3   0.127365 0.173686 0.600383 -0.308574
C74   C     C_3   0.826493 0.780572 0.321651 -0.259444
C75   C     C_R   0.501462 0.042830 0.191470 0.049050
C76   C     C_R   0.693818 0.619443 0.847494 -0.097675
H1    H     H_    0.819280 0.902242 0.833919 0.084370
H2    H     H_    0.474548 0.254740 0.118755 0.123706
H3    H     H_    0.798121 0.803355 0.086343 0.152155
H4    H     H_    0.199433 0.168212 0.950853 0.149818
H5    H     H_    0.931128 0.629349 0.050884 0.115611
H6    H     H_    0.071789 0.352942 0.967431 0.114021
H7    H     H_    0.637488 0.869697 0.130877 0.123077
H8    H     H_    0.354400 0.110683 0.859038 0.183411
H9    H     H_    0.004213 0.578830 0.652035 0.132623
H10   H     H_    0.169638 0.495670 0.554650 0.119282
H11   H     H_    0.012435 0.654445 0.493361 0.148634
H12   H     H_    0.211694 0.060010 0.151097 0.088877
H13   H     H_    0.118428 0.395191 0.657007 0.152176
H14   H     H_    0.235717 0.351031 0.458921 0.126968
H15   H     H_    0.829355 0.678765 0.617553 0.127319
H16   H     H_    0.245993 0.628950 0.163660 0.176331
H17   H     H_    0.686734 0.432468 0.652572 0.181394
H18   H     H_    0.052701 0.751288 0.122143 0.168122
H19   H     H_    0.865204 0.334697 0.786990 0.169876
H20   H     H_    0.341315 0.433622 0.301889 0.132410
H21   H     H_    0.677267 0.493902 0.465535 0.129123
H22   H     H_    0.681070 0.184332 0.510349 0.087985
H23   H     H_    0.058817 0.895687 0.100597 0.129623
H24   H     H_    0.323019 0.782652 0.408697 0.089086
H25   H     H_    0.324291 0.000243 0.691135 0.128336
H26   H     H_    0.677034 0.983523 0.300180 0.157811
H27   H     H_    0.329436 0.333678 0.363748 0.088469
H28   H     H_    0.676819 0.640908 0.545838 0.100546
H29   H     H_    0.677040 0.884852 0.847449 0.104744
H30   H     H_    0.323467 0.112165 0.151419 0.096207
H31   H     H_    0.822960 0.077430 0.663025 0.087723
H32   H     H_    0.187726 0.900726 0.318581 0.089121
H33   H     H_    0.174616 0.938627 0.015549 0.130355
H34   H     H_    0.987348 0.049764 0.877314 0.154889
H35   H     H_    0.003409 0.845591 0.903658 0.133095
H36   H     H_    0.907808 0.905918 0.124248 0.141231
H37   H     H_    0.991861 0.964279 0.243097 0.141031
H38   H     H_    0.853026 0.996074 0.213513 0.186993
H39   H     H_    0.126009 0.026520 0.713646 0.165474
H40   H     H_    0.009021 0.022422 0.711152 0.140189
H41   H     H_    0.124605 0.028616 0.830264 0.136153
H42   H     H_    0.135555 0.926902 0.484766 0.144672
H43   H     H_    0.259115 0.817070 0.551568 0.150144
H44   H     H_    0.154174 0.887222 0.595400 0.162035
H45   H     H_    0.865246 0.511426 0.897879 0.097833
H46   H     H_    0.903594 0.991530 0.408779 0.223537
H47   H     H_    0.827192 0.042619 0.485021 0.089932
H48   H     H_    0.961389 0.939713 0.528141 0.187579
H49   H     H_    0.249685 0.516949 0.442089 0.088738
H50   H     H_    0.212321 0.623704 0.536927 0.174234
H51   H     H_    0.347434 0.519165 0.575336 0.159879
H52   H     H_    0.923441 0.175988 0.399856 0.159117
H53   H     H_    0.821620 0.311538 0.385279 0.122908
H54   H     H_    0.805097 0.212420 0.278676 0.158424
H55   H     H_    0.057926 0.247167 0.565994 0.129311
H56   H     H_    0.144467 0.489041 0.056310 0.113152
H57   H     H_    0.112484 0.161693 0.658034 0.239592
H58   H     H_    0.128853 0.105983 0.539896 0.151989
H59   H     H_    0.750701 0.765107 0.277072 0.110883
H60   H     H_    0.901239 0.705957 0.335042 0.155783
H61   H     H_    0.824504 0.821556 0.271772 0.213722
H62   H     H_    0.664821 0.567971 0.781224 0.110197
H63   H     H_    0.345479 0.439455 0.128898 0.118074
H64   H     H_    0.530761 0.741052 0.815444 0.115716
N1    N     N_R   0.705410 0.966550 0.689210 -0.044554
N2    N     N_R   0.556610 0.796750 0.548620 -0.038859
N3    N     N_R   0.556610 0.951620 0.703500 -0.045096
N4    N     N_R   0.443390 0.048380 0.296500 -0.040176
N5    N     N_R   0.294590 0.131500 0.522480 -0.107598
N6    N     N_R   0.705410 0.868500 0.477520 -0.097832
N7    N     N_R   0.705410 0.023370 0.632390 -0.048803
N8    N     N_R   0.294590 0.976630 0.367610 -0.048340
N9    N     N_R   0.294590 0.033450 0.310790 -0.042354
N10   N     N_R   0.294590 0.188320 0.465660 -0.069090
N11   N     N_R   0.705410 0.811680 0.534340 -0.067145
N12   N     N_R   0.556610 0.157790 0.497330 -0.046236
N13   N     N_R   0.443390 0.842210 0.502670 -0.053111
N14   N     N_R   0.443390 0.997080 0.657540 -0.041036
N15   N     N_R   0.556610 0.002920 0.342460 -0.042529
N16   N     N_R   0.443390 0.203250 0.451380 -0.035974
Ni1   Ni    Ni4+2 0.629830 0.882720 0.617850 0.203971
Ni2   Ni    Ni4+2 0.370170 0.117280 0.382150 0.203351
Ni3   Ni    Ni4+2 0.629830 0.013030 0.487540 0.224967
Ni4   Ni    Ni4+2 0.370170 0.986970 0.512460 0.198182
O1    O     O_3   0.963641 0.850498 0.261820 -0.615307
O2    O     O_3   0.023200 0.165965 0.763240 -0.638467
O3    O     O_3   0.111544 0.794173 0.459611 -0.594146
O4    O     O_3   0.965255 0.079685 0.543447 -0.683940
O5    O     O_3   0.319713 0.624658 0.495458 -0.603862
O6    O     O_3   0.772572 0.207789 0.391421 -0.610375
O7    O     O_3   0.229610 0.180377 0.652968 -0.651891
O8    O     O_3   0.830447 0.844464 0.415613 -0.660688

loop_
_geom_bond_atom_site_label_1
_geom_bond_atom_site_label_2
_ccdc_geom_bond_type
C63   C65   A    
C16   H14   S    
C18   C75   S    
C66   H37   S    
C32   O6    S    
C29   C42   A    
C1    H1    S    
C29   O3    S    
C17   H15   S    
C30   O4    S    
C73   O7    S    
N7    Ni3   S    
C73   H55   S    
C42   O1    S    
C72   H53   S    
C47   C49   A    
C11   H45   S    
C15   C19   A    
C46   C49   A    
C57   N2    A    
C72   H52   S    
C2    H63   S    
N11   Ni1   S    
C14   C21   A    
C35   C37   A    
C24   C26   D    
C38   C42   A    
C11   C76   A    
C40   H22   S    
C55   H27   S    
C69   H42   S    
C33   C36   A    
C56   C57   A    
C40   N12   A    
C48   C56   S    
C4    H2    S    
N8    Ni4   S    
C2    C13   A    
C14   C18   A    
C62   C64   A    
C70   H47   S    
C22   H13   S    
N12   N16   A    
C27   H34   S    
C53   H25   S    
C22   C25   D    
C74   H60   S    
C35   C49   S    
C31   C33   A    
C71   H50   S    
C19   C67   S    
N10   Ni2   S    
N9    Ni2   S    
N5    N10   A    
C44   C47   A    
C36   H16   S    
C48   C50   A    
N12   Ni3   S    
C53   N14   A    
C71   H51   S    
C17   N11   A    
C14   H7    S    
C58   N3    A    
C74   O8    S    
C27   C51   D    
N3    Ni1   S    
C41   N13   A    
C45   C47   S    
C23   C60   A    
C74   H61   S    
C46   C48   A    
C60   O7    S    
C12   H12   S    
N15   Ni3   S    
C51   C52   S    
C59   H30   S    
C32   C35   A    
C31   O5    S    
N8    N9    A    
C4    C6    A    
C54   N15   A    
C5    C7    A    
N5    Ni4   S    
N3    N14   A    
C39   C43   A    
C62   H31   S    
C25   C26   S    
C10   H6    S    
C34   C61   A    
C24   C34   S    
N6    N11   A    
C66   O1    S    
C15   C20   A    
C2    C4    A    
C61   N6    A    
C41   C56   A    
N14   Ni4   S    
C44   H20   S    
C68   H41   S    
C70   H46   S    
C74   H59   S    
C38   H18   S    
C41   H24   S    
C37   H17   S    
C3    C76   A    
C9    C11   A    
C39   H19   S    
C68   H40   S    
C28   H23   S    
N1    Ni1   S    
C46   H21   S    
C73   H57   S    
C59   N4    A    
C16   C23   A    
C68   O2    S    
C62   N7    A    
C71   O5    S    
C30   C43   A    
C60   N5    A    
N2    Ni1   S    
N4    Ni2   S    
C1    C64   A    
C59   C75   A    
C63   N8    A    
C7    H3    S    
C44   C50   A    
C7    C9    A    
C57   H28   S    
C51   H35   S    
C55   N16   A    
C66   H38   S    
C19   C21   A    
C72   O6    S    
C12   N9    A    
C54   H26   S    
C8    C10   A    
C69   O3    S    
C3    C5    A    
C10   C13   A    
C70   O4    S    
C6    C8    A    
C72   H54   S    
C15   H8    S    
N6    Ni3   S    
C76   H62   S    
C6    C20   S    
C12   C65   A    
C69   H44   S    
C61   O8    S    
C40   C45   A    
C58   H29   S    
N4    N15   A    
N16   Ni2   S    
C28   C65   S    
C33   C50   S    
C29   C31   A    
C30   C32   A    
C28   C52   D    
C52   H33   S    
N13   Ni4   S    
C26   H9    S    
C36   C38   A    
C25   H10   S    
C13   H56   S    
C69   H43   S    
C18   C20   A    
N2    N13   A    
C53   C67   A    
C24   H11   S    
C1    N1    A    
C27   C64   S    
N1    N7    A    
C68   H39   S    
C54   C75   A    
C43   O2    S    
C70   H48   S    
C58   C67   A    
C5    C21   S    
C73   H58   S    
C45   C55   A    
C37   C39   A    
C17   C34   A    
C8    H4    S    
C22   C23   S    
C71   H49   S    
C16   N10   A    
C3    H64   S    
C66   H36   S    
C63   H32   S    
C9    H5    S    
