data_mof_unit_1453.cif
_audit_creation_date              2012-12-10T19:11:26-0500
_audit_creation_method            fapswitch 2.2
_symmetry_space_group_name_H-M    P1
_symmetry_Int_Tables_number       1
_space_group_crystal_system       triclinic
_cell_length_a                    10.625905
_cell_length_b                    9.712657
_cell_length_c                    10.494314
_cell_angle_alpha                 90.367098
_cell_angle_beta                  89.993888
_cell_angle_gamma                 90.011041
_cell_volume                      1083.05150664

loop_
_atom_site_label
_atom_site_type_symbol
_atom_type_description
_atom_site_fract_x
_atom_site_fract_y
_atom_site_fract_z
_atom_type_partial_charge
C1    C     C_R   0.257659 0.499709 0.499855 0.842140
C2    C     C_3   0.927936 0.573687 0.379545 -0.422327
C3    C     C_3   0.375806 0.081060 0.457433 0.567019
C4    C     C_3   0.375790 0.918333 0.457446 0.567843
C5    C     C_3   0.596327 0.080621 0.409277 -0.265776
C6    C     C_3   0.596316 0.918240 0.409251 -0.263462
C7    C     C_3   0.527324 0.081963 0.625646 -0.411180
C8    C     C_3   0.527344 0.919698 0.625634 -0.418425
C9    C     C_R   0.500121 0.499478 0.257140 0.878869
C10   C     C_R   0.742571 0.499726 0.499774 0.820214
C11   C     C_R   0.500166 0.500529 0.742765 0.859205
C12   C     C_3   0.500127 0.498400 0.122209 0.024040
C13   C     C_3   0.396249 0.564351 0.042831 -0.151538
C14   C     C_3   0.500694 0.368463 0.039205 -0.119733
C15   C     C_3   0.396814 0.434588 0.957094 -0.190421
C16   C     C_3   0.500136 0.501635 0.877711 0.022984
C17   C     C_3   0.499571 0.631576 0.960720 -0.125879
C18   C     C_3   0.604013 0.435692 0.957100 -0.201645
C19   C     C_3   0.603449 0.565452 0.042836 -0.192388
C20   C     C_3   0.072330 0.573162 0.620931 -0.412871
C21   C     C_3   0.071511 0.348211 0.498572 -0.381907
C22   C     C_3   0.927878 0.573053 0.620968 -0.398630
C23   C     C_3   0.928652 0.348210 0.498346 -0.406226
C24   C     C_3   0.072410 0.573578 0.379536 -0.377967
C25   C     C_3   0.121345 0.498713 0.499710 0.168019
C26   C     C_3   0.878892 0.498731 0.499651 0.198902
F1    F     F_    0.343521 0.130281 0.338080 -0.638919
F2    F     F_    0.343480 0.867468 0.338090 -0.638324
H1    H     H_    0.312871 0.381664 0.917134 0.128912
H2    H     H_    0.456238 0.119995 0.695272 0.168282
H3    H     H_    0.456311 0.882431 0.695234 0.162855
H4    H     H_    0.691180 0.118628 0.437210 0.150128
H5    H     H_    0.691185 0.880569 0.437082 0.149669
H6    H     H_    0.311847 0.616347 0.082826 0.152323
H7    H     H_    0.501159 0.261277 0.075368 0.163101
H8    H     H_    0.687384 0.618379 0.082827 0.124304
H9    H     H_    0.106898 0.681361 0.624206 0.174496
H10   H     H_    0.106044 0.292101 0.412492 0.209940
H11   H     H_    0.107662 0.520552 0.707836 0.150964
H12   H     H_    0.893416 0.681908 0.377886 0.173534
H13   H     H_    0.105692 0.291944 0.584035 0.164578
H14   H     H_    0.892614 0.520214 0.707817 0.150272
H15   H     H_    0.894124 0.291630 0.583528 0.169384
H16   H     H_    0.893212 0.681208 0.624442 0.171782
H17   H     H_    0.894392 0.292390 0.411975 0.171257
H18   H     H_    0.107090 0.681743 0.377765 0.207949
H19   H     H_    0.107688 0.521159 0.291879 0.161222
H20   H     H_    0.499133 0.738776 0.924606 0.137691
H21   H     H_    0.688419 0.383688 0.917133 0.125188
H22   H     H_    0.892584 0.521424 0.291825 0.152863
H23   H     H_    0.301869 0.117683 0.524604 -0.009377
H24   H     H_    0.301826 0.882567 0.524602 -0.006375
H25   H     H_    0.579902 0.118367 0.310879 0.195942
H26   H     H_    0.579837 0.879255 0.310823 0.201960
H27   H     H_    0.620077 0.120830 0.659485 0.196586
H28   H     H_    0.620109 0.881326 0.659420 0.196727
N1    N     N_3   0.499750 0.138610 0.497240 -0.089944
N2    N     N_3   0.499750 0.861390 0.497240 -0.089608
O1    O     O_R   0.314910 0.616040 0.499970 -0.606914
O2    O     O_R   0.314910 0.383960 0.499970 -0.608437
O3    O     O_R   0.500080 0.616020 0.313900 -0.581946
O4    O     O_R   0.500080 0.383980 0.313900 -0.589994
O5    O     O_R   0.685320 0.616040 0.499930 -0.638236
O6    O     O_R   0.685320 0.383960 0.499930 -0.639918
O7    O     O_R   0.500150 0.616060 0.686000 -0.639463
O8    O     O_R   0.500150 0.383940 0.686000 -0.633842
Zn1   Zn    Zn3+2 0.500150 0.654960 0.499940 0.945799
Zn2   Zn    Zn3+2 0.500150 0.345040 0.499940 0.944726

loop_
_geom_bond_atom_site_label_1
_geom_bond_atom_site_label_2
_ccdc_geom_bond_type
O8    Zn2   S    
C11   O8    A    
C2    H12   S    
C23   H17   S    
C7    H27   S    
C11   C16   S    
C6    N2    S    
O1    Zn1   S    
C10   O6    A    
C10   O5    A    
C6    H5    S    
C5    N1    S    
C17   H20   S    
C24   H18   S    
C10   C26   S    
C21   H10   S    
C3    F1    S    
C13   H6    S    
C2    C26   S    
C7    H2    S    
C9    O4    A    
C12   C13   S    
C1    C25   S    
C20   H9    S    
C13   C15   S    
C8    H28   S    
C22   H14   S    
O3    Zn1   S    
C4    H24   S    
C9    O3    A    
C3    N1    S    
C12   C19   S    
C5    H25   S    
C4    F2    S    
C12   C14   S    
C15   H1    S    
O5    Zn1   S    
C19   H8    S    
C1    O1    A    
C21   C23   S    
C2    C24   S    
C5    C6    S    
C9    C12   S    
C21   H13   S    
C1    O2    A    
C20   C25   S    
C3    H23   S    
N1    Zn2   S    
C13   C17   S    
O6    Zn2   S    
N2    Zn1   S    
C7    C8    S    
C23   H15   S    
C24   C25   S    
O2    Zn2   S    
C16   C18   S    
C18   C19   S    
C22   C26   S    
C23   C26   S    
C4    N2    S    
C14   H7    S    
C20   H11   S    
C14   C18   S    
C14   C15   S    
C17   C19   S    
C21   C25   S    
O4    Zn2   S    
C2    H22   S    
C8    N2    S    
C6    H26   S    
C24   H19   S    
C11   O7    A    
C8    H3    S    
C7    N1    S    
C5    H4    S    
C22   H16   S    
C3    C4    S    
C15   C16   S    
C18   H21   S    
C20   C22   S    
C16   C17   S    
O7    Zn1   S    
