data_mof_unit_4133.cif
_audit_creation_date              2012-12-11T15:10:49-0500
_audit_creation_method            fapswitch 2.2
_symmetry_space_group_name_H-M    P1
_symmetry_Int_Tables_number       1
_space_group_crystal_system       triclinic
_cell_length_a                    21.149077
_cell_length_b                    7.236614
_cell_length_c                    18.258694
_cell_angle_alpha                 89.996463
_cell_angle_beta                  93.428634
_cell_angle_gamma                 89.996107
_cell_volume                      2789.44934403

loop_
_atom_site_label
_atom_site_type_symbol
_atom_type_description
_atom_site_fract_x
_atom_site_fract_y
_atom_site_fract_z
_atom_type_partial_charge
O1    O     O_R   0.448880 0.506250 0.415280 -0.530953
O2    O     O_R   0.551120 0.006250 0.584720 -0.530974
O3    O     O_R   0.434830 0.174000 0.557310 -0.520943
O4    O     O_R   0.565170 0.674000 0.442690 -0.520943
C1    C     C_R   0.416984 0.344584 0.579658 0.696599
C2    C     C_R   0.583016 0.844583 0.420342 0.696620
O5    O     O_R   0.441680 0.176440 0.414130 -0.529976
O6    O     O_R   0.558320 0.676440 0.585870 -0.529975
O7    O     O_R   0.558020 0.007570 0.440520 -0.519845
O8    O     O_R   0.441980 0.507570 0.559480 -0.519830
C3    C     C_R   0.428098 0.344572 0.388228 0.687612
C4    C     C_R   0.571905 0.844552 0.611772 0.687590
O9    O     O_3   0.538160 0.339670 0.508820 -0.364737
O10   O     O_3   0.461840 0.839670 0.491180 -0.364717
V1    V     V_3+5 0.492920 0.064260 0.498360 1.417534
V2    V     V_3+5 0.507080 0.564260 0.501640 1.417562
C5    C     C_R   0.875661 0.980739 0.688174 -0.162424
C6    C     C_R   0.124279 0.479691 0.311867 -0.162365
H1    H     H_    0.963891 0.005931 0.751443 0.108395
H2    H     H_    0.036043 0.504826 0.248601 0.108369
H3    H     H_    0.794613 0.995832 0.572331 0.125021
H4    H     H_    0.205289 0.494325 0.427752 0.125014
H5    H     H_    0.897278 0.013634 0.637427 0.114540
H6    H     H_    0.102627 0.512076 0.362643 0.114531
C7    C     C_R   0.887176 0.942005 0.819795 -0.058308
C8    C     C_R   0.112820 0.441893 0.180204 -0.058271
C9    C     C_R   0.583188 0.790722 0.744351 -0.207481
C10   C     C_R   0.416874 0.291404 0.255604 -0.207555
C11   C     C_R   0.619189 0.752825 0.808572 -0.179250
C12   C     C_R   0.380912 0.253832 0.191327 -0.179220
C13   C     C_R   0.685224 0.771985 0.812371 0.288546
C14   C     C_R   0.314868 0.272779 0.187514 0.288576
C15   C     C_R   0.715892 0.851794 0.752196 0.033343
C16   C     C_R   0.284139 0.351995 0.247762 0.033336
C17   C     C_R   0.678443 0.879054 0.684675 0.021841
C18   C     C_R   0.321553 0.378906 0.315327 0.021849
C19   C     C_R   0.782350 0.898040 0.754913 0.076779
C20   C     C_R   0.217657 0.397976 0.245071 0.076828
C21   C     C_R   0.810449 0.944513 0.688504 0.130596
C22   C     C_R   0.189513 0.443806 0.311520 0.130585
C23   C     C_R   0.773335 0.958599 0.622841 -0.198697
C24   C     C_R   0.226602 0.457575 0.377210 -0.198663
C25   C     C_R   0.708331 0.931079 0.621220 -0.176143
C26   C     C_R   0.291620 0.430342 0.378825 -0.176034
C27   C     C_R   0.821779 0.907641 0.820974 -0.198504
C28   C     C_R   0.178240 0.407902 0.179008 -0.198447
C29   C     C_R   0.913713 0.977214 0.753071 -0.163698
C30   C     C_R   0.086242 0.476436 0.246957 -0.163714
C31   C     C_R   0.611955 0.846798 0.681281 -0.081026
C32   C     C_R   0.388058 0.346919 0.318714 -0.080952
H7    H     H_    0.802862 0.898375 0.874283 0.153212
H8    H     H_    0.197173 0.399130 0.125696 0.153192
H9    H     H_    0.532642 0.764689 0.742553 0.121595
H10   H     H_    0.467435 0.265592 0.257397 0.121576
H11   H     H_    0.595722 0.695833 0.854626 0.122310
H12   H     H_    0.404422 0.197287 0.145222 0.122319
H13   H     H_    0.681632 0.948812 0.569227 0.112890
H14   H     H_    0.318296 0.447808 0.430847 0.112742
C33   C     C_1   0.864571 0.938917 0.132153 -0.207873
C34   C     C_1   0.135429 0.438914 0.867847 -0.207872
C35   C     C_1   0.821746 0.924857 0.175943 -0.002933
C36   C     C_1   0.178255 0.424855 0.824058 -0.002939
C37   C     C_1   0.771211 0.905739 0.228101 -0.004530
C38   C     C_1   0.228789 0.405738 0.771899 -0.004534
C39   C     C_1   0.728662 0.889113 0.272117 -0.004749
C40   C     C_1   0.271338 0.389113 0.727883 -0.004750
C41   C     C_1   0.678121 0.869997 0.324264 -0.002996
C42   C     C_1   0.321880 0.369999 0.675736 -0.002996
C43   C     C_1   0.635280 0.855946 0.368033 -0.206758
C44   C     C_1   0.364720 0.355948 0.631967 -0.206762
O11   O     O_R   0.058070 0.289240 0.940580 -0.519012
O12   O     O_R   0.941930 0.789240 0.059420 -0.519007
O13   O     O_R   0.058330 0.616740 0.085880 -0.534320
O14   O     O_R   0.941670 0.116740 0.914120 -0.534334
C45   C     C_R   0.071973 0.448791 0.111766 0.687231
C46   C     C_R   0.928025 0.948810 0.888234 0.687209
O15   O     O_R   0.065180 0.619040 0.942700 -0.522994
O16   O     O_R   0.934820 0.119040 0.057300 -0.522993
O17   O     O_R   0.948870 0.787780 0.915270 -0.527171
O18   O     O_R   0.051130 0.287780 0.084730 -0.527176
C47   C     C_R   0.083187 0.450315 0.920193 0.706854
C48   C     C_R   0.916812 0.950317 0.079807 0.706857
O19   O     O_3   0.961870 0.453310 0.991210 -0.365762
O20   O     O_3   0.038130 0.953310 0.008790 -0.365765
V3    V     V_3+5 0.007070 0.728770 0.001630 1.411407
V4    V     V_3+5 0.992930 0.228770 0.998370 1.411387
N1    N     N_2   0.719732 0.689931 0.873315 -0.551251
H15   H     H_    0.696141 0.689613 0.921183 0.252576
C49   C     C_3   0.746734 0.511216 0.857974 -0.534064
H16   H     H_    0.708481 0.409136 0.844668 0.195767
H17   H     H_    0.775646 0.462244 0.906930 0.197472
H18   H     H_    0.778002 0.520446 0.811342 0.214304
N2    N     N_2   0.280421 0.191116 0.126449 -0.551261
H19   H     H_    0.304023 0.191355 0.078589 0.252580
C50   C     C_3   0.253507 0.012136 0.141538 -0.534243
H20   H     H_    0.291813 0.910067 0.154648 0.195750
H21   H     H_    0.224584 0.963568 0.092530 0.197494
H22   H     H_    0.222270 0.020753 0.188215 0.214301

loop_
_geom_bond_atom_site_label_1
_geom_bond_atom_site_label_2
_ccdc_geom_bond_type
C2    C43   S    
C40   C42   S    
N1    H15   S    
C37   C39   T    
N2    H19   S    
C9    C11   A    
C23   C25   A    
C50   H20   S    
O1    C3    A    
C46   O17   A    
O2    C4    A    
C2    O7    A    
C4    C31   S    
C50   H22   S    
O3    V1    S    
C21   C23   A    
O5    C3    A    
C5    H5    S    
O14   C46   A    
C6    H6    S    
H1    C29   S    
C27   H7    S    
C28   H8    S    
C34   C36   T    
C5    C21   A    
C35   C37   S    
C6    C22   A    
C36   C38   S    
C10   C32   A    
C26   H14   S    
C39   C41   S    
C17   C31   A    
O18   V4    S    
C33   C48   S    
C49   H17   S    
C17   C25   A    
C45   O18   A    
C7    C29   A    
C8    C30   A    
O16   V4    S    
O5    V1    S    
C14   N2    S    
O15   V3    S    
N2    C50   S    
O13   C45   A    
C24   C26   A    
O12   V3    S    
C19   C21   A    
C33   C35   T    
C13   N1    S    
C12   C14   A    
O20   V3    S    
O4    C2    A    
C10   H10   S    
C11   H11   S    
C12   H12   S    
C15   C19   A    
C41   C43   T    
C14   C16   A    
O4    V2    S    
C1    C44   S    
O11   V4    S    
C34   C47   S    
O16   C48   A    
O15   C47   A    
O6    C4    A    
C13   C15   A    
C8    C45   S    
C25   H13   S    
O1    V2    S    
O14   V4    S    
C49   H18   S    
O2    V1    S    
O13   V3    S    
H2    C30   S    
H3    C23   S    
C42   C44   T    
N1    C49   S    
C18   C26   A    
C19   C27   A    
C7    C27   A    
O17   V3    S    
C18   C32   A    
C50   H21   S    
C16   C20   A    
C5    C29   A    
O3    C1    A    
C6    C30   A    
C9    H9    S    
C7    C46   S    
C10   C12   A    
O7    V1    S    
C1    O8    A    
C11   C13   A    
C3    C32   S    
O8    V2    S    
C20   C22   A    
H4    C24   S    
C22   C24   A    
C15   C17   A    
C16   C18   A    
C20   C28   A    
C8    C28   A    
O19   V4    S    
O6    V2    S    
O9    V2    S    
O10   V1    S    
C49   H16   S    
O12   C48   A    
C9    C31   A    
C38   C40   T    
O11   C47   A    
