data_mof_unit_3390.cif
_audit_creation_date              2012-10-26T18:59:59-0400
_audit_creation_method            fapswitch 2.2
_symmetry_space_group_name_H-M    P1
_symmetry_Int_Tables_number       1
_space_group_crystal_system       triclinic
_cell_length_a                    9.546831
_cell_length_b                    10.844769
_cell_length_c                    17.117103
_cell_angle_alpha                 89.199746
_cell_angle_beta                  93.804601
_cell_angle_gamma                 89.927019
_cell_volume                      1768.10562858

loop_
_atom_site_label
_atom_site_type_symbol
_atom_type_description
_atom_site_fract_x
_atom_site_fract_y
_atom_site_fract_z
_atom_type_partial_charge
C1    C     C_R   0.500070 0.262331 0.501077 0.552444
C2    C     C_R   0.498527 0.129070 0.507235 -0.024847
C3    C     C_R   0.372395 0.064616 0.491229 -0.175982
C4    C     C_R   0.517323 0.498052 0.650863 0.557013
C5    C     C_R   0.371958 0.936176 0.491665 -0.164112
C6    C     C_R   0.498180 0.870650 0.506972 -0.009410
C7    C     C_R   0.618406 0.935547 0.532698 -0.000784
C8    C     C_3   0.766082 0.929454 0.508832 -0.111755
C9    C     C_3   0.766939 0.070962 0.510755 0.169571
C10   C     C_R   0.065797 0.522400 0.432451 0.154536
C11   C     C_R   0.082013 0.470623 0.565726 -0.030463
C12   C     C_R   0.657703 0.496360 0.779054 -0.148882
C13   C     C_R   0.933573 0.470478 0.565732 -0.019343
C14   C     C_R   0.918210 0.521645 0.432304 0.150892
C15   C     C_3   0.906525 0.636253 0.383259 -0.277811
C16   C     C_R   0.499873 0.737640 0.500886 0.554238
C17   C     C_3   0.065226 0.637811 0.384116 -0.273282
C18   C     C_R   0.482694 0.499885 0.349121 0.548577
C19   C     C_R   0.526603 0.495908 0.736738 0.011205
C20   C     C_R   0.403520 0.493010 0.777168 -0.159062
C21   C     C_R   0.411115 0.490896 0.858496 -0.088793
C22   C     C_R   0.542829 0.491694 0.901069 0.227502
C23   C     C_R   0.589126 0.487305 0.141655 -0.090600
C24   C     C_R   0.665311 0.494255 0.860629 -0.109518
C25   C     C_3   0.864674 0.862514 0.570174 -0.358110
C26   C     C_3   0.987080 0.147456 0.546550 -0.009537
C27   C     C_3   0.089766 0.165020 0.617346 -0.367984
C28   C     C_R   0.596519 0.489819 0.222944 -0.162822
C29   C     C_R   0.457566 0.490272 0.098966 0.227882
C30   C     C_R   0.473513 0.495951 0.263242 0.007026
C31   C     C_R   0.342574 0.496621 0.220785 -0.155408
C32   C     C_R   0.335059 0.494073 0.139269 -0.111924
C33   C     C_R   0.618536 0.062658 0.533301 0.072172
Cu1   Cu    Cu3+1 0.640670 0.499980 0.500000 0.942106
Cu2   Cu    Cu3+1 0.359330 0.500020 0.500000 0.926366
H1    H     H_    0.698819 0.486297 0.254079 0.120640
H2    H     H_    0.686375 0.483062 0.112661 0.132629
H3    H     H_    0.113345 0.716966 0.416516 0.140569
H4    H     H_    0.767097 0.494917 0.892597 0.113954
H5    H     H_    0.754300 0.498512 0.749285 0.119493
H6    H     H_    0.245999 0.498777 0.250346 0.120546
H7    H     H_    0.313867 0.488852 0.887614 0.132893
H8    H     H_    0.233318 0.495441 0.107237 0.113602
H9    H     H_    0.300964 0.492422 0.746088 0.117176
H10   H     H_    0.275738 0.112937 0.473991 0.128256
H11   H     H_    0.975091 0.872324 0.554627 0.117355
H12   H     H_    0.274582 0.889014 0.475564 0.125889
H13   H     H_    0.854136 0.899254 0.629783 0.180128
H14   H     H_    0.840226 0.762646 0.571427 0.156696
H15   H     H_    0.981428 0.233606 0.510621 0.145178
H16   H     H_    0.028046 0.072326 0.510571 0.107097
H17   H     H_    0.105547 0.076161 0.649795 0.152701
H18   H     H_    0.192381 0.197581 0.598311 0.125093
H19   H     H_    0.048219 0.234203 0.657107 0.148530
H20   H     H_    0.771968 0.894444 0.448556 0.091844
H21   H     H_    0.774669 0.117550 0.452625 0.084702
H22   H     H_    0.143024 0.447219 0.619226 0.113466
H23   H     H_    0.885321 0.446521 0.619161 0.128610
H24   H     H_    0.855427 0.620012 0.324187 0.119441
H25   H     H_    0.862817 0.714274 0.414755 0.143678
H26   H     H_    0.104660 0.623007 0.325444 0.119627
N1    N     N_2   0.557074 0.490852 0.984057 -0.252849
N2    N     N_2   0.443440 0.489902 0.015995 -0.252966
N3    N     N_R   0.147870 0.500930 0.499500 -0.233173
N4    N     N_R   0.851960 0.500890 0.499500 -0.236884
O1    O     O_R   0.618810 0.319640 0.500000 -0.479346
O2    O     O_R   0.381230 0.319680 0.499990 -0.511698
O3    O     O_R   0.631790 0.498830 0.613930 -0.511274
O4    O     O_R   0.394210 0.498870 0.613920 -0.513813
O5    O     O_R   0.618770 0.680320 0.500010 -0.508009
O6    O     O_R   0.381190 0.680360 0.500000 -0.503134
O7    O     O_R   0.605790 0.501130 0.386080 -0.506790
O8    O     O_R   0.368210 0.501170 0.386070 -0.503933
O9    O     O_3   0.853516 0.119895 0.572862 -0.537026

loop_
_geom_bond_atom_site_label_1
_geom_bond_atom_site_label_2
_ccdc_geom_bond_type
C29   N2    S    
C15   H25   S    
C19   C20   A    
Cu1   O1    S    
C27   H19   S    
C7    C8    S    
C13   N4    A    
C5    H12   S    
C26   C27   S    
C23   C29   A    
Cu1   Cu2   S    
C29   C32   A    
C26   H15   S    
C30   C31   A    
C10   C17   S    
C24   H4    S    
C8    H20   S    
C1    C2    S    
C26   O9    S    
C4    C19   S    
C32   H8    S    
C8    C9    S    
Cu2   N3    S    
C18   C30   S    
Cu1   O5    S    
C17   H26   S    
Cu2   O6    S    
C21   C22   A    
C9    C33   S    
C8    C25   S    
C7    C33   A    
C16   O6    A    
Cu1   N4    S    
C4    O4    A    
C20   H9    S    
C18   O7    A    
C16   O5    A    
C11   N3    A    
C10   C14   A    
Cu1   O3    S    
C4    O3    A    
C13   H23   S    
C23   H2    S    
C3    H10   S    
C12   H5    S    
N1    N2    D    
C22   N1    S    
C31   C32   A    
Cu2   O2    S    
C1    O1    A    
C9    H21   S    
C23   C28   A    
C25   H13   S    
Cu2   O4    S    
C2    C33   A    
C18   O8    A    
C22   C24   A    
C9    O9    S    
Cu1   O7    S    
C27   H17   S    
C15   C17   S    
Cu2   O8    S    
C31   H6    S    
C15   H24   S    
C10   N3    A    
C3    C5    A    
C27   H18   S    
C6    C7    A    
C12   C24   A    
C28   C30   A    
C2    C3    A    
C26   H16   S    
C11   C13   A    
C5    C6    A    
C12   C19   A    
C1    O2    A    
C14   N4    A    
C17   H3    S    
C25   H14   S    
C6    C16   S    
C21   H7    S    
C20   C21   A    
C28   H1    S    
C14   C15   S    
C11   H22   S    
C25   H11   S    
