data_mof_unit_4958.cif
_audit_creation_date              2012-12-10T20:48:49-0500
_audit_creation_method            fapswitch 2.2
_symmetry_space_group_name_H-M    P1
_symmetry_Int_Tables_number       1
_space_group_crystal_system       triclinic
_cell_length_a                    15.790456
_cell_length_b                    8.932994
_cell_length_c                    8.109083
_cell_angle_alpha                 90.01412
_cell_angle_beta                  90.025758
_cell_angle_gamma                 90.002408
_cell_volume                      1143.83505527

loop_
_atom_site_label
_atom_site_type_symbol
_atom_type_description
_atom_site_fract_x
_atom_site_fract_y
_atom_site_fract_z
_atom_type_partial_charge
C1    C     C_R   0.499994 0.217985 0.499987 0.932485
C2    C     C_3   0.049950 0.513441 0.315426 -0.009199
C3    C     C_3   0.949912 0.346512 0.582796 -0.009178
C4    C     C_3   0.950978 0.494242 0.313730 -0.015985
C5    C     C_1   0.750648 0.497958 0.499769 -0.194511
C6    C     C_1   0.249354 0.497481 0.499611 -0.193702
C7    C     C_3   0.082801 0.491996 0.496887 0.255105
C8    C     C_3   0.917197 0.492885 0.496248 0.254566
C9    C     C_3   0.951707 0.631892 0.589490 -0.398992
C10   C     C_3   0.048558 0.620488 0.607215 -0.398369
C11   C     C_3   0.082197 0.660514 0.235201 -0.863130
C12   C     C_1   0.825695 0.495670 0.498421 -0.068978
C13   C     C_3   0.096550 0.277266 0.716293 -0.868808
C14   C     C_3   0.903395 0.603347 0.197432 -0.868968
C15   C     C_3   0.918062 0.331387 0.763097 -0.862507
C16   C     C_1   0.174307 0.494778 0.498636 -0.067343
C17   C     C_R   0.337902 0.499944 0.499945 0.902276
C18   C     C_R   0.662097 0.499994 0.500015 0.903719
C19   C     C_1   0.499993 0.934796 0.500019 -0.194106
C20   C     C_1   0.499992 0.065180 0.499982 -0.194374
C21   C     C_R   0.499997 0.781990 0.500013 0.932792
C22   C     C_3   0.048849 0.337754 0.563046 -0.015898
H1    H     H_    0.065083 0.599803 0.738497 0.176325
H2    H     H_    0.052697 0.760568 0.292238 0.245994
H3    H     H_    0.151941 0.671013 0.246543 0.240093
H4    H     H_    0.070304 0.167144 0.753645 0.236137
H5    H     H_    0.164284 0.257270 0.687237 0.239013
H6    H     H_    0.093080 0.356005 0.821792 0.249241
H7    H     H_    0.929739 0.597050 0.070877 0.231429
H8    H     H_    0.835691 0.571486 0.186512 0.245415
H9    H     H_    0.906824 0.720530 0.241931 0.246807
H10   H     H_    0.848445 0.346230 0.770779 0.241567
H11   H     H_    0.931371 0.217501 0.811069 0.235912
H12   H     H_    0.078039 0.729494 0.574136 0.175363
H13   H     H_    0.948435 0.414632 0.845403 0.246454
H14   H     H_    0.922359 0.642501 0.713619 0.176006
H15   H     H_    0.935264 0.736066 0.521805 0.176067
H16   H     H_    0.922474 0.248881 0.515792 0.119525
H17   H     H_    0.937862 0.381314 0.260978 0.113317
H18   H     H_    0.061632 0.252995 0.465229 0.109473
H19   H     H_    0.077043 0.421565 0.238736 0.122479
H20   H     H_    0.068414 0.660812 0.101014 0.232814
N1    N     N_1   0.500000 0.500030 0.073640 -0.032986
N2    N     N_1   0.500000 0.500030 0.926360 -0.032928
O1    O     O_R   0.500000 0.285340 0.636850 -0.615966
O2    O     O_R   0.500000 0.285340 0.363150 -0.615584
O3    O     O_R   0.377140 0.500000 0.636930 -0.614812
O4    O     O_R   0.377140 0.500000 0.363070 -0.616525
O5    O     O_R   0.622860 0.500000 0.636930 -0.616431
O6    O     O_R   0.622860 0.500000 0.363070 -0.617236
O7    O     O_R   0.500000 0.714650 0.636900 -0.615561
O8    O     O_R   0.500000 0.714650 0.363100 -0.615803
Zn1   Zn    Zn3+2 0.500000 0.499990 0.682780 0.989134
Zn2   Zn    Zn3+2 0.500000 0.499990 0.317220 0.988373

loop_
_geom_bond_atom_site_label_1
_geom_bond_atom_site_label_2
_ccdc_geom_bond_type
C7    C10   S    
C2    C4    S    
N1    N2    T    
C4    H17   S    
C13   H6    S    
C5    C18   S    
C8    C12   S    
C9    H14   S    
C7    C22   S    
C9    C10   S    
N1    Zn2   S    
C19   C20   T    
C17   O4    A    
C4    C8    S    
C14   H9    S    
O3    Zn1   S    
C22   H18   S    
O2    Zn2   S    
C9    H15   S    
C18   O5    A    
O1    Zn1   S    
C15   H10   S    
C10   H12   S    
O4    Zn2   S    
C1    O1    A    
C1    O2    A    
O6    Zn2   S    
C14   H8    S    
O5    Zn1   S    
C2    C11   S    
C1    C20   S    
C15   H13   S    
C7    C16   S    
C19   C21   S    
O8    Zn2   S    
C13   C22   S    
C4    C14   S    
C10   H1    S    
C13   H4    S    
C11   H3    S    
C2    H19   S    
C6    C16   T    
C17   O3    A    
C11   H2    S    
C21   O7    A    
C3    C15   S    
C18   O6    A    
C5    C12   T    
C3    C8    S    
C6    C17   S    
C13   H5    S    
C3    C22   S    
C11   H20   S    
C14   H7    S    
N2    Zn1   S    
C15   H11   S    
C21   O8    A    
C2    C7    S    
C3    H16   S    
C8    C9    S    
O7    Zn1   S    
