data_mof_unit_3664.cif
_audit_creation_date              2012-12-11T15:09:46-0500
_audit_creation_method            fapswitch 2.2
_symmetry_space_group_name_H-M    P1
_symmetry_Int_Tables_number       1
_space_group_crystal_system       triclinic
_cell_length_a                    20.914968
_cell_length_b                    7.128092
_cell_length_c                    14.023
_cell_angle_alpha                 90.063065
_cell_angle_beta                  98.106642
_cell_angle_gamma                 89.92288
_cell_volume                      2069.70887566

loop_
_atom_site_label
_atom_site_type_symbol
_atom_type_description
_atom_site_fract_x
_atom_site_fract_y
_atom_site_fract_z
_atom_type_partial_charge
O1    O     O_R   0.447130 0.507140 0.597350 -0.536800
O2    O     O_R   0.552870 0.007140 0.402650 -0.536903
O3    O     O_R   0.578910 0.181280 0.586990 -0.538531
O4    O     O_R   0.421090 0.681280 0.413010 -0.538517
C1    C     C_R   0.604500 0.344446 0.607353 0.726236
C2    C     C_R   0.395499 0.844523 0.392646 0.726348
O5    O     O_R   0.449230 0.177860 0.608640 -0.540979
O6    O     O_R   0.550770 0.677860 0.391360 -0.540883
O7    O     O_R   0.422260 0.000770 0.424450 -0.534609
O8    O     O_R   0.577740 0.500770 0.575550 -0.534631
C3    C     C_R   0.432795 0.346504 0.634559 0.690649
C4    C     C_R   0.567211 0.846160 0.365438 0.690634
O9    O     O_3   0.491310 0.336980 0.439550 -0.374965
O10   O     O_3   0.508690 0.836980 0.560450 -0.375045
V1    V     V_3+5 0.501610 0.064760 0.511210 1.434391
V2    V     V_3+5 0.498390 0.564760 0.488790 1.434640
C5    C     C_R   0.620726 0.873958 0.121927 -0.158939
C6    C     C_R   0.379000 0.398357 0.876944 -0.158989
H1    H     H_    0.529060 0.868857 0.173815 0.103757
H2    H     H_    0.470662 0.393943 0.825030 0.103997
H3    H     H_    0.705041 0.887828 0.998063 0.127002
H4    H     H_    0.294518 0.424454 0.000147 0.126983
H5    H     H_    0.598650 0.882992 0.047348 0.113882
H6    H     H_    0.400930 0.419318 0.950935 0.113887
C7    C     C_R   0.608357 0.854460 0.289921 -0.028046
C8    C     C_R   0.391651 0.356500 0.710051 -0.028417
C9    C     C_R   0.922256 0.847844 0.306368 -0.191061
C10   C     C_R   0.077942 0.330996 0.694390 -0.191086
C11   C     C_R   0.885919 0.838941 0.382613 0.030813
C12   C     C_R   0.114379 0.314521 0.618536 0.029755
C13   C     C_R   0.818260 0.842386 0.362550 -0.216047
C14   C     C_R   0.181966 0.324423 0.638308 -0.215241
C15   C     C_R   0.785863 0.854585 0.266771 0.059326
C16   C     C_R   0.214186 0.350812 0.733398 0.059424
C17   C     C_R   0.823906 0.863203 0.190346 0.072201
C18   C     C_R   0.176029 0.367989 0.809377 0.072233
C19   C     C_R   0.716990 0.858356 0.244211 0.083022
C20   C     C_R   0.283001 0.360287 0.755723 0.082897
C21   C     C_R   0.688176 0.870319 0.146175 0.140218
C22   C     C_R   0.311631 0.387341 0.853027 0.140263
C23   C     C_R   0.726692 0.878600 0.072853 -0.204836
C24   C     C_R   0.273006 0.403828 0.925914 -0.204775
C25   C     C_R   0.793417 0.875194 0.094374 -0.185885
C26   C     C_R   0.206347 0.394243 0.904658 -0.186276
C27   C     C_R   0.675389 0.850723 0.315311 -0.208642
C28   C     C_R   0.324711 0.344456 0.685055 -0.208627
C29   C     C_R   0.581040 0.865968 0.193508 -0.175664
C30   C     C_R   0.418771 0.383656 0.805702 -0.175511
C31   C     C_R   0.891981 0.859682 0.211282 -0.098197
C32   C     C_R   0.108031 0.357508 0.788767 -0.097938
H7    H     H_    0.693081 0.841835 0.391106 0.102298
H8    H     H_    0.307153 0.324296 0.609797 0.102488
H9    H     H_    0.974576 0.845437 0.320675 0.147178
H10   H     H_    0.025695 0.322384 0.680386 0.147629
H11   H     H_    0.792221 0.835130 0.423279 0.153252
H12   H     H_    0.208090 0.310849 0.577909 0.153178
H13   H     H_    0.820959 0.882055 0.034643 0.121647
H14   H     H_    0.178717 0.407853 0.964035 0.122154
C33   C     C_1   0.166536 0.857034 0.168449 -0.180115
C34   C     C_1   0.833462 0.357216 0.831554 -0.179266
C35   C     C_1   0.218923 0.854820 0.219603 0.019609
C36   C     C_1   0.781074 0.354908 0.780403 0.019583
C37   C     C_1   0.280675 0.853466 0.279620 0.014679
C38   C     C_1   0.719321 0.353374 0.720388 0.014302
C39   C     C_1   0.333063 0.851185 0.330782 -0.191649
C40   C     C_1   0.666934 0.351002 0.669225 -0.191729
O11   O     O_R   0.922300 0.202240 0.924350 -0.533793
O12   O     O_R   0.077700 0.702240 0.075650 -0.533928
O13   O     O_R   0.050780 0.535130 0.891350 -0.539241
O14   O     O_R   0.949220 0.035130 0.108650 -0.539192
C41   C     C_R   0.067281 0.367760 0.865261 0.694675
C42   C     C_R   0.932725 0.868127 0.134755 0.694465
O15   O     O_R   0.921100 0.531560 0.912990 -0.538432
O16   O     O_R   0.078900 0.031560 0.087010 -0.538241
O17   O     O_R   0.947120 0.708470 0.097370 -0.536883
O18   O     O_R   0.052880 0.208470 0.902630 -0.536883
C43   C     C_R   0.895898 0.363594 0.893400 0.715593
C44   C     C_R   0.104102 0.863516 0.106603 0.715088
O19   O     O_3   0.008710 0.375800 0.060400 -0.373574
O20   O     O_3   0.991290 0.875800 0.939600 -0.373971
V3    V     V_3+5 0.998380 0.648080 0.988790 1.444288
V4    V     V_3+5 0.001620 0.148080 0.011210 1.444720
C45   C     C_2   0.918604 0.825712 0.483664 0.811178
O21   O     O_2   0.977597 0.821683 0.500819 -0.545165
O22   O     O_R   0.882049 0.817631 0.559774 -0.671033
H15   H     H_    0.909865 0.808732 0.624969 0.297209
C46   C     C_2   0.081886 0.285720 0.518270 0.810680
O23   O     O_2   0.022916 0.279662 0.501157 -0.545680
O24   O     O_R   0.118596 0.265171 0.442865 -0.670569
H16   H     H_    0.090905 0.245934 0.378199 0.296929

loop_
_geom_bond_atom_site_label_1
_geom_bond_atom_site_label_2
_ccdc_geom_bond_type
C20   C22   A    
C46   O23   D    
C37   C39   T    
C9    C11   A    
O11   C43   A    
O2    C4    A    
C2    O7    A    
C18   C32   A    
C21   C23   A    
O22   H15   S    
O5    C3    A    
C5    H5    S    
C6    H6    S    
O12   V3    S    
C12   C46   S    
C11   C45   S    
C41   O18   A    
O20   V3    S    
H1    C29   S    
C27   H7    S    
C28   H8    S    
C34   C36   T    
C5    C21   A    
O13   C41   A    
C6    C22   A    
C36   C38   S    
C10   C32   A    
C2    C39   S    
C26   H14   S    
C31   C42   S    
O1    C3    A    
C17   C31   A    
C13   C15   A    
C17   C25   A    
C7    C29   A    
C8    C30   A    
O5    V1    S    
O6    V2    S    
C23   C25   A    
C24   C26   A    
O16   V4    S    
C42   O17   A    
C33   C44   S    
O15   V3    S    
O12   C44   A    
C34   C43   S    
C33   C35   T    
O20   V4    S    
O18   V4    S    
O19   V3    S    
C10   H10   S    
O17   V3    S    
C3    C8    S    
C15   C19   A    
C14   C16   A    
O4    V2    S    
C32   C41   S    
C45   O21   D    
O6    C4    A    
C35   C37   S    
C25   H13   S    
O1    V2    S    
O2    V1    S    
H2    C30   S    
H3    C23   S    
O4    C2    A    
C45   O22   S    
C46   O24   S    
C18   C26   A    
C19   C27   A    
C7    C27   A    
O3    V1    S    
C16   C20   A    
C5    C29   A    
C1    C40   S    
O3    C1    A    
C6    C30   A    
O19   V4    S    
C9    H9    S    
C4    C7    S    
C10   C12   A    
O7    V1    S    
C1    O8    A    
C11   C13   A    
O8    V2    S    
C12   C14   A    
H4    C24   S    
C22   C24   A    
C15   C17   A    
C16   C18   A    
O14   V4    S    
C20   C28   A    
O13   V3    S    
C8    C28   A    
O11   V4    S    
C19   C21   A    
O16   C44   A    
O9    V2    S    
O15   C43   A    
O10   V1    S    
O14   C42   A    
C13   H11   S    
O24   H16   S    
C14   H12   S    
C9    C31   A    
C38   C40   T    
