data_mof_unit_597.cif
_audit_creation_date              2013-03-05T16:06:55-0500
_audit_creation_method            fapswitch 2.2
_symmetry_space_group_name_H-M    P1
_symmetry_Int_Tables_number       1
_space_group_crystal_system       triclinic
_cell_length_a                    14.483913
_cell_length_b                    16.272535
_cell_length_c                    6.927105
_cell_angle_alpha                 89.850411
_cell_angle_beta                  98.919192
_cell_angle_gamma                 90.031117
_cell_volume                      1612.90172023

loop_
_atom_site_label
_atom_site_type_symbol
_atom_site_description
_atom_site_fract_x
_atom_site_fract_y
_atom_site_fract_z
_atom_type_partial_charge
O1    O     O_R   0.584990 0.413650 0.534420 -0.605222
O2    O     O_R   0.584990 0.586350 0.534420 -0.622087
O3    O     O_R   0.596190 0.585230 0.208380 -0.554387
O4    O     O_R   0.596190 0.414770 0.208380 -0.556173
O5    O     O_R   0.415010 0.586420 0.976930 -0.577685
O6    O     O_R   0.415010 0.413580 0.976930 -0.578326
C1    C     C_R   0.619163 0.613906 0.384393 1.142953
C2    C     C_R   0.618451 0.385586 0.384296 1.143777
O7    O     O_3   0.440560 0.500000 0.319140 -0.245200
V1    V     V_3+5 0.511030 0.500000 0.068070 1.366275
O8    O     O_R   0.403810 0.414840 0.643540 -0.534807
O9    O     O_R   0.403810 0.585160 0.643540 -0.535321
C3    C     C_R   0.381701 0.385876 0.806179 0.904743
C4    C     C_R   0.381753 0.614234 0.805988 0.897429
V2    V     V_3+5 0.488970 0.500000 0.560620 1.365498
O10   O     O_3   0.559440 0.500000 0.859420 -0.267184
H1    H     H_    0.183319 0.802125 0.809237 0.182446
H2    H     H_    0.183249 0.198214 0.809030 0.180787
C5    C     C_2   0.311096 0.680827 0.797454 0.280065
C6    C     C_2   0.311012 0.319418 0.797675 0.279420
C7    C     C_2   0.292834 0.719678 0.960855 0.723736
C8    C     C_2   0.292412 0.280606 0.961076 0.713724
C9    C     C_2   0.197331 0.820995 0.114033 0.603989
C10   C     C_2   0.196975 0.179081 0.113798 0.601653
C11   C     C_2   0.219813 0.784294 0.952195 -0.449370
C12   C     C_2   0.219526 0.215958 0.952041 -0.436506
C13   C     C_R   0.763584 0.682693 0.566889 0.022890
C14   C     C_R   0.746014 0.305159 0.591766 -0.103197
C15   C     C_R   0.688145 0.682500 0.413330 -0.444748
C16   C     C_R   0.685095 0.315308 0.415444 -0.401924
C17   C     C_R   0.679175 0.750688 0.285563 0.703489
C18   C     C_R   0.684642 0.252806 0.274596 0.706541
C19   C     C_R   0.739034 0.820310 0.320058 0.222216
C20   C     C_R   0.748171 0.185784 0.304514 0.238081
C21   C     C_R   0.815072 0.819766 0.478505 -0.352351
C22   C     C_R   0.813869 0.179469 0.480354 -0.474104
C23   C     C_R   0.825135 0.749444 0.597790 -0.071098
C24   C     C_R   0.806691 0.238207 0.625243 0.097118
C25   C     C_3   0.830365 0.743954 0.814633 0.552656
C26   C     C_3   0.882254 0.288830 0.738328 0.545617
C27   C     C_3   0.763868 0.671278 0.781517 0.022130
C28   C     C_3   0.817331 0.362943 0.697351 0.062228
H3    H     H_    0.901759 0.730377 0.892455 0.059372
H4    H     H_    0.947441 0.289393 0.672260 0.064445
H5    H     H_    0.694420 0.681944 0.826981 0.168022
H6    H     H_    0.795053 0.390622 0.829239 0.189127
O11   O     O_R   0.921430 0.915960 0.371040 -0.573998
O12   O     O_R   0.921430 0.084040 0.371040 -0.560487
O13   O     O_R   0.910450 0.087500 0.697310 -0.552650
O14   O     O_R   0.910450 0.912500 0.697310 -0.561626
O15   O     O_R   0.091710 0.087460 0.928430 -0.629008
O16   O     O_R   0.091710 0.912540 0.928430 -0.633814
C29   C     C_R   0.886203 0.113120 0.518030 1.027220
C30   C     C_R   0.884567 0.888271 0.517706 1.029394
O17   O     O_3   0.065970 0.000000 0.586140 -0.289241
V3    V     V_3+5 0.995640 0.000000 0.837400 1.317663
O18   O     O_R   0.103020 0.915700 0.261710 -0.548013
O19   O     O_R   0.103020 0.084300 0.261710 -0.547276
C31   C     C_R   0.125670 0.886369 0.100636 0.775887
C32   C     C_R   0.125545 0.113650 0.100426 0.825776
V4    V     V_3+5 0.017940 0.000000 0.344880 1.325385
O20   O     O_3   0.947330 0.000000 0.046180 -0.186104
N1    N     N_R   0.807538 0.594051 0.855617 0.246380
O21   O     O_R   0.890887 0.574288 0.823322 -0.324666
O22   O     O_R   0.765425 0.547125 0.966826 -0.357123
N2    N     N_R   0.849879 0.423914 0.566447 0.256346
O23   O     O_R   0.792564 0.480078 0.485812 -0.389370
O24   O     O_R   0.938417 0.431319 0.555322 -0.308875
F1    F     F_    0.342532 0.700487 0.138675 -0.597044
F2    F     F_    0.341657 0.299840 0.139096 -0.602158
F3    F     F_    0.241182 0.799202 0.294729 -0.549292
F4    F     F_    0.240481 0.200816 0.294585 -0.550912
F5    F     F_    0.262694 0.701504 0.619894 -0.598458
F6    F     F_    0.263038 0.298707 0.619942 -0.595348
F7    F     F_    0.607263 0.752513 0.134137 -0.640014
F8    F     F_    0.623601 0.257331 0.104874 -0.643803
N3    N     N_R   0.712016 0.894325 0.212022 0.275082
O25   O     O_R   0.624575 0.916278 0.180883 -0.246556
O26   O     O_R   0.771490 0.935676 0.128088 -0.270503
N4    N     N_R   0.743694 0.125070 0.154406 0.269137
O27   O     O_R   0.807461 0.124439 0.041557 -0.284019
O28   O     O_R   0.664367 0.088881 0.094566 -0.251547
F9    F     F_    0.788848 0.810850 0.888073 -0.641235
F10   F     F_    0.896908 0.267607 0.934203 -0.645865

loop_
_geom_bond_atom_site_label_1
_geom_bond_atom_site_label_2
_geom_bond_distance
_ccdc_geom_bond_type
N2    O24   1.302058 A    
O17   V3    2.148670 S    
N1    O22   1.300273 A    
C1    C15   1.490706 S    
C13   C15   1.401787 A    
O1    C2    1.297643 A    
C26   F10   1.383359 S    
O2    C1    1.297274 A    
H2    C12   1.086633 S    
O4    C2    1.299911 A    
C25   C27   1.520033 S    
N3    O25   1.301343 A    
C9    C31   1.479318 S    
O14   C30   1.304468 A    
C21   C23   1.404063 A    
C10   C12   1.353544 D    
O3    C1    1.300793 A    
O18   C31   1.302629 A    
O19   C32   1.301081 A    
V2    O10   2.161214 S    
O15   V3    2.022314 S    
C28   H6    1.111473 S    
C14   C28   1.501451 S    
C22   C29   1.498793 S    
C20   N4    1.430345 S    
O8    V2    1.996338 S    
C17   C19   1.424214 A    
O1    V2    2.005801 S    
C16   C18   1.410523 A    
O7    V1    2.148723 S    
O19   V4    1.986557 S    
C26   C28   1.528376 S    
N2    O23   1.300304 A    
C21   C30   1.498381 S    
N3    O26   1.298272 A    
O12   C29   1.298039 A    
C9    F3    1.359164 S    
C5    F5    1.359507 S    
N4    O28   1.300611 A    
C25   H3    1.111525 S    
O14   V3    2.031144 S    
C7    F1    1.362438 S    
C18   C20   1.421217 A    
O11   V4    1.982966 S    
O16   C31   1.289160 A    
C13   C27   1.497201 S    
C17   F7    1.359092 S    
O9    V2    1.999347 S    
C14   C24   1.396286 A    
C10   C32   1.477232 S    
C6    F6    1.359717 S    
O2    V2    2.004077 S    
O5    C4    1.288256 A    
O11   C30   1.298400 A    
O9    C4    1.306368 A    
V3    O20   1.701473 S    
C27   N1    1.462743 S    
O4    V1    2.003164 S    
C10   F4    1.359361 S    
C7    C11   1.486246 S    
C3    C6    1.483811 S    
C5    C7    1.359260 D    
C4    C5    1.485669 S    
C6    C8    1.357678 D    
N4    O27   1.299291 A    
C18   F8    1.358900 S    
O18   V4    1.989557 S    
O13   V3    2.028529 S    
C2    C16   1.490448 S    
C14   C16   1.400912 A    
O7    V2    1.710574 S    
H1    C11   1.086556 S    
O5    V1    2.008877 S    
C15   C17   1.410939 A    
O3    V1    2.005748 S    
V1    O10   1.701437 S    
O6    C3    1.288653 A    
C24   C26   1.492169 S    
O8    C3    1.304943 A    
C19   N3    1.438343 S    
O12   V4    1.984664 S    
C13   C23   1.400514 A    
O13   C29   1.304474 A    
O17   V4    1.707765 S    
C22   C24   1.403282 A    
C19   C21   1.429276 A    
C20   C22   1.428199 A    
C9    C11   1.355146 D    
V4    O20   2.161261 S    
O6    V1    2.010128 S    
C25   F9    1.379796 S    
N1    O21   1.302075 A    
C26   H4    1.111274 S    
C23   C25   1.494664 S    
C8    C12   1.484482 S    
C28   N2    1.468402 S    
C27   H5    1.113470 S    
O15   C32   1.289450 A    
C8    F2    1.362509 S    
O16   V3    2.021062 S    
