data_mof_unit_3450.cif
_audit_creation_date              2012-12-10T17:05:23-0500
_audit_creation_method            fapswitch 2.2
_symmetry_space_group_name_H-M    P1
_symmetry_Int_Tables_number       1
_space_group_crystal_system       triclinic
_cell_length_a                    10.086775
_cell_length_b                    10.596116
_cell_length_c                    15.34982
_cell_angle_alpha                 90.069149
_cell_angle_beta                  69.047033
_cell_angle_gamma                 87.367328
_cell_volume                      1530.22231961

loop_
_atom_site_label
_atom_site_type_symbol
_atom_type_description
_atom_site_fract_x
_atom_site_fract_y
_atom_site_fract_z
_atom_type_partial_charge
Br1   Br    Br    0.531262 0.151919 0.679009 -0.437604
Br2   Br    Br    0.270258 0.938262 0.564137 -0.457608
Br3   Br    Br    0.248736 0.348039 0.335564 -0.462781
Br4   Br    Br    0.914848 0.295089 0.374475 -0.376273
Br5   Br    Br    0.621925 0.699279 0.729287 -0.531700
Br6   Br    Br    0.315933 0.775977 0.202272 -0.478978
C1    C     C_R   0.491127 0.737374 0.509790 0.879912
C2    C     C_R   0.729844 0.520187 0.029343 0.162657
C3    C     C_R   0.590976 0.567265 0.084367 0.077145
C4    C     C_R   0.411713 0.514829 0.674987 0.980600
C5    C     C_R   0.825458 0.477146 0.071767 -0.089971
C6    C     C_R   0.782648 0.475550 0.168536 -0.183656
C7    C     C_R   0.546658 0.550753 0.180436 -0.164025
C8    C     C_2   0.540808 0.067788 0.565434 0.210233
C9    C     C_2   0.522719 0.126306 0.492348 0.336570
C10   C     C_2   0.557805 0.931471 0.560993 -0.130327
C11   C     C_2   0.460755 0.866743 0.541882 0.114880
C12   C     C_R   0.428802 0.612485 0.903122 -0.008097
C13   C     C_2   0.109111 0.435823 0.439980 0.281775
C14   C     C_2   0.956244 0.423743 0.448206 0.266780
C15   C     C_R   0.505302 0.261887 0.497153 0.838660
C16   C     C_R   0.588363 0.500119 0.324193 0.891349
C17   C     C_R   0.361558 0.563302 0.772007 -0.300635
C18   C     C_R   0.641358 0.508799 0.222912 -0.089163
C19   C     C_R   0.178896 0.632516 0.919496 0.434199
C20   C     C_R   0.216239 0.581595 0.828135 0.394502
C21   C     C_R   0.463338 0.604420 0.807002 0.149333
C22   C     C_3   0.489104 0.112814 0.349916 -0.117843
C23   C     C_R   0.285140 0.638315 0.959499 -0.108329
C24   C     C_3   0.014832 0.796509 0.970310 -0.274003
C25   C     C_3   0.059719 0.650692 0.759461 -0.180351
C26   C     C_R   0.532639 0.590564 0.944238 0.110129
C27   C     C_R   0.494777 0.612501 0.041376 -0.004509
C28   C     C_R   0.358757 0.671761 0.091448 0.227453
C29   C     C_R   0.252651 0.672803 0.053050 -0.149148
C30   C     C_R   0.668436 0.535154 0.892189 -0.158723
C31   C     C_R   0.767314 0.506112 0.933499 -0.198975
H1    H     H_    0.145831 0.704349 0.096450 0.205595
H2    H     H_    0.534898 0.204564 0.322817 0.147329
H3    H     H_    0.372081 0.122724 0.386605 0.224501
H4    H     H_    0.509408 0.048601 0.288911 0.211262
H5    H     H_    0.063168 0.836419 0.899415 0.156088
H6    H     H_    0.055883 0.845024 0.018854 0.184540
H7    H     H_    0.898604 0.818693 0.994420 0.209397
H8    H     H_    0.011558 0.616039 0.710023 0.181710
H9    H     H_    0.144004 0.715620 0.720585 0.162876
H10   H     H_    0.973125 0.702450 0.815845 0.193370
H11   H     H_    0.931915 0.441617 0.030143 0.177904
H12   H     H_    0.658499 0.887876 0.558899 0.194170
H13   H     H_    0.069305 0.537549 0.556685 0.123740
H14   H     H_    0.877016 0.572990 0.532677 0.157204
H15   H     H_    0.435878 0.562852 0.222780 0.223469
H16   H     H_    0.857311 0.442061 0.200446 0.197723
H17   H     H_    0.869410 0.462595 0.891398 0.213161
H18   H     H_    0.697965 0.507470 0.819732 0.200225
N1    N     N_2   0.148330 0.498670 0.499030 -0.204274
N2    N     N_2   0.852680 0.498640 0.499000 -0.210029
O1    O     O_R   0.386950 0.680940 0.500010 -0.577139
O2    O     O_3   0.037981 0.663976 0.971157 -0.618292
O3    O     O_3   0.112146 0.545204 0.795552 -0.599315
O4    O     O_R   0.613110 0.680900 0.499990 -0.611167
O5    O     O_R   0.322330 0.500030 0.632270 -0.578247
O6    O     O_R   0.548480 0.499990 0.632240 -0.564184
O7    O     O_R   0.386890 0.319100 0.500010 -0.587775
O8    O     O_R   0.613050 0.319060 0.499990 -0.559184
O9    O     O_R   0.451520 0.500010 0.367760 -0.574636
O10   O     O_R   0.677670 0.499970 0.367730 -0.584075
O11   O     O_3   0.555008 0.058124 0.408475 -0.631059
Zn1   Zn    Zn3+2 0.349000 0.500030 0.500020 1.035891
Zn2   Zn    Zn3+2 0.651000 0.499970 0.499980 1.045743

loop_
_geom_bond_atom_site_label_1
_geom_bond_atom_site_label_2
_ccdc_geom_bond_type
O4    Zn2   S    
C13   N1    D    
C5    C6    A    
O1    Zn1   S    
Br3   C13   S    
H14   N2    S    
C17   C21   A    
C4    C17   S    
C7    H15   S    
C23   C29   A    
C6    C18   A    
C1    O1    A    
C6    H16   S    
O6    Zn2   S    
O10   Zn2   S    
C26   C27   A    
C16   O9    A    
C4    O6    A    
C27   C28   A    
C14   N2    D    
C12   C23   A    
C25   H10   S    
O7    Zn1   S    
C24   O2    S    
Br2   C11   S    
C3    C27   A    
C24   H7    S    
C5    H11   S    
C4    O5    A    
C20   O3    S    
C2    C5    A    
C9    O11   S    
C26   C30   A    
C30   C31   A    
C22   O11   S    
N1    Zn1   S    
C8    C10   S    
C19   C23   A    
C16   O10   A    
C10   C11   D    
C16   C18   S    
C24   H6    S    
O9    Zn1   S    
C12   C26   A    
C2    C31   A    
C31   H17   S    
N2    Zn2   S    
O8    Zn2   S    
Br4   C14   S    
C25   O3    S    
Br6   C28   S    
C22   H4    S    
C9    C15   S    
C29   H1    S    
C10   H12   S    
O5    Zn1   S    
C28   C29   A    
C25   H8    S    
C17   C20   A    
C30   H18   S    
C22   H3    S    
C8    C9    D    
C1    O4    A    
C15   O7    A    
C3    C7    A    
Br1   C8    S    
C19   O2    S    
C22   H2    S    
C15   O8    A    
C19   C20   A    
Br5   C21   S    
C24   H5    S    
H13   N1    S    
C12   C21   A    
C13   C14   S    
C7    C18   A    
C2    C3    A    
C1    C11   S    
C25   H9    S    
