data_mof_unit_899.cif
_audit_creation_date              2013-03-05T16:04:36-0500
_audit_creation_method            fapswitch 2.2
_symmetry_space_group_name_H-M    P1
_symmetry_Int_Tables_number       1
_space_group_crystal_system       triclinic
_cell_length_a                    8.356757
_cell_length_b                    14.751443
_cell_length_c                    18.716237
_cell_angle_alpha                 97.709662
_cell_angle_beta                  90.424669
_cell_angle_gamma                 92.995604
_cell_volume                      2283.00689222

loop_
_atom_site_label
_atom_site_type_symbol
_atom_site_description
_atom_site_fract_x
_atom_site_fract_y
_atom_site_fract_z
_atom_type_partial_charge
P1    P     P_3+3 0.061800 0.409390 0.339760 0.484496
O1    O     O_2   0.887710 0.436190 0.327560 -0.367802
O2    O     O_3   0.135370 0.443490 0.416520 -0.402194
O3    O     O_3   0.634420 0.609440 0.364670 -0.352497
O4    O     O_2   0.749716 0.525906 0.249009 -0.385890
O5    O     O_3   0.047286 0.290510 0.323659 -0.526894
O6    O     O_3   0.714508 0.695410 0.240778 -0.526646
C1    C     C_3   0.653736 0.825136 0.181569 0.353127
H1    H     H_    0.784810 0.843435 0.186002 0.107146
P2    P     P_3+3 0.622760 0.718740 0.547830 0.508290
P3    P     P_3+3 0.076121 0.775686 0.393755 0.557571
O7    O     O_2   0.795290 0.730930 0.525800 -0.330401
O8    O     O_3   0.044470 0.660110 0.398750 -0.396951
O9    O     O_2   0.939368 0.823904 0.436404 -0.307232
O10   O     O_3   0.607358 0.764702 0.640247 -0.549208
O11   O     O_3   0.038114 0.789934 0.303912 -0.462834
C2    C     C_3   0.109432 0.719047 0.259495 0.434285
H2    H     H_    0.044298 0.652176 0.263118 0.127244
H3    H     H_    0.236960 0.714910 0.275043 -0.002476
C3    C     C_3   0.101640 0.736819 0.181406 -0.797965
H4    H     H_    0.976787 0.725487 0.160507 0.256498
H5    H     H_    0.144408 0.808236 0.176979 0.314433
C4    C     C_3   0.203251 0.741947 0.612010 0.309949
H6    H     H_    0.303980 0.704549 0.587063 0.110486
H7    H     H_    0.099937 0.734336 0.573595 0.146705
C5    C     C_3   0.253651 0.842809 0.630019 -0.717291
H8    H     H_    0.369415 0.851944 0.659283 0.273976
H9    H     H_    0.267329 0.874291 0.580204 0.231255
H10   H     H_    0.163468 0.878306 0.664887 0.313389
Ba1   Ba    Ba6+2 0.843240 0.541620 0.463500 1.582203
C6    C     C_3   0.999172 0.255626 0.385906 0.121849
H11   H     H_    0.880765 0.280222 0.401957 0.119741
H12   H     H_    0.088089 0.275945 0.430407 0.098047
C7    C     C_3   0.990610 0.151910 0.369362 -0.012477
H13   H     H_    0.973393 0.122204 0.420067 0.078798
H14   H     H_    0.106160 0.130053 0.345988 0.169565
C8    C     C_3   0.665763 0.720437 0.696581 0.649836
C9    C     C_3   0.551467 0.740074 0.761482 -0.093026
H15   H     H_    0.572101 0.694682 0.803217 0.085486
H16   H     H_    0.427553 0.724567 0.740951 0.153079
P4    P     P_3+3 0.127890 0.590690 0.660240 0.431694
O12   O     O_2   0.301980 0.563840 0.672490 -0.395535
O13   O     O_3   0.054330 0.556590 0.583490 -0.407843
O14   O     O_3   0.555270 0.390630 0.635330 -0.364608
O15   O     O_3   0.160227 0.709214 0.676089 -0.577702
P5    P     P_3+3 0.123560 0.224169 0.605540 0.549283
O16   O     O_3   0.637720 0.384870 0.467990 -0.374251
O17   O     O_3   0.145220 0.339960 0.601250 -0.403123
O18   O     O_2   0.274479 0.179482 0.572540 -0.393984
O19   O     O_3   0.128117 0.208370 0.697126 -0.474606
Ba2   Ba    Ba6+2 0.346570 0.458460 0.536510 1.561312
P6    P     P_3+3 0.624236 0.596838 0.270820 0.445262
C10   C     C_3   0.609495 0.767352 0.242861 0.293888
H17   H     H_    0.482600 0.741757 0.235048 0.077490
O20   O     O_3   0.551980 0.615210 0.532020 -0.402219
C11   C     C_3   0.470916 0.269288 0.314996 0.352791
H18   H     H_    0.364900 0.295906 0.344716 0.106772
C12   C     C_3   0.413135 0.197514 0.251094 -0.008651
H19   H     H_    0.343579 0.141724 0.272846 0.170803
H20   H     H_    0.517943 0.166380 0.223059 0.210255
P7    P     P_3+3 0.573132 0.267251 0.450028 0.454711
O21   O     O_2   0.394410 0.269100 0.474240 -0.393959
O22   O     O_3   0.572331 0.224653 0.357666 -0.543712
H21   H     H_    0.177873 0.689192 0.147779 0.216571
C13   C     C_3   0.154599 0.292928 0.741475 0.492341
H22   H     H_    0.259109 0.331385 0.723379 0.130650
H23   H     H_    0.053121 0.336614 0.739011 0.094105
C14   C     C_3   0.179737 0.278937 0.820535 -0.520985
H24   H     H_    0.200075 0.347004 0.853458 0.189302
H25   H     H_    0.287514 0.240204 0.827091 0.251205
P8    P     P_3+3 0.577480 0.396170 0.728757 0.429093
C15   C     C_3   0.557785 0.214357 0.708300 0.718913
O23   O     O_2   0.453763 0.463929 0.761722 -0.434955
O24   O     O_3   0.517850 0.290342 0.758017 -0.626303
H26   H     H_    0.517789 0.222447 0.652958 0.079695
H27   H     H_    0.514174 0.113088 0.782420 0.275766
C16   C     C_3   0.473079 0.126563 0.728426 -0.781793
H28   H     H_    0.498421 0.067695 0.687495 0.259348
H29   H     H_    0.342592 0.130231 0.729920 0.267391
C17   C     C_R   0.013805 0.441070 0.047404 0.054934
C18   C     C_R   0.938362 0.389143 0.097027 -0.207443
C19   C     C_R   0.799952 0.402288 0.953158 -0.231565
C20   C     C_R   0.950714 0.443868 0.976332 0.054934
C21   C     C_R   0.739982 0.406377 0.884246 -0.139241
C22   C     C_R   0.831065 0.447534 0.833505 -0.038564
C23   C     C_R   0.978796 0.494088 0.855589 -0.006285
C24   C     C_R   0.037242 0.493583 0.927578 0.064946
C25   C     C_R   0.781475 0.440972 0.760745 0.275204
C26   C     C_R   0.886365 0.472980 0.710076 -0.443353
C27   C     C_R   0.019887 0.531927 0.731770 0.211122
C28   C     C_R   0.067432 0.541856 0.805967 -0.068070
C29   C     C_R   0.160901 0.489198 0.069157 0.052428
C30   C     C_R   0.221773 0.491456 0.141282 -0.013189
C31   C     C_R   0.128830 0.450143 0.193065 -0.005901
C32   C     C_R   0.992175 0.395464 0.168321 0.035764
H30   H     H_    0.853368 0.459869 0.653506 0.196390
H31   H     H_    0.622982 0.373953 0.871112 0.190460
H32   H     H_    0.925616 0.355507 0.203378 0.172276
C33   C     C_R   0.201622 0.596791 0.832294 -0.041786
C34   C     C_R   0.259072 0.596590 0.902270 -0.154399
C35   C     C_R   0.183983 0.541056 0.949632 0.046885
C36   C     C_R   0.249998 0.533403 0.018634 -0.030428
C37   C     C_R   0.410430 0.559347 0.035340 -0.088141
C38   C     C_R   0.378283 0.530936 0.160158 -0.069226
C39   C     C_R   0.478392 0.551593 0.102473 0.265595
C40   C     C_R   0.425884 0.544582 0.234599 0.168272
C41   C     C_R   0.320879 0.513955 0.286370 -0.513411
C42   C     C_R   0.177683 0.462258 0.267056 0.235340
H33   H     H_    0.264527 0.640078 0.799022 0.153118
H34   H     H_    0.357324 0.524459 0.342576 0.187155
H35   H     H_    0.722390 0.367915 0.987900 0.157491
H36   H     H_    0.834620 0.343661 0.082773 0.150747
H37   H     H_    0.361936 0.642236 0.918653 0.160625
H38   H     H_    0.489835 0.577547 0.993623 0.148977
C43   C     C_R   0.698022 0.946059 0.540135 0.430513
C44   C     C_R   0.519274 0.801901 0.496688 0.286475
C45   C     C_R   0.377395 0.767077 0.459969 -0.587022
C46   C     C_R   0.276726 0.823295 0.428139 0.135106
C47   C     C_R   0.327403 0.914515 0.423446 0.295744
C48   C     C_R   0.468508 0.954020 0.460411 -0.110968
C49   C     C_R   0.564553 0.899408 0.499587 -0.197723
H39   H     H_    0.339790 0.695681 0.459530 0.180810
C50   C     C_R   0.645365 0.092547 0.497476 -0.069474
C51   C     C_R   0.748103 0.038231 0.532320 -0.223008
C52   C     C_R   0.684521 0.188873 0.499852 0.227615
C53   C     C_R   0.826943 0.226724 0.533515 -0.507492
C54   C     C_R   0.935701 0.171939 0.561355 0.212484
C55   C     C_R   0.896998 0.079132 0.561736 0.330400
C56   C     C_R   0.507199 0.049311 0.462224 0.062319
H40   H     H_    0.857115 0.299305 0.535506 0.184193
H41   H     H_    0.427683 0.090616 0.436307 0.162772
C57   C     C_3   0.631753 0.827047 0.315746 -0.750067
H42   H     H_    0.544660 0.881180 0.320995 0.236498
H43   H     H_    0.613527 0.784570 0.359515 0.242279
H44   H     H_    0.754302 0.860120 0.321500 0.302800
N1    N     N_R   0.860601 0.118582 0.318564 0.304193
O25   O     O_R   0.859751 0.142094 0.254026 -0.268954
O26   O     O_R   0.753856 0.057750 0.335035 -0.349646
C58   C     C_3   0.833990 0.759730 0.718283 -0.614105
H45   H     H_    0.838453 0.834472 0.736187 0.290028
H46   H     H_    0.886278 0.724879 0.761414 0.182186
H47   H     H_    0.904963 0.748962 0.669483 0.254737
C59   C     C_3   0.672264 0.617802 0.676769 -0.878277
H48   H     H_    0.770538 0.601183 0.638681 0.237233
H49   H     H_    0.688211 0.589238 0.727284 0.181611
H50   H     H_    0.562173 0.585952 0.651561 0.310662
N2    N     N_R   0.565598 0.835228 0.796281 0.283088
O27   O     O_R   0.669570 0.858400 0.848499 -0.314785
O28   O     O_R   0.451469 0.889806 0.788246 -0.333788
N3    N     N_R   0.568545 0.910084 0.187849 0.249295
O29   O     O_R   0.412732 0.907742 0.187253 -0.325304
O30   O     O_R   0.648193 0.988000 0.186705 -0.286653
C60   C     C_3   0.568652 0.347323 0.288000 -0.749653
H51   H     H_    0.593122 0.403032 0.333202 0.266457
H52   H     H_    0.682419 0.321878 0.265010 0.262107
H53   H     H_    0.504010 0.375798 0.245420 0.213946
N4    N     N_R   0.313321 0.235075 0.198868 0.232894
O31   O     O_R   0.161935 0.209751 0.192888 -0.307353
O32   O     O_R   0.380917 0.270790 0.145978 -0.398808
N5    N     N_R   0.618972 0.772889 0.110677 0.226849
O33   O     O_R   0.471283 0.755108 0.088627 -0.384276
O34   O     O_R   0.734305 0.756108 0.065279 -0.382136
C61   C     C_3   0.037152 0.227881 0.850207 -0.587924
H54   H     H_    0.030553 0.155015 0.825505 0.305422
H55   H     H_    0.051915 0.230426 0.909467 0.232947
H56   H     H_    0.923918 0.259504 0.839012 0.252644
N6    N     N_R   0.730226 0.205046 0.709061 0.203471
O35   O     O_R   0.820844 0.267194 0.684898 -0.500305
O36   O     O_R   0.794565 0.133877 0.729157 -0.348434
C62   C     C_3   0.656913 0.544332 0.102718 -0.811428
H57   H     H_    0.684415 0.481198 0.124812 0.244024
H58   H     H_    0.705806 0.537976 0.047660 0.221401
H59   H     H_    0.721343 0.605485 0.130690 0.290919
N7    N     N_R   0.240193 0.965667 0.377710 0.222673
O37   O     O_R   0.086392 0.971691 0.383981 -0.358343
O38   O     O_R   0.311120 0.995340 0.323163 -0.401954
N8    N     N_R   0.019560 0.026022 0.585049 0.268134
O39   O     O_R   0.123071 0.993866 0.538328 -0.423432
O40   O     O_R   0.052070 0.030035 0.653530 -0.300651
N9    N     N_R   0.755133 0.912163 0.602732 0.247425
O41   O     O_R   0.699812 0.945348 0.665003 -0.359311
O42   O     O_R   0.890074 0.872456 0.600780 -0.384821

loop_
_geom_bond_atom_site_label_1
_geom_bond_atom_site_label_2
_geom_bond_distance
_ccdc_geom_bond_type
C59   H50   1.085657 S    
C20   C24   1.423812 A    
Ba1   Ba2   4.538817 S    
C3    H21   1.108890 S    
N4    O31   1.299939 A    
C4    O15   1.394419 S    
P3    O8    1.726677 S    
P4    O12   1.551003 D    
C61   H54   1.110057 S    
C38   C40   1.431110 A    
C32   H32   1.078061 S    
C50   C51   1.417106 A    
N6    O36   1.301805 A    
C10   H17   1.108821 S    
C48   C49   1.431143 A    
P5    O18   1.547854 D    
C31   C42   1.426178 A    
C5    H8    1.101246 S    
C53   C54   1.390458 A    
O3    P6    1.742324 S    
C43   C49   1.435510 A    
C21   H31   1.077591 S    
P1    Ba1   3.424517 S    
C61   H55   1.110462 S    
C8    C9    1.556734 S    
O6    P6    1.763689 S    
C7    H13   1.104694 S    
P2    O10   1.779287 S    
C17   C20   1.433782 A    
C47   N7    1.433445 S    
C22   C23   1.412174 A    
C9    H15   1.112952 S    
C18   C32   1.394555 A    
C58   H47   1.090949 S    
C14   C61   1.524351 S    
C62   H57   1.102480 S    
C53   H40   1.082710 S    
C12   H20   1.112458 S    
C59   H48   1.107058 S    
C33   H33   1.071600 S    
C2    C3    1.520602 S    
C11   H18   1.110654 S    
O14   P8    1.747569 S    
P1    O1    1.550602 D    
C4    C5    1.517419 S    
P7    O22   1.758168 S    
P2    Ba1   3.486023 S    
C46   C47   1.403729 A    
O10   C8    1.409494 S    
C2    H3    1.109564 S    
C24   C35   1.410589 A    
O17   Ba2   2.765177 S    
N2    O27   1.301411 A    
C57   H42   1.103540 S    
N8    O40   1.301112 A    
C41   C42   1.403020 A    
C6    H12   1.111851 S    
O4    P6    1.538657 D    
C60   H52   1.109034 S    
Ba2   O20   2.817756 S    
C43   N9    1.422751 S    
C29   C36   1.413819 A    
O12   Ba2   2.836484 S    
C51   C55   1.427460 A    
O7    Ba1   2.927282 S    
P7    O21   1.564521 D    
P4    C27   1.898895 S    
P6    C40   1.873753 S    
N4    O32   1.301415 A    
C50   C56   1.405023 A    
P4    O13   1.566870 S    
C31   C32   1.401740 A    
Ba2   O21   2.927624 S    
C15   H26   1.109518 S    
C30   C38   1.425822 A    
C38   C39   1.425957 A    
N9    O42   1.296142 A    
C16   H29   1.094990 S    
C47   C48   1.420082 A    
P5    O17   1.720886 S    
C6    C7    1.517542 S    
C39   C62   1.501291 S    
C48   C56   1.421682 A    
C35   C36   1.421274 A    
P5    C54   1.850802 S    
C61   H56   1.107417 S    
C21   C22   1.402487 A    
C15   O24   1.413323 S    
C44   C49   1.461809 A    
N6    O35   1.289260 A    
P8    O23   1.549397 D    
O2    Ba2   2.823950 S    
C23   C24   1.430849 A    
C1    H1    1.114134 S    
O16   Ba2   2.948170 S    
C13   H23   1.095933 S    
C12   H19   1.106481 S    
C16   H28   1.108574 S    
P1    O5    1.736743 S    
P1    O2    1.567065 S    
N5    O34   1.301077 A    
C17   C29   1.415858 A    
O2    Ba1   2.981273 S    
C1    N3    1.464879 S    
C45   H39   1.082176 S    
C15   C16   1.535993 S    
P3    O11   1.751129 S    
Ba1   O16   2.818276 S    
C6    H11   1.101664 S    
C18   H36   1.077345 S    
C7    N1    1.459265 S    
C4    H6    1.102807 S    
C13   C14   1.535620 S    
C37   H38   1.080429 S    
C2    H2    1.111894 S    
C11   O22   1.406757 S    
C37   C39   1.396119 A    
C30   C31   1.426226 A    
C40   C41   1.414799 A    
H27   C16   1.111110 S    
C60   H53   1.100234 S    
P2    O20   1.597358 S    
P2    O7    1.510863 D    
C11   C60   1.520322 S    
O14   Ba2   2.845139 S    
N1    O26   1.300244 A    
C3    H5    1.108585 S    
N8    O39   1.296428 A    
C19   C21   1.390237 A    
C52   C53   1.396537 A    
C41   H34   1.081652 S    
N3    O30   1.300540 A    
Ba1   O13   2.823384 S    
O6    C10   1.408764 S    
O8    Ba1   2.764601 S    
C54   C55   1.391141 A    
C1    N5    1.461304 S    
P2    C44   1.892795 S    
N9    O41   1.300091 A    
C22   C25   1.409835 A    
C59   H49   1.095475 S    
C43   C51   1.428303 A    
C8    C59   1.513591 S    
N2    O28   1.300413 A    
C3    H4    1.108030 S    
C14   H24   1.109677 S    
C34   H37   1.080067 S    
C17   C18   1.412763 A    
C12   N4    1.462782 S    
C1    C10   1.554016 S    
O16   P7    1.776980 S    
P8    O24   1.771281 S    
P7    C52   1.860566 S    
C58   H45   1.107110 S    
Ba1   O20   2.948948 S    
P5    O19   1.761021 S    
C5    H9    1.100106 S    
C33   C34   1.391991 A    
O1    Ba1   2.836021 S    
C23   C28   1.427909 A    
C19   H35   1.077205 S    
C26   H30   1.081490 S    
C26   C27   1.401134 A    
P3    O9    1.547668 D    
C13   H22   1.097022 S    
C45   C46   1.395856 A    
N5    O33   1.300743 A    
C9    H16   1.103655 S    
C58   H46   1.111972 S    
O13   Ba2   2.982052 S    
C27   C28   1.427929 A    
O11   C2    1.406765 S    
C62   H58   1.105413 S    
C57   H44   1.109264 S    
C62   H59   1.093667 S    
C29   C30   1.434600 A    
C15   N6    1.454855 S    
C11   C12   1.543654 S    
C44   C45   1.404098 A    
O5    C6    1.389230 S    
C7    H14   1.108472 S    
C4    H7    1.110838 S    
C36   C37   1.396335 A    
O19   C13   1.408717 S    
N7    O38   1.298833 A    
C9    N2    1.464465 S    
C50   C52   1.436095 A    
P1    C42   1.903409 S    
P8    C25   1.860723 S    
C25   C26   1.407057 A    
C5    H10   1.106744 S    
C57   H43   1.102956 S    
C19   C20   1.411161 A    
C8    C58   1.523321 S    
C10   C57   1.525674 S    
C14   H25   1.106200 S    
P4    O15   1.740171 S    
N3    O29   1.300670 A    
N1    O25   1.300745 A    
C34   C35   1.414206 A    
C55   N8    1.422024 S    
C28   C33   1.395243 A    
C60   H51   1.107341 S    
P3    C46   1.859414 S    
P4    Ba2   3.424973 S    
O3    Ba1   2.845829 S    
C56   H41   1.079329 S    
N7    O37   1.298072 A    
