data_mof_unit_2091.cif
_audit_creation_date              2012-10-26T19:04:21-0400
_audit_creation_method            fapswitch 2.2
_symmetry_space_group_name_H-M    P1
_symmetry_Int_Tables_number       1
_space_group_crystal_system       triclinic
_cell_length_a                    15.002143
_cell_length_b                    15.708876
_cell_length_c                    9.63808
_cell_angle_alpha                 90.03594
_cell_angle_beta                  87.80401
_cell_angle_gamma                 90.011056
_cell_volume                      2269.70693578

loop_
_atom_site_label
_atom_site_type_symbol
_atom_type_description
_atom_site_fract_x
_atom_site_fract_y
_atom_site_fract_z
_atom_type_partial_charge
C1    C     C_R   0.381707 0.880119 0.502805 0.578968
C2    C     C_R   0.717017 0.222085 0.377914 -0.140983
C3    C     C_R   0.217458 0.278182 0.377258 -0.140559
C4    C     C_R   0.222070 0.717344 0.378603 -0.153289
C5    C     C_R   0.669652 0.800224 0.497683 0.032024
C6    C     C_R   0.667505 0.201357 0.498399 0.032691
C7    C     C_R   0.167509 0.298687 0.497451 0.032726
C8    C     C_R   0.169342 0.699918 0.497629 0.031594
C9    C     C_R   0.668626 0.972871 0.124390 0.132157
C10   C     C_R   0.168400 0.527887 0.124569 0.135012
C11   C     C_R   0.738848 0.941428 0.039267 -0.140560
C12   C     C_R   0.381365 0.119642 0.502856 0.574163
C13   C     C_R   0.238490 0.559732 0.039630 -0.140448
C14   C     C_R   0.736442 0.949491 0.898453 -0.170159
C15   C     C_R   0.236193 0.551565 0.898769 -0.169854
C16   C     C_R   0.661270 0.982355 0.841530 -0.073123
C17   C     C_R   0.161180 0.518320 0.841742 -0.072404
C18   C     C_R   0.579912 0.990883 0.919059 0.158533
C19   C     C_R   0.079818 0.509625 0.919166 0.160997
C20   C     C_R   0.581402 0.989013 0.068532 0.197124
C21   C     C_R   0.081279 0.511551 0.068601 0.201582
C22   C     C_R   0.423403 0.005091 0.078649 0.234937
C23   C     C_R   0.881397 0.380361 0.502832 0.574947
C24   C     C_R   0.923240 0.493065 0.078043 0.240519
C25   C     C_R   0.611609 0.124528 0.499061 0.578984
C26   C     C_R   0.612336 0.875963 0.498907 0.571756
C27   C     C_R   0.112220 0.624085 0.498925 0.572866
C28   C     C_R   0.111715 0.375562 0.498824 0.578899
C29   C     C_R   0.423792 0.005738 0.930695 0.038201
C30   C     C_R   0.923993 0.492976 0.930065 0.048285
C31   C     C_R   0.289434 0.192140 0.771087 -0.072310
C32   C     C_R   0.288170 0.811088 0.770387 -0.087748
C33   C     C_R   0.786185 0.685927 0.770287 -0.089942
C34   C     C_R   0.881737 0.619876 0.502868 0.576825
C35   C     C_R   0.790144 0.309093 0.771136 -0.072581
C36   C     C_R   0.235245 0.214550 0.886753 0.072891
C37   C     C_R   0.231254 0.795855 0.886049 0.078479
C38   C     C_R   0.727830 0.698247 0.885184 0.081713
C39   C     C_R   0.735769 0.289284 0.887486 0.069633
C40   C     C_R   0.639949 0.724753 0.863726 0.295076
C41   C     C_R   0.647951 0.262629 0.870128 0.276149
C42   C     C_R   0.147229 0.240334 0.868513 0.276169
C43   C     C_R   0.142795 0.770706 0.865719 0.292875
C44   C     C_R   0.616233 0.747658 0.729613 0.268203
C45   C     C_R   0.286814 0.220507 0.382562 -0.137123
C46   C     C_R   0.619729 0.247029 0.736121 0.271741
C47   C     C_R   0.118952 0.253246 0.734094 0.272224
C48   C     C_R   0.117420 0.750775 0.731275 0.269672
C49   C     C_R   0.681772 0.752608 0.620370 -0.011655
C50   C     C_R   0.682219 0.246394 0.622604 -0.011864
C51   C     C_R   0.181698 0.253421 0.621203 -0.012251
C52   C     C_R   0.182030 0.747031 0.620588 -0.012091
C53   C     C_R   0.262277 0.208608 0.634126 -0.031897
C54   C     C_R   0.262560 0.791742 0.633799 -0.031407
C55   C     C_R   0.762011 0.707485 0.633829 -0.030329
C56   C     C_R   0.291045 0.775366 0.383679 -0.133425
C57   C     C_R   0.762774 0.291469 0.634662 -0.031661
C58   C     C_R   0.311442 0.185532 0.509409 0.037411
C59   C     C_R   0.313084 0.813080 0.509639 0.044952
C60   C     C_R   0.813224 0.686951 0.509899 0.045042
C61   C     C_R   0.811539 0.314452 0.509606 0.037478
C62   C     C_R   0.791764 0.725173 0.384122 -0.138590
C63   C     C_R   0.786454 0.279660 0.382910 -0.133026
C64   C     C_R   0.722745 0.783069 0.378910 -0.152676
Cl1   Cl    Cl    0.558840 0.729788 0.001608 -0.583180
Cl2   Cl    Cl    0.573929 0.247974 0.015074 -0.570700
Cl3   Cl    Cl    0.073106 0.257687 0.012576 -0.570601
Cl4   Cl    Cl    0.063370 0.762668 0.005541 -0.587673
Cl5   Cl    Cl    0.502648 0.746946 0.691162 -0.575514
Cl6   Cl    Cl    0.505029 0.249978 0.706290 -0.559408
Cl7   Cl    Cl    0.004401 0.248904 0.703501 -0.561026
Cl8   Cl    Cl    0.003252 0.751807 0.696008 -0.572246
Cu1   Cu    Cu3+1 0.499990 0.000000 0.640660 1.012177
Cu2   Cu    Cu3+1 0.999990 0.500000 0.640660 1.012278
Cu3   Cu    Cu3+1 0.500010 0.000000 0.359340 1.067587
Cu4   Cu    Cu3+1 0.000010 0.500000 0.359340 1.060693
H1    H     H_    0.323536 0.205515 0.286936 0.171006
H2    H     H_    0.861819 0.488268 0.877249 0.111676
H3    H     H_    0.354330 0.168784 0.793980 0.233371
H4    H     H_    0.353768 0.832672 0.793729 0.229568
H5    H     H_    0.851587 0.664294 0.794517 0.226438
H6    H     H_    0.855270 0.331960 0.793658 0.235058
H7    H     H_    0.711848 0.815052 0.281691 0.144669
H8    H     H_    0.702818 0.192970 0.279715 0.157266
H9    H     H_    0.203659 0.307497 0.279137 0.157102
H10   H     H_    0.210977 0.685366 0.281392 0.145208
H11   H     H_    0.801908 0.924427 0.083067 0.146041
H12   H     H_    0.329393 0.788617 0.288796 0.161249
H13   H     H_    0.301480 0.576909 0.083537 0.145226
H14   H     H_    0.273722 0.272782 0.059602 0.256987
H15   H     H_    0.226309 0.176474 0.086418 0.256128
H16   H     H_    0.312770 0.762281 0.037494 0.254391
H17   H     H_    0.215850 0.802693 0.099563 0.278588
H18   H     H_    0.809963 0.722827 0.040365 0.246982
H19   H     H_    0.710116 0.687727 0.098289 0.280763
H20   H     H_    0.772227 0.236478 0.065887 0.254543
H21   H     H_    0.727818 0.335028 0.083553 0.264637
H22   H     H_    0.302375 0.955041 0.126292 0.243694
H23   H     H_    0.830436 0.712276 0.289385 0.150965
H24   H     H_    0.306799 0.061817 0.130208 0.224682
H25   H     H_    0.789539 0.469012 0.090477 0.214739
H26   H     H_    0.822610 0.551676 0.181964 0.252549
H27   H     H_    0.740228 0.056957 0.229116 0.213629
H28   H     H_    0.736539 0.961044 0.301725 0.213082
H29   H     H_    0.240212 0.443329 0.227738 0.213194
H30   H     H_    0.236477 0.538867 0.301884 0.213272
H31   H     H_    0.822827 0.294863 0.287121 0.179615
H32   H     H_    0.795639 0.936649 0.833920 0.164070
H33   H     H_    0.295384 0.564549 0.834326 0.164526
H34   H     H_    0.671029 0.999202 0.735675 0.184754
H35   H     H_    0.171039 0.501088 0.735997 0.184265
H36   H     H_    0.361167 0.009889 0.878993 0.112371
N1    N     N_R   0.501200 0.000000 0.147910 -0.190080
N2    N     N_3   0.839712 0.489324 0.154931 -0.553364
N3    N     N_3   0.697369 0.006040 0.252360 -0.541196
N4    N     N_3   0.197309 0.494063 0.251932 -0.540952
N5    N     N_R   0.001200 0.500000 0.147910 -0.196304
N6    N     N_R   0.501270 0.000000 0.852040 -0.244987
N7    N     N_R   0.001270 0.500000 0.852040 -0.246692
N8    N     N_3   0.270933 0.210524 0.021771 -0.618354
N9    N     N_3   0.265216 0.809550 0.021418 -0.644348
N10   N     N_3   0.759443 0.679130 0.020491 -0.643871
N11   N     N_3   0.771148 0.297336 0.022373 -0.604429
N12   N     N_3   0.340614 0.006770 0.156604 -0.553910
O1    O     O_R   0.409820 0.909830 0.618810 -0.500420
O2    O     O_R   0.590170 0.909830 0.618760 -0.507732
O3    O     O_R   0.090170 0.590170 0.618760 -0.507109
O4    O     O_R   0.090170 0.409830 0.618760 -0.509846
O5    O     O_R   0.590190 0.090180 0.381190 -0.463575
O6    O     O_R   0.590190 0.909820 0.381190 -0.483391
O7    O     O_R   0.090190 0.590180 0.381190 -0.481901
O8    O     O_R   0.090190 0.409820 0.381190 -0.461951
O9    O     O_R   0.409820 0.090170 0.618810 -0.503998
O10   O     O_R   0.909820 0.409830 0.618810 -0.505991
O11   O     O_R   0.909820 0.590170 0.618810 -0.497348
O12   O     O_R   0.409840 0.909830 0.381240 -0.480050
O13   O     O_R   0.409840 0.090170 0.381240 -0.474861
O14   O     O_R   0.909840 0.409830 0.381240 -0.467262
O15   O     O_R   0.909840 0.590170 0.381240 -0.506747
O16   O     O_R   0.590170 0.090170 0.618760 -0.509567

loop_
_geom_bond_atom_site_label_1
_geom_bond_atom_site_label_2
_ccdc_geom_bond_type
C44   C49   A    
C33   C55   A    
C24   N2    S    
C22   C29   A    
C3    H9    S    
C27   O7    A    
C15   H33   S    
H29   N4    S    
C36   C42   A    
C4    C8    A    
C25   O5    A    
C16   H34   S    
C39   C41   A    
H22   N12   S    
Cu2   N7    S    
C24   N5    A    
Cu2   Cu4   S    
C19   C21   A    
H17   N9    S    
C23   O14   A    
C3    C7    A    
C1    C59   S    
C20   N1    A    
C11   C14   A    
C56   H12   S    
C6    C25   S    
C4    H10   S    
C30   N7    A    
Cu1   O2    S    
C34   O15   A    
C39   N11   S    
C60   C62   A    
C26   O2    A    
C61   C63   A    
C62   C64   A    
C29   H36   S    
C17   C19   A    
C2    H8    S    
C22   N1    A    
Cu2   O4    S    
C11   H11   S    
C43   Cl4   S    
C21   N5    A    
C41   C46   A    
Cu3   N1    S    
C1    O12   A    
C43   C48   A    
C8    C52   A    
C40   C44   A    
C23   O10   A    
Cu3   O6    S    
C12   C58   S    
C14   H32   S    
C19   N7    A    
C55   C60   A    
C4    C56   A    
C34   C60   S    
H25   N2    S    
Cu1   Cu3   S    
C5    C49   A    
C2    C6    A    
C27   O3    A    
C48   Cl8   S    
C31   H3    S    
C17   H35   S    
C32   C54   A    
C35   H6    S    
C52   C54   A    
C28   O8    A    
C54   C59   A    
C10   C21   A    
C45   C58   A    
C9    N3    S    
C25   O16   A    
Cu3   O13   S    
Cu3   O12   S    
C47   C51   A    
C49   C55   A    
C3    C45   A    
C31   C53   A    
C7    C28   S    
C62   H23   S    
C5    C64   A    
H30   N4    S    
H24   N12   S    
H14   N8    S    
C37   C43   A    
C35   C39   A    
C64   H7    S    
H27   N3    S    
H26   N2    S    
C32   H4    S    
H28   N3    S    
C9    C20   A    
Cu2   O3    S    
C48   C52   A    
Cu2   O11   S    
C44   Cl5   S    
C32   C37   A    
C6    C50   A    
C22   N12   S    
C9    C11   A    
C47   Cl7   S    
C38   N10   S    
C37   N9    S    
H18   N10   S    
H19   N10   S    
Cu1   O9    S    
C40   Cl1   S    
C13   C15   A    
C42   Cl3   S    
C14   C16   A    
C63   H31   S    
C10   N4    S    
C2    C63   A    
Cu4   O15   S    
C15   C17   A    
C18   N6    A    
Cu1   N6    S    
H20   N11   S    
C13   H13   S    
C31   C36   A    
C50   C57   A    
C12   O13   A    
C33   C38   A    
C1    O1    A    
C10   C13   A    
C26   O6    A    
C53   C58   A    
C57   C61   A    
C41   Cl2   S    
Cu1   O16   S    
Cu4   O14   S    
C29   N6    A    
C46   C50   A    
Cu4   N5    S    
C56   C59   A    
C35   C57   A    
C7    C51   A    
H21   N11   S    
H16   N9    S    
C38   C40   A    
Cu4   O8    S    
C34   O11   A    
Cu1   O1    S    
Cu2   O10   S    
Cu4   O7    S    
C18   C20   A    
C42   C47   A    
C36   N8    S    
C24   C30   A    
C46   Cl6   S    
C5    C26   S    
C30   H2    S    
Cu3   O5    S    
C23   C61   S    
C16   C18   A    
C8    C27   S    
H15   N8    S    
C45   H1    S    
C51   C53   A    
C33   H5    S    
C12   O9    A    
C28   O4    A    
