data_mof_unit_138.cif
_audit_creation_date              2012-12-11T14:20:59-0500
_audit_creation_method            fapswitch 2.2
_symmetry_space_group_name_H-M    P1
_symmetry_Int_Tables_number       1
_space_group_crystal_system       triclinic
_cell_length_a                    11.579799
_cell_length_b                    11.441659
_cell_length_c                    19.596497
_cell_angle_alpha                 89.963961
_cell_angle_beta                  89.722217
_cell_angle_gamma                 60.047882
_cell_volume                      2249.58499544

loop_
_atom_site_label
_atom_site_type_symbol
_atom_type_description
_atom_site_fract_x
_atom_site_fract_y
_atom_site_fract_z
_atom_type_partial_charge
C1    C     C_R   0.639974 0.117361 0.599418 0.545712
C2    C     C_1   0.652374 0.149787 0.668735 0.002718
C3    C     C_R   0.641899 0.677626 0.192756 -0.009854
C4    C     C_R   0.613104 0.743700 0.598050 0.544877
C5    C     C_R   0.556023 0.651087 0.234893 0.036186
C6    C     C_R   0.585203 0.627690 0.304296 0.020467
C7    C     C_R   0.720512 0.734945 0.293016 -0.145174
C8    C     C_R   0.716540 0.728080 0.222442 -0.191001
C9    C     C_R   0.443012 0.646082 0.210910 -0.070965
C10   C     C_R   0.380790 0.593409 0.251432 -0.099955
C11   C     C_R   0.426335 0.549306 0.317101 -0.113992
C12   C     C_1   0.649958 0.683927 0.664352 0.000678
C13   C     C_R   0.528997 0.564650 0.343384 -0.085784
C14   C     C_R   0.656189 0.683428 0.334350 0.004252
C15   C     C_R   0.082764 0.235003 0.203234 -0.008672
C16   C     C_R   0.240564 0.145190 0.598263 0.556984
C17   C     C_R   0.084322 0.336928 0.243470 0.006848
C18   C     C_R   0.167215 0.300566 0.300770 0.034896
C19   C     C_R   0.213543 0.066951 0.287677 -0.171449
C20   C     C_R   0.147949 0.101089 0.225812 -0.148957
C21   C     C_R   0.011093 0.474280 0.225047 -0.093637
C22   C     C_R   0.032462 0.571411 0.254827 -0.125851
C23   C     C_1   0.126616 0.199177 0.859205 0.000705
C24   C     C_R   0.122552 0.535763 0.306666 -0.133057
C25   C     C_R   0.190760 0.403193 0.328657 -0.078318
C26   C     C_R   0.222738 0.164179 0.326356 -0.003373
C27   C     C_R   0.689848 0.170629 0.195777 0.003259
C28   C     C_R   0.645720 0.115627 0.403693 0.527758
C29   C     C_R   0.801487 0.075505 0.235879 -0.010004
C30   C     C_R   0.793651 0.089858 0.306987 0.010836
C31   C     C_R   0.553806 0.232497 0.295926 -0.137731
C32   C     C_R   0.564769 0.241697 0.225854 0.243686
C33   C     C_R   0.918585 0.963304 0.208818 -0.092310
C34   C     C_1   0.171443 0.169744 0.727776 -0.030682
C35   C     C_R   0.030764 0.889217 0.249167 -0.151985
C36   C     C_R   0.029068 0.922930 0.317296 -0.116627
C37   C     C_R   0.911206 0.023135 0.346336 -0.063670
C38   C     C_R   0.666733 0.158279 0.336964 -0.050762
C39   C     C_R   0.082021 0.231036 0.928493 0.540161
C40   C     C_R   0.618691 0.737300 0.402952 0.528250
C41   C     C_R   0.708595 0.547460 0.922804 0.557562
C42   C     C_R   0.708876 0.206728 0.929908 0.533021
C43   C     C_R   0.030364 0.265730 0.133672 0.535259
C44   C     C_R   0.678251 0.616025 0.124668 0.533672
C45   C     C_1   0.149997 0.182413 0.798937 -0.030503
C46   C     C_R   0.711004 0.207718 0.127129 0.557293
C47   C     C_R   0.287621 0.124009 0.393098 0.544009
C48   C     C_1   0.698476 0.582721 0.852047 -0.000513
C49   C     C_1   0.671496 0.645742 0.722614 -0.029787
C50   C     C_1   0.688353 0.610278 0.792245 -0.031760
C51   C     C_3   0.395178 0.234510 0.170133 0.002598
C52   C     C_3   0.466561 0.138865 0.109879 -0.272871
C53   C     C_3   0.393384 0.065819 0.087093 -0.459483
C54   C     C_1   0.195206 0.160098 0.667490 0.001115
C55   C     C_1   0.679371 0.191423 0.860568 0.000923
C56   C     C_1   0.658391 0.167335 0.729004 -0.030383
C57   C     C_1   0.666206 0.181065 0.800239 -0.030986
Cr1   Cr    Cr6+3 0.404720 0.198220 0.499960 1.009308
Cr2   Cr    Cr6+3 0.698290 0.897110 0.500380 1.024982
Cr3   Cr    Cr6+3 0.396970 0.904720 0.499610 1.023245
Cr4   Cr    Cr6+3 0.926180 0.151990 0.028120 1.005413
Cr5   Cr    Cr6+3 0.921330 0.451820 0.027470 1.008522
Cr6   Cr    Cr6+3 0.626260 0.446870 0.028710 1.034599
H1    H     H_    0.771200 0.783769 0.315097 0.158496
H2    H     H_    0.399040 0.685901 0.161706 0.135489
H3    H     H_    0.772950 0.759680 0.190881 0.111104
H4    H     H_    0.298541 0.585049 0.231271 0.141276
H5    H     H_    0.379623 0.507501 0.348828 0.095366
H6    H     H_    0.559729 0.533596 0.395526 0.125012
H7    H     H_    0.261136 0.962917 0.304407 0.137429
H8    H     H_    0.937520 0.507848 0.186810 0.170843
H9    H     H_    0.151263 0.021368 0.194757 0.147257
H10   H     H_    0.290576 0.304213 0.155123 0.192893
H11   H     H_    0.391861 0.176003 0.214853 0.123126
H12   H     H_    0.980460 0.674324 0.237099 0.112149
H13   H     H_    0.473576 0.197125 0.066225 0.185412
H14   H     H_    0.568762 0.061180 0.125056 0.144753
H15   H     H_    0.381898 0.009794 0.130466 0.150143
H16   H     H_    0.451408 0.992616 0.046065 0.154230
H17   H     H_    0.293894 0.138965 0.066650 0.193976
H18   H     H_    0.140395 0.611173 0.329777 0.105008
H19   H     H_    0.264093 0.388217 0.365984 0.140851
H20   H     H_    0.455843 0.277548 0.317459 0.127552
H21   H     H_    0.924008 0.925713 0.157700 0.141080
H22   H     H_    0.119523 0.806739 0.226962 0.095309
H23   H     H_    0.117353 0.867880 0.348226 0.115197
H24   H     H_    0.910810 0.044412 0.400196 0.131750
O1    O     O_R   0.267740 0.231960 0.575440 -0.500177
O2    O     O_R   0.596130 0.579390 0.952730 -0.502895
O3    O     O_R   0.639060 0.321160 0.958670 -0.511684
O4    O     O_R   0.527280 0.186640 0.570530 -0.495073
O5    O     O_R   0.821240 0.124200 0.104370 -0.554069
O6    O     O_R   0.036890 0.167040 0.097840 -0.504570
O7    O     O_R   0.056180 0.349610 0.102880 -0.541228
O8    O     O_R   0.797660 0.564870 0.097950 -0.526174
O9    O     O_R   0.595880 0.584250 0.104270 -0.517386
O10   O     O_R   0.638830 0.325670 0.099150 -0.448006
O11   O     O_3   0.824590 0.350230 0.028100 -0.283015
O12   O     O_R   0.685970 0.784660 0.430010 -0.502566
O13   O     O_R   0.728090 0.003450 0.576380 -0.504508
O14   O     O_R   0.682970 0.789190 0.570490 -0.490042
O15   O     O_R   0.499290 0.771880 0.575530 -0.507098
O16   O     O_R   0.285330 0.030870 0.569730 -0.488049
O17   O     O_R   0.270980 0.227080 0.423890 -0.535014
O18   O     O_R   0.530280 0.182120 0.430050 -0.528052
O19   O     O_R   0.731330 0.998570 0.424830 -0.516968
O20   O     O_3   0.452660 0.315179 0.186211 -0.566951
O21   O     O_R   0.502530 0.767000 0.423990 -0.527620
O22   O     O_R   0.288330 0.026350 0.429250 -0.491357
O23   O     O_3   0.499990 0.000020 0.499980 -0.260019
O24   O     O_R   0.821500 0.119340 0.952830 -0.504974
O25   O     O_R   0.037130 0.162530 0.957360 -0.491648
O26   O     O_R   0.056440 0.344740 0.951340 -0.507707
O27   O     O_R   0.797900 0.560360 0.957470 -0.488547

loop_
_geom_bond_atom_site_label_1
_geom_bond_atom_site_label_2
_ccdc_geom_bond_type
C41   O2    A    
C8    H3    S    
C23   C45   T    
C27   C29   A    
Cr2   O12   S    
C19   C20   A    
C18   C26   A    
C51   H11   S    
C41   O27   A    
C24   H18   S    
C43   O7    A    
C40   O12   A    
C12   C49   T    
C7    C8    A    
C10   H4    S    
C11   H5    S    
C21   H8    S    
C36   C37   A    
C53   H16   S    
Cr5   O27   S    
Cr6   O11   S    
C5    C6    A    
Cr4   O6    S    
C46   O5    A    
C29   C33   A    
C11   C13   A    
Cr2   O23   S    
C31   H20   S    
C56   C57   S    
C30   C38   A    
C1    C2    S    
C19   C26   A    
Cr3   O22   S    
C43   O6    A    
Cr5   O11   S    
C7    C14   A    
C35   C36   A    
C28   O19   A    
C39   O26   A    
C32   O20   S    
C4    O15   A    
C4    C12   S    
Cr3   O16   S    
Cr1   O4    S    
Cr3   O21   S    
Cr4   O5    S    
C40   O21   A    
C48   C50   T    
C1    O4    A    
C21   C22   A    
Cr2   O13   S    
C18   C25   A    
C22   H12   S    
Cr3   O15   S    
C1    O13   A    
C16   C54   S    
C15   C20   A    
C3    C44   S    
Cr2   O19   S    
C51   C52   S    
Cr2   O14   S    
C53   H17   S    
C24   C25   A    
Cr5   O26   S    
C3    C8    A    
C36   H23   S    
C47   O22   A    
Cr6   O9    S    
C17   C21   A    
C30   C37   A    
C42   O3    A    
C42   O24   A    
C5    C9    A    
C29   C30   A    
C44   O9    A    
C42   C55   S    
C6    C14   A    
C16   O16   A    
C31   C32   A    
C28   C38   S    
C28   O18   A    
C4    O14   A    
Cr6   O2    S    
C17   C18   A    
C34   C45   S    
C26   C47   S    
C27   C46   S    
C39   O25   A    
C46   O10   A    
C34   C54   T    
Cr5   O7    S    
C25   H19   S    
C22   C24   A    
Cr1   O17   S    
C52   H14   S    
Cr4   O24   S    
C3    C5    A    
C52   C53   S    
C9    C10   A    
C15   C17   A    
C47   O17   A    
C27   C32   A    
Cr1   O23   S    
C37   H24   S    
C51   H10   S    
C52   H13   S    
Cr1   O1    S    
C31   C38   A    
Cr1   O18   S    
C55   C57   T    
C53   H15   S    
C15   C43   S    
Cr6   O10   S    
C44   O8    A    
C2    C56   T    
C6    C13   A    
C35   H22   S    
Cr4   O11   S    
C13   H6    S    
C23   C39   S    
Cr6   O3    S    
C33   C35   A    
C41   C48   S    
C33   H21   S    
C9    H2    S    
C7    H1    S    
Cr3   O23   S    
C10   C11   A    
C14   C40   S    
C51   O20   S    
C49   C50   S    
C16   O1    A    
C20   H9    S    
C19   H7    S    
Cr5   O8    S    
Cr4   O25   S    
