data_mof_unit_113.cif
_audit_creation_date              2012-12-11T19:58:19-0500
_audit_creation_method            fapswitch 2.2
_symmetry_space_group_name_H-M    P1
_symmetry_Int_Tables_number       1
_space_group_crystal_system       triclinic
_cell_length_a                    8.241964
_cell_length_b                    16.307224
_cell_length_c                    22.79097
_cell_angle_alpha                 107.814653
_cell_angle_beta                  89.042562
_cell_angle_gamma                 83.621849
_cell_volume                      2894.09682287

loop_
_atom_site_label
_atom_site_type_symbol
_atom_type_description
_atom_site_fract_x
_atom_site_fract_y
_atom_site_fract_z
_atom_type_partial_charge
Ba1   Ba    Ba6+2 0.335320 0.541410 0.478120 1.660849
Ba2   Ba    Ba6+2 0.854470 0.458670 0.521900 1.683564
C1    C     C_3   0.015389 0.858684 0.369836 -0.357879
C2    C     C_3   0.028144 0.769217 0.378170 0.348945
C3    C     C_3   0.052758 0.340177 0.324915 0.248548
C4    C     C_3   0.065984 0.323903 0.255372 -0.317738
C5    C     C_3   0.728481 0.272263 0.653282 0.350961
C6    C     C_3   0.696079 0.255361 0.714186 -0.325859
C7    C     C_3   0.261992 0.256215 0.635808 0.359889
C8    C     C_3   0.316386 0.169951 0.647470 0.334613
C9    C     C_R   0.832619 0.523231 0.335509 -0.297679
C10   C     C_R   0.574269 0.578057 0.950239 -0.037050
C11   C     C_R   0.525834 0.574901 0.890201 0.598859
C12   C     C_3   0.515024 0.725381 0.343722 0.307368
C13   C     C_R   0.477451 0.426590 0.869308 0.585165
C14   C     C_R   0.525476 0.427810 0.929012 -0.023415
C15   C     C_R   0.573956 0.504237 0.969809 -0.045057
C16   C     C_R   0.625213 0.653391 0.990691 -0.091292
C17   C     C_R   0.676687 0.656581 0.049720 -0.029396
C18   C     C_R   0.670272 0.583362 0.071387 -0.066628
C19   C     C_R   0.621744 0.506722 0.030293 -0.047878
C20   C     C_R   0.526825 0.354011 0.948727 -0.065027
C21   C     C_R   0.574646 0.355951 0.007618 -0.065753
C22   C     C_R   0.621620 0.431970 0.049185 -0.027030
C23   C     C_3   0.479406 0.748783 0.285201 -0.287211
C24   C     C_R   0.669573 0.434127 0.108929 0.603949
C25   C     C_R   0.705462 0.584502 0.132835 0.588792
C26   C     C_2   0.280794 0.476411 0.768652 -0.074161
C27   C     C_3   0.227381 0.483698 0.706601 -0.062365
C28   C     C_1   0.497134 0.519123 0.688480 0.044207
C29   C     C_2   0.542212 0.521869 0.744889 -0.096385
C30   C     C_2   0.430026 0.497704 0.788264 0.205772
C31   C     C_R   0.890748 0.549682 0.238739 -0.095808
C32   C     C_R   0.929724 0.555801 0.299440 -0.019638
C33   C     C_R   0.701009 0.479937 0.311070 0.000032
C34   C     C_3   0.611327 0.725756 0.628966 0.281727
C35   C     C_R   0.656091 0.477090 0.250763 -0.070041
C36   C     C_R   0.750416 0.512496 0.213676 0.208761
C37   C     C_2   0.373547 0.478281 0.664460 -0.274012
C38   C     C_2   0.427929 0.238241 0.467486 -0.268877
C39   C     C_R   0.802312 0.749030 0.510023 -0.304357
C40   C     C_2   0.257592 0.124251 0.418435 -0.074770
C41   C     C_2   0.277585 0.208749 0.437392 0.027843
C42   C     C_2   0.534836 0.183959 0.485812 -0.009087
C43   C     C_3   0.486045 0.096008 0.482747 0.018104
C44   C     C_3   0.390250 0.057722 0.425753 0.023571
C45   C     C_3   0.581390 0.823820 0.657977 -0.335582
C46   C     C_2   0.621631 0.031333 0.489447 -0.087214
C47   C     C_2   0.583663 0.963139 0.505280 -0.036854
C48   C     C_R   0.848968 0.923847 0.545253 0.081679
C49   C     C_R   0.708757 0.897370 0.514581 -0.070059
C50   C     C_R   0.961841 0.864011 0.560023 -0.130874
C51   C     C_R   0.936935 0.776705 0.543389 0.045790
C52   C     C_R   0.684150 0.809241 0.497821 -0.001885
C53   C     C_3   0.519881 0.271786 0.291783 0.267457
C54   C     C_3   0.515268 0.178393 0.291661 -0.347416
C55   C     C_3   0.143880 0.666030 0.673090 0.300660
C56   C     C_3   0.166869 0.703113 0.741947 -0.351146
H1    H     H_    0.091187 0.772465 0.421419 0.073974
H2    H     H_    0.659063 0.844475 0.697966 0.134597
H3    H     H_    0.611353 0.856693 0.624007 0.077387
H4    H     H_    0.450761 0.844023 0.673885 0.148321
H5    H     H_    0.393730 0.304559 0.301773 0.033840
H6    H     H_    0.637399 0.139951 0.277397 0.116709
H7    H     H_    0.423747 0.147236 0.259679 0.119575
H8    H     H_    0.481445 0.177287 0.338465 0.090005
H9    H     H_    0.265893 0.646608 0.648706 0.020681
H10   H     H_    0.075820 0.608824 0.664456 0.029350
H11   H     H_    0.139083 0.878915 0.367772 0.137809
H12   H     H_    0.226170 0.763425 0.751198 0.149209
H13   H     H_    0.245775 0.656298 0.758590 0.073906
H14   H     H_    0.046424 0.718294 0.767930 0.127311
H15   H     H_    0.902170 0.752510 0.382258 -0.052584
H16   H     H_    0.942471 0.906642 0.409400 0.058986
H17   H     H_    0.922496 0.350400 0.340440 0.059214
H18   H     H_    0.111643 0.399107 0.347715 0.047216
H19   H     H_    0.038217 0.257422 0.230489 0.191623
H20   H     H_    0.979349 0.371207 0.242161 0.100418
H21   H     H_    0.190698 0.331124 0.240450 0.122157
H22   H     H_    0.954398 0.857710 0.326584 0.136401
H23   H     H_    0.489105 0.688725 0.245305 0.121520
H24   H     H_    0.860358 0.274753 0.646701 0.147536
H25   H     H_    0.657487 0.335610 0.656490 0.023167
H26   H     H_    0.749307 0.303820 0.752035 0.114540
H27   H     H_    0.562551 0.261451 0.724303 0.122223
H28   H     H_    0.750344 0.189251 0.712320 0.181949
H29   H     H_    0.368663 0.293581 0.642018 -0.159654
H30   H     H_    0.224722 0.243247 0.587466 0.054605
H31   H     H_    0.437165 0.142088 0.623607 0.020939
H32   H     H_    0.451522 0.668473 0.342458 0.105041
H33   H     H_    0.328268 0.180533 0.697633 0.055981
H34   H     H_    0.573539 0.297478 0.020687 0.124912
H35   H     H_    0.490958 0.294150 0.918549 0.130295
H36   H     H_    0.969575 0.574067 0.211168 0.126430
H37   H     H_    0.630064 0.710007 0.975526 0.148488
H38   H     H_    0.659963 0.541601 0.759960 0.124378
H39   H     H_    0.193868 0.461805 0.799232 0.104935
H40   H     H_    0.548739 0.447452 0.232855 0.113865
H41   H     H_    0.865080 0.527637 0.382084 0.078143
H42   H     H_    0.649006 0.707897 0.344607 -0.035558
H43   H     H_    0.378645 0.440285 0.615975 0.071961
H44   H     H_    0.151635 0.102528 0.393276 0.072255
H45   H     H_    0.065294 0.886142 0.586165 0.167874
H46   H     H_    0.449159 0.305221 0.475502 0.086783
H47   H     H_    0.783575 0.681337 0.497525 0.074585
H48   H     H_    0.748094 0.038314 0.479989 0.095166
H49   H     H_    0.455751 0.955592 0.511048 0.154049
H50   H     H_    0.353459 0.782467 0.288396 0.148851
H51   H     H_    0.567466 0.791977 0.277803 0.131511
H52   H     H_    0.741791 0.706336 0.614330 0.011125
H53   H     H_    0.534946 0.707102 0.588450 0.067699
N1    N     N_R   0.478591 0.499593 0.850175 -0.426745
N2    N     N_R   0.706391 0.510364 0.151008 -0.426206
O1    O     O_2   0.414630 0.451750 0.353890 -0.491860
O2    O     O_3   0.053813 0.730136 0.654057 -0.625320
O3    O     O_3   0.456827 0.796380 0.395062 -0.608895
O4    O     O_2   0.775060 0.548280 0.646150 -0.466345
O5    O     O_3   0.534950 0.547420 0.574950 -0.498515
O6    O     O_3   0.073530 0.388570 0.588510 -0.471651
O7    O     O_3   0.570904 0.687278 0.673307 -0.626417
O8    O     O_3   0.168220 0.394330 0.455930 -0.478108
O9    O     O_3   0.678190 0.343400 0.553390 -0.493506
O10   O     O_2   0.871907 0.192698 0.508178 -0.437951
O11   O     O_3   0.681235 0.204694 0.604527 -0.620280
O12   O     O_3   0.654720 0.452660 0.425060 -0.457584
O13   O     O_3   0.021450 0.605740 0.544090 -0.488951
O14   O     O_2   0.953100 0.285520 0.441860 -0.439568
O15   O     O_3   0.128992 0.267074 0.337780 -0.645738
O16   O     O_2   0.909606 0.435184 0.696685 -0.514410
O17   O     O_3   0.132664 0.302782 0.678059 -0.594812
O18   O     O_2   0.523944 0.639746 0.873888 -0.585532
O19   O     O_2   0.435695 0.360191 0.834240 -0.602737
O20   O     O_2   0.680892 0.367431 0.123085 -0.575813
O21   O     O_2   0.731411 0.652212 0.170736 -0.589507
O22   O     O_3   0.116150 0.611500 0.411510 -0.489281
O23   O     O_2   0.268852 0.550567 0.299676 -0.502062
O24   O     O_3   0.623496 0.311372 0.338030 -0.627139
O25   O     O_3   0.118174 0.708537 0.327382 -0.595326
O26   O     O_2   0.236590 0.714510 0.558180 -0.464862
O27   O     O_3   0.511480 0.656670 0.446630 -0.499503
O28   O     O_2   0.346016 0.811021 0.505928 -0.471275
P1    P     P_3+3 0.594550 0.425840 0.359090 0.999462
P2    P     P_3+3 0.065650 0.701630 0.573510 0.995813
P3    P     P_3+3 0.498304 0.768940 0.462190 0.943145
P4    P     P_3+3 0.595130 0.574230 0.640920 0.990757
P5    P     P_3+3 0.696514 0.230754 0.535671 0.989969
P6    P     P_3+3 0.109555 0.604734 0.333555 0.948812
P7    P     P_3+3 0.132450 0.287665 0.417679 0.974699
P8    P     P_3+3 0.085743 0.404927 0.667828 0.960720
C57   C     C_2   0.579259 0.268994 0.228360 0.817010
O29   O     O_2   0.721017 0.278054 0.218245 -0.601724
O30   O     O_R   0.472669 0.250841 0.180238 -0.770447
H54   H     H_    0.527431 0.245214 0.138840 0.353192
S1    S     S_3+6 0.179847 0.091071 0.618844 -0.093576
O31   O     O_2   0.259887 0.005146 0.621874 -0.331967
O32   O     O_2   0.023220 0.115860 0.657954 -0.281036
O33   O     O_3   0.140464 0.083439 0.545343 -0.540175
H55   H     H_    0.107376 0.024717 0.527256 0.349251
C58   C     C_2   0.743883 0.736803 0.084946 0.938561
O34   O     O_2   0.879586 0.732523 0.105524 -0.564689
O35   O     O_R   0.655335 0.817622 0.091489 -0.745159
H56   H     H_    0.714566 0.867659 0.115512 0.319902

loop_
_geom_bond_atom_site_label_1
_geom_bond_atom_site_label_2
_ccdc_geom_bond_type
C26   H39   S    
O6    P8    S    
C5    H25   S    
C53   C54   S    
C50   H45   S    
O33   H55   S    
C52   P3    S    
C17   C18   A    
C9    C32   A    
C5    O11   S    
O24   P1    S    
C31   H36   S    
C8    S1    S    
C45   H4    S    
O35   H56   S    
Ba2   O5    S    
C5    C6    S    
C55   O2    S    
C43   C44   S    
C42   C43   S    
Ba2   P4    S    
C29   H38   S    
C39   H47   S    
C53   C57   S    
O1    P1    D    
C9    H41   S    
C26   C27   S    
C1    H11   S    
C22   C24   A    
C16   C17   A    
C11   N1    Am   
C7    H30   S    
C28   C29   D    
C54   H8    S    
C56   H13   S    
C4    H20   S    
C13   C14   A    
O13   P2    S    
C3    O15   S    
C34   C45   S    
O4    P4    D    
C6    H27   S    
C40   C44   S    
C1    H16   S    
C12   H32   S    
C41   P7    S    
C45   H2    S    
O3    P3    S    
O26   P2    D    
C38   C41   S    
C46   H48   S    
C13   O19   D    
C58   O34   D    
C8    H31   S    
C14   C15   A    
C47   C49   S    
C53   H5    S    
C10   C15   A    
C42   P5    S    
C21   C22   A    
C54   H6    S    
Ba1   P1    S    
C7    C8    S    
O12   P1    S    
S1    O32   D    
Ba1   O26   S    
C23   H51   S    
O14   P7    D    
Ba2   O14   S    
O7    P4    S    
C23   H23   S    
C16   H37   S    
C55   H9    S    
C1    H22   S    
C40   H44   S    
C20   C21   A    
C35   H40   S    
Ba2   O4    S    
C37   H43   S    
Ba2   O9    S    
O2    P2    S    
C26   C30   D    
Ba1   O13   S    
S1    O33   S    
C47   H49   S    
O28   P3    D    
C36   N2    S    
O15   P7    S    
C4    H19   S    
C2    O25   S    
C48   C49   A    
C7    O17   S    
O11   P5    S    
C15   C19   A    
C51   P2    S    
C3    H17   S    
O17   P8    S    
O16   P8    D    
C35   C36   A    
Ba1   P2    S    
C4    H21   S    
C38   H46   S    
C32   P6    S    
C48   C50   A    
C29   C30   S    
O10   P5    D    
O25   P6    S    
C27   C37   S    
C34   H53   S    
C58   O35   S    
C31   C32   A    
C11   O18   D    
O8    P7    S    
C18   C19   A    
C39   C51   A    
C2    H15   S    
Ba1   O27   S    
Ba2   O13   S    
C46   C47   D    
C8    H33   S    
O22   P6    S    
C34   H52   S    
C20   H35   S    
C57   O30   S    
Ba2   O8    S    
C40   C41   D    
C55   H10   S    
C1    C2    S    
C25   N2    Am   
C50   C51   A    
C28   P4    S    
C43   C46   S    
C14   C20   A    
C30   N1    S    
C33   C35   A    
C6    H26   S    
C25   O21   D    
C13   N1    Am   
O5    P4    S    
C56   H12   S    
O27   P3    S    
Ba1   O12   S    
C45   H3    S    
Ba2   O6    S    
C12   H42   S    
C18   C25   A    
C31   C36   A    
C53   O24   S    
C49   C52   A    
C17   C58   S    
C3    H18   S    
C9    C33   A    
C24   N2    Am   
C24   O20   D    
C7    H29   S    
C56   H14   S    
C55   C56   S    
C3    C4    S    
C12   O3    S    
Ba1   Ba2   S    
C2    H1    S    
C28   C37   D    
C6    H28   S    
Ba1   O5    S    
O9    P5    S    
C12   C23   S    
C34   O7    S    
Ba1   O8    S    
C39   C52   A    
O23   P6    D    
C33   P1    S    
C27   P8    S    
Ba2   O12   S    
S1    O31   D    
C38   C42   D    
C5    H24   S    
C10   C11   A    
Ba1   O1    S    
C19   C22   A    
C10   C16   A    
C21   H34   S    
O30   H54   S    
Ba1   O22   S    
C54   H7    S    
C23   H50   S    
C57   O29   D    
