data_mof_unit_2776.cif
_audit_creation_date              2013-03-05T16:18:22-0500
_audit_creation_method            fapswitch 2.2
_symmetry_space_group_name_H-M    P1
_symmetry_Int_Tables_number       1
_space_group_crystal_system       triclinic
_cell_length_a                    11.154964
_cell_length_b                    10.08646
_cell_length_c                    10.662711
_cell_angle_alpha                 88.969842
_cell_angle_beta                  94.897096
_cell_angle_gamma                 90.971087
_cell_volume                      1194.98968064

loop_
_atom_site_label
_atom_site_type_symbol
_atom_site_description
_atom_site_fract_x
_atom_site_fract_y
_atom_site_fract_z
_atom_type_partial_charge
O1    O     O_R   0.314910 0.616040 0.499970 -0.604792
O2    O     O_R   0.314910 0.383960 0.499970 -0.635253
C1    C     C_R   0.259377 0.499062 0.505697 0.849890
O3    O     O_R   0.500080 0.616020 0.313900 -0.531080
O4    O     O_R   0.500080 0.383980 0.313900 -0.571049
C2    C     C_R   0.484127 0.500928 0.257699 1.013053
Zn1   Zn    Zn3+2 0.500150 0.654960 0.499940 1.088361
Zn2   Zn    Zn3+2 0.500150 0.345040 0.499940 1.051679
O5    O     O_R   0.685320 0.616040 0.499930 -0.521176
O6    O     O_R   0.685320 0.383960 0.499930 -0.611449
O7    O     O_R   0.500150 0.616060 0.686000 -0.618825
O8    O     O_R   0.500150 0.383940 0.686000 -0.605854
C3    C     C_R   0.742220 0.500380 0.507136 0.875790
C4    C     C_R   0.504304 0.498162 0.741564 0.929917
C5    C     C_3   0.454442 0.619584 0.023983 0.297381
C6    C     C_3   0.394332 0.412814 0.023132 0.349158
C7    C     C_3   0.381517 0.530443 0.928314 -0.335125
H1    H     H_    0.298369 0.558749 0.869667 0.185767
C8    C     C_3   0.499952 0.492109 0.875921 -0.170363
C9    C     C_3   0.571348 0.581377 0.970005 -0.094882
C10   C     C_3   0.509593 0.372444 0.967073 -0.084076
C11   C     C_3   0.582351 0.462029 0.062506 -0.319519
C12   C     C_3   0.465423 0.502942 0.119288 -0.154483
H2    H     H_    0.664643 0.430529 0.116685 0.224364
C13   C     C_3   0.079438 0.630716 0.564821 -0.291210
C14   C     C_3   0.077017 0.387592 0.603388 -0.358179
H3    H     H_    0.128062 0.636291 0.660581 0.097751
H4    H     H_    0.091957 0.431059 0.698906 0.126529
C15   C     C_3   0.943212 0.618984 0.586326 0.087797
C16   C     C_3   0.935681 0.372025 0.583283 0.125198
H5    H     H_    0.940674 0.587624 0.686922 0.148635
H6    H     H_    0.903072 0.379756 0.679010 0.154638
C17   C     C_3   0.059640 0.475347 0.366203 -0.283898
C18   C     C_3   0.122738 0.497844 0.506349 -0.146905
C19   C     C_3   0.879434 0.498918 0.506112 -0.247315
C20   C     C_3   0.917124 0.502270 0.363885 -0.253014
C21   C     C_3   0.377589 0.072733 0.458502 0.120964
C22   C     C_3   0.385387 0.917296 0.438729 0.118230
H7    H     H_    0.321975 0.082018 0.539785 0.092508
H8    H     H_    0.313878 0.874652 0.492297 0.096728
C23   C     C_3   0.594842 0.084268 0.421944 0.112772
C24   C     C_3   0.604277 0.928106 0.435937 0.130050
C25   C     C_3   0.527816 0.080201 0.628159 -0.333665
C26   C     C_3   0.508407 0.919903 0.629172 -0.323183
N1    N     N_3   0.499750 0.138610 0.497240 -0.173296
N2    N     N_3   0.499750 0.861390 0.497240 -0.180000
H9    H     H_    0.463269 0.121189 0.690643 0.213719
H10   H     H_    0.422071 0.899120 0.672039 0.151912
H11   H     H_    0.682051 0.123839 0.463763 0.170620
H12   H     H_    0.684260 0.914101 0.502890 0.182353
C27   C     C_2   0.876311 0.633134 0.300695 0.501074
H13   H     H_    0.933779 0.718847 0.298028 0.188995
O9    O     O_2   0.774038 0.645145 0.250956 -0.559478
C28   C     C_2   0.846145 0.402984 0.279245 0.542025
H14   H     H_    0.766092 0.356244 0.308436 0.137341
O10   O     O_2   0.869872 0.387590 0.170608 -0.497165
N3    N     N_R   0.298879 0.133906 0.358071 0.253666
O11   O     O_R   0.194906 0.076871 0.328058 -0.280125
O12   O     O_R   0.321754 0.246858 0.306201 -0.284140
N4    N     N_R   0.355118 0.871534 0.309537 0.294576
O13   O     O_R   0.312144 0.753030 0.293704 -0.285075
O14   O     O_R   0.349044 0.950018 0.211562 -0.147677
N5    N     N_R   0.592405 0.133349 0.290694 0.240923
O15   O     O_R   0.495247 0.134460 0.215844 -0.243874
O16   O     O_R   0.693473 0.149100 0.239563 -0.337537
N6    N     N_R   0.639508 0.869703 0.319624 0.279146
O17   O     O_R   0.560580 0.838380 0.229317 -0.283878
O18   O     O_R   0.746729 0.898617 0.287127 -0.246991
C29   C     C_2   0.651079 0.123349 0.688909 0.450366
H15   H     H_    0.719839 0.051963 0.715907 0.146471
O19   O     O_2   0.677092 0.239013 0.708440 -0.537427
C30   C     C_2   0.597294 0.853955 0.722644 0.476441
H16   H     H_    0.597598 0.879101 0.820698 0.087521
O20   O     O_2   0.672395 0.778954 0.690603 -0.487550
N7    N     N_R   0.405683 0.751390 0.033994 0.278920
O21   O     O_R   0.465408 0.853509 0.994853 -0.331649
O22   O     O_R   0.290036 0.761613 0.038772 -0.265567
N8    N     N_R   0.287931 0.330143 0.039899 0.272554
O23   O     O_R   0.297627 0.202447 0.053119 -0.172523
O24   O     O_R   0.182247 0.378154 0.006556 -0.320186
C31   C     C_2   0.682329 0.663035 0.954923 0.586899
H17   H     H_    0.692519 0.760200 0.996679 0.130011
O25   O     O_2   0.764826 0.617452 0.901988 -0.512753
C32   C     C_2   0.554864 0.236648 0.946037 0.619856
H18   H     H_    0.650976 0.220906 0.948920 0.117162
O26   O     O_2   0.485378 0.143311 0.926820 -0.507432
C33   C     C_2   0.114230 0.764367 0.511346 0.595659
H19   H     H_    0.135117 0.844903 0.576349 0.108881
O27   O     O_2   0.111689 0.788412 0.399243 -0.538205
C34   C     C_2   0.152036 0.264031 0.634677 0.520595
H20   H     H_    0.237832 0.275190 0.690243 0.074965
O28   O     O_2   0.119618 0.152577 0.603241 -0.494212
N9    N     N_R   0.887503 0.749760 0.585622 0.246805
O29   O     O_R   0.901114 0.816106 0.689751 -0.306003
O30   O     O_R   0.871279 0.818208 0.482230 -0.339682
N10   N     N_R   0.895082 0.237557 0.545289 0.242609
O31   O     O_R   0.893227 0.196564 0.430684 -0.370107
O32   O     O_R   0.892833 0.147151 0.633457 -0.303623
C35   C     C_2   0.120092 0.555558 0.264644 0.656178
H21   H     H_    0.076095 0.633476 0.208496 0.112152
O33   O     O_2   0.220202 0.526428 0.237296 -0.532279
C36   C     C_2   0.081635 0.332019 0.331365 0.695543
H22   H     H_    0.096081 0.257896 0.402443 0.153760
O34   O     O_2   0.080518 0.296517 0.222183 -0.373134

loop_
_geom_bond_atom_site_label_1
_geom_bond_atom_site_label_2
_geom_bond_distance
_ccdc_geom_bond_type
N6    O18   1.300371 A    
C33   H19   1.086654 S    
N5    O16   1.299735 A    
C6    C10   1.527720 S    
C23   C24   1.583925 S    
C5    N7    1.454031 S    
C8    C9    1.524194 S    
C25   C26   1.627601 S    
C31   H17   1.083940 S    
C34   H20   1.087009 S    
Zn1   O7    2.015400 S    
N9    O29   1.303124 A    
C16   C19   1.615586 S    
C8    C10   1.535382 S    
C32   O26   1.218273 D    
C3    C19   1.531909 S    
O1    C1    1.326169 A    
O4    C2    1.321247 A    
O7    C4    1.318764 A    
N8    O24   1.300890 A    
N3    O12   1.288630 A    
C13   C33   1.511765 S    
C17   C20   1.615347 S    
N4    O14   1.297159 A    
C24   N2    1.525573 S    
C29   O19   1.214735 D    
O5    C3    1.335394 A    
Zn2   N1    2.082789 S    
C16   N10   1.475259 S    
C31   O25   1.220327 D    
C14   C18   1.611480 S    
C19   C20   1.607578 S    
C6    C7    1.545390 S    
N10   O32   1.299380 A    
C13   C18   1.587944 S    
C5    C12   1.540284 S    
N6    O17   1.288013 A    
C25   C29   1.528850 S    
C22   H8    1.097668 S    
C10   C11   1.542030 S    
C29   H15   1.078517 S    
O3    Zn1   2.029048 S    
C23   H11   1.106196 S    
C15   N9    1.467240 S    
C26   N2    1.530137 S    
C17   C18   1.614665 S    
C13   C15   1.558270 S    
C5    C9    1.527601 S    
C21   H7    1.114218 S    
C28   O10   1.223182 D    
C27   H13   1.068935 S    
Zn1   N2    2.081906 S    
C32   H18   1.084240 S    
C30   O20   1.212638 D    
N8    O23   1.298506 A    
C1    C18   1.524654 S    
C17   C36   1.528092 S    
N4    O13   1.288805 A    
C17   C35   1.535127 S    
N7    O21   1.299132 A    
C21   C22   1.590498 S    
C25   N1    1.515204 S    
C34   O28   1.219005 D    
C35   H21   1.078412 S    
C10   C32   1.495081 S    
Zn2   O8    2.029241 S    
N10   O31   1.295470 A    
C7    H1    1.111922 S    
C36   O34   1.223131 D    
N7    O22   1.301284 A    
C20   C27   1.529561 S    
C24   H12   1.103417 S    
C22   N4    1.470656 S    
O3    C2    1.318410 A    
C35   O33   1.219926 D    
C9    C11   1.542288 S    
C14   C16   1.578408 S    
C6    C12   1.541671 S    
C33   O27   1.213445 D    
C11   H2    1.090914 S    
C14   C34   1.528917 S    
C23   N5    1.474249 S    
C21   N1    1.533677 S    
C5    C7    1.541827 S    
C28   H14   1.069797 S    
O1    Zn1   2.096784 S    
C4    C8    1.437734 S    
O2    Zn2   2.109859 S    
O8    C4    1.303277 A    
C30   H16   1.079974 S    
O6    C3    1.325638 A    
O4    Zn2   2.015199 S    
C13   H3    1.116416 S    
C15   C19   1.615070 S    
C14   H4    1.114409 S    
O2    C1    1.329929 A    
C15   H5    1.115370 S    
C16   H6    1.116908 S    
N3    O11   1.303517 A    
N9    O30   1.291353 A    
C2    C12   1.472597 S    
C7    C8    1.535609 S    
C26   C30   1.499575 S    
C6    N8    1.460593 S    
C36   H22   1.059332 S    
C22   N2    1.486778 S    
C20   C28   1.525749 S    
N5    O15   1.290006 A    
Zn1   O5    2.109072 S    
Zn2   O6    2.095999 S    
C24   N6    1.468642 S    
C23   N1    1.500383 S    
C11   C12   1.549249 S    
C27   O9    1.223344 D    
C9    C31   1.493822 S    
C25   H9    1.111368 S    
C21   N3    1.460286 S    
C26   H10   1.115905 S    
