data_mof_unit_4018.cif
_audit_creation_date              2012-12-10T18:06:39-0500
_audit_creation_method            fapswitch 2.2
_symmetry_space_group_name_H-M    P1
_symmetry_Int_Tables_number       1
_space_group_crystal_system       triclinic
_cell_length_a                    12.723459
_cell_length_b                    13.045719
_cell_length_c                    15.34487
_cell_angle_alpha                 84.95487
_cell_angle_beta                  99.079026
_cell_angle_gamma                 97.525392
_cell_volume                      2487.57596452

loop_
_atom_site_label
_atom_site_type_symbol
_atom_type_description
_atom_site_fract_x
_atom_site_fract_y
_atom_site_fract_z
_atom_type_partial_charge
C1    C     C_R   0.442056 0.308547 0.506488 0.850954
C2    C     C_R   0.417106 0.436447 0.103318 0.095947
C3    C     C_R   0.311554 0.456275 0.067393 0.168259
C4    C     C_R   0.485414 0.405989 0.048691 0.074904
C5    C     C_R   0.455729 0.417287 0.956457 0.079802
C6    C     C_R   0.347569 0.429586 0.922182 -0.235557
C7    C     C_R   0.275916 0.446630 0.977558 -0.223708
C8    C     C_R   0.583340 0.367431 0.082884 -0.249711
C9    C     C_R   0.657217 0.356058 0.027801 -0.167288
C10   C     C_R   0.638868 0.389183 0.937787 0.136213
C11   C     C_R   0.536120 0.418974 0.902033 0.065462
C12   C     C_R   0.434554 0.508621 0.336248 0.852426
C13   C     C_R   0.718796 0.392920 0.881757 0.011448
C14   C     C_R   0.693775 0.424029 0.791921 -0.298735
C15   C     C_R   0.518244 0.457278 0.814109 -0.255255
C16   C     C_R   0.640256 0.939002 0.360530 -0.015791
C17   C     C_R   0.581313 0.801321 0.465838 -0.118702
C18   C     C_R   0.331119 0.157369 0.565659 -0.195301
C19   C     C_R   0.308718 0.050684 0.581406 0.169490
C20   C     C_R   0.366027 0.985150 0.544652 -0.233394
C21   C     C_R   0.443088 0.026105 0.489247 0.070915
C22   C     C_R   0.450715 0.131868 0.462242 0.091795
C23   C     C_R   0.555668 0.691682 0.488347 0.874537
C24   C     C_R   0.513055 0.965340 0.460084 0.106187
C25   C     C_R   0.573732 0.004064 0.390934 0.074423
C26   C     C_R   0.564132 0.105543 0.354390 -0.265361
C27   C     C_R   0.504937 0.168722 0.390350 -0.169116
C28   C     C_R   0.525963 0.867690 0.500808 -0.248479
C29   C     C_R   0.640649 0.836618 0.397684 -0.169192
C30   C     C_R   0.404391 0.198234 0.508512 -0.156031
C31   C     C_R   0.148078 0.608147 0.649630 -0.302308
C32   C     C_R   0.755226 0.385942 0.388887 0.003633
C33   C     C_R   0.848271 0.357402 0.366278 0.079326
C34   C     C_R   0.563210 0.484253 0.664108 0.862656
C35   C     C_R   0.947090 0.395365 0.412948 -0.212142
C36   C     C_R   0.952777 0.461853 0.481936 -0.050255
C37   C     C_R   0.855660 0.487553 0.504011 0.207020
C38   C     C_R   0.051595 0.506331 0.527959 0.002921
C39   C     C_R   0.052879 0.561597 0.603715 0.172283
C40   C     C_R   0.958957 0.578308 0.629262 -0.338752
C41   C     C_R   0.862725 0.553263 0.575691 0.101393
C42   C     C_R   0.150096 0.502541 0.500208 -0.035277
C43   C     C_R   0.241896 0.602997 0.617890 0.007782
C44   C     C_R   0.390592 0.494078 0.243638 -0.058356
C45   C     C_R   0.594251 0.457450 0.758470 -0.062331
C46   C     C_R   0.244702 0.488916 0.121312 -0.184732
C47   C     C_R   0.284060 0.507657 0.209291 -0.188723
C48   C     C_R   0.455378 0.457770 0.190768 -0.264121
H1    H     H_    0.194378 0.458159 0.949205 0.160297
H2    H     H_    0.683509 0.782837 0.371238 0.201849
H3    H     H_    0.602817 0.138951 0.299174 0.128331
H4    H     H_    0.489683 0.839271 0.558715 0.145329
H5    H     H_    0.293105 0.208222 0.599858 0.166491
H6    H     H_    0.347053 0.902753 0.558137 0.134580
H7    H     H_    0.500354 0.246498 0.360170 0.148607
H8    H     H_    0.317485 0.636967 0.652359 0.130406
H9    H     H_    0.445145 0.489811 0.788087 0.161496
H10   H     H_    0.960916 0.625265 0.684720 0.154930
H11   H     H_    0.149475 0.650103 0.707835 0.144009
H12   H     H_    0.159140 0.462325 0.443970 0.122545
H13   H     H_    0.678088 0.357378 0.353427 0.128049
H14   H     H_    0.017876 0.370165 0.395375 0.136532
H15   H     H_    0.753216 0.424431 0.748399 0.158917
H16   H     H_    0.729231 0.323544 0.057615 0.208134
H17   H     H_    0.163163 0.502434 0.094868 0.163900
H18   H     H_    0.231718 0.533507 0.249923 0.165578
H19   H     H_    0.537944 0.450828 0.217473 0.165126
H20   H     H_    0.316194 0.425156 0.852820 0.151919
H21   H     H_    0.603348 0.343345 0.152101 0.148788
N1    N     N_R   0.239390 0.551900 0.544730 -0.105029
N2    N     N_R   0.759950 0.448600 0.455730 -0.133524
O1    O     O_R   0.374950 0.371210 0.521360 -0.610738
O2    O     O_R   0.542050 0.338030 0.492790 -0.608554
O3    O     O_R   0.368720 0.526070 0.390200 -0.612515
O4    O     O_R   0.535820 0.492890 0.361630 -0.626001
O5    O     O_R   0.457950 0.661970 0.507210 -0.604607
O6    O     O_R   0.625050 0.628790 0.478640 -0.593398
O7    O     O_R   0.464180 0.507110 0.638370 -0.625133
O8    O     O_R   0.631280 0.473930 0.609800 -0.594145
Zn1   Zn    Zn3+2 0.388420 0.522150 0.519080 0.937243
Zn2   Zn    Zn3+2 0.611580 0.477850 0.480920 0.948021
C49   C     C_2   0.829965 0.368454 0.912424 0.355404
H22   H     H_    0.873192 0.337765 0.866899 0.070510
O9    O     O_2   0.877051 0.388359 0.985713 -0.580551
C50   C     C_2   0.707271 0.973258 0.289394 0.390285
H23   H     H_    0.712583 0.051392 0.259373 0.052659
O10   O     O_2   0.759409 0.913246 0.263077 -0.558687
N3    N     N_3   0.230538 0.010360 0.637501 -0.451502
H24   H     H_    0.260549 0.032802 0.701304 0.180751
H25   H     H_    0.221058 0.929320 0.641444 0.179383
N4    N     N_3   0.840946 0.290359 0.295733 -0.459438
H26   H     H_    0.804577 0.217882 0.316844 0.169802
H27   H     H_    0.917447 0.279407 0.284314 0.203300
N5    N     N_3   0.780878 0.611972 0.588018 -0.357873
H28   H     H_    0.805063 0.689713 0.569814 0.178774
H29   H     H_    0.774218 0.608407 0.655421 0.168590

loop_
_geom_bond_atom_site_label_1
_geom_bond_atom_site_label_2
_ccdc_geom_bond_type
C12   O3    A    
C9    H16   S    
C17   C29   A    
C35   C36   A    
C23   O5    A    
C4    C8    A    
C50   H23   S    
C26   C27   A    
C17   C23   S    
C31   C43   A    
C36   C37   A    
C32   H13   S    
C38   C42   A    
C3    C7    A    
C33   N4    S    
C5    C6    A    
O7    Zn1   S    
C42   N1    A    
C18   C19   A    
C31   H11   S    
C18   H5    S    
C11   C15   A    
C19   C20   A    
C8    C9    A    
C18   C30   A    
C14   C45   A    
C9    C10   A    
C47   H18   S    
C44   C47   A    
C6    H20   S    
O3    Zn1   S    
C21   C22   A    
C15   H9    S    
O2    Zn2   S    
C32   N2    A    
C29   H2    S    
C50   O10   D    
C1    O1    A    
C40   H10   S    
N1    Zn1   S    
C24   C28   A    
C24   C25   A    
C7    H1    S    
C46   H17   S    
C20   H6    S    
C19   N3    S    
C42   H12   S    
C39   C40   A    
O8    Zn2   S    
O4    Zn2   S    
C2    C48   A    
C16   C29   A    
C13   C49   S    
C2    C4    A    
C34   O8    A    
N4    H27   S    
C41   N5    S    
O6    Zn2   S    
C20   C21   A    
C8    H21   S    
C34   C45   S    
C23   O6    A    
N5    H29   S    
C40   C41   A    
N3    H25   S    
C43   N1    A    
C49   O9    D    
C22   C27   A    
C37   N2    A    
C16   C50   S    
C12   O4    A    
C15   C45   A    
N4    H26   S    
C16   C25   A    
C46   C47   A    
C22   C30   A    
C17   C28   A    
O5    Zn1   S    
C4    C5    A    
C10   C13   A    
C5    C11   A    
C6    C7    A    
C3    C46   A    
C1    O2    A    
C32   C33   A    
C36   C38   A    
C2    C3    A    
C25   C26   A    
O1    Zn1   S    
C26   H3    S    
C34   O7    A    
C28   H4    S    
C38   C39   A    
C14   H15   S    
C1    C30   S    
C33   C35   A    
C31   C39   A    
C35   H14   S    
C27   H7    S    
C48   H19   S    
C37   C41   A    
N5    H28   S    
C10   C11   A    
C43   H8    S    
N3    H24   S    
C12   C44   S    
C49   H22   S    
C21   C24   A    
C13   C14   A    
C44   C48   A    
N2    Zn2   S    
