data_mof_unit_186.cif
_audit_creation_date              2012-12-10T20:27:57-0500
_audit_creation_method            fapswitch 2.2
_symmetry_space_group_name_H-M    P1
_symmetry_Int_Tables_number       1
_space_group_crystal_system       triclinic
_cell_length_a                    12.890194
_cell_length_b                    10.712109
_cell_length_c                    9.901595
_cell_angle_alpha                 90.677083
_cell_angle_beta                  98.355165
_cell_angle_gamma                 90.131727
_cell_volume                      1352.60691322

loop_
_atom_site_label
_atom_site_type_symbol
_atom_type_description
_atom_site_fract_x
_atom_site_fract_y
_atom_site_fract_z
_atom_type_partial_charge
C1    C     C_R   0.503933 0.260081 0.500172 0.953900
C2    C     C_R   0.446530 0.934225 0.384941 -0.193803
C3    C     C_R   0.488998 0.870860 0.502614 -0.040876
C4    C     C_R   0.298067 0.506544 0.472626 0.952348
C5    C     C_R   0.524962 0.936154 0.622465 0.066328
C6    C     C_3   0.623086 0.917619 0.719967 -0.529125
C7    C     C_3   0.639977 0.057489 0.712573 0.294844
C8    C     C_R   0.500358 0.390334 0.068725 0.136271
C9    C     C_R   0.506702 0.608507 0.074488 -0.038893
C10   C     C_R   0.505971 0.608558 0.930837 -0.060530
C11   C     C_R   0.503608 0.390565 0.927255 0.094625
C12   C     C_R   0.028266 0.524032 0.561092 -0.017460
C13   C     C_3   0.427283 0.286287 0.899555 0.361132
C14   C     C_3   0.421167 0.285321 0.051164 0.107533
C15   C     C_R   0.497486 0.739443 0.500419 0.859874
C16   C     C_R   0.701712 0.493998 0.527264 0.950378
C17   C     C_R   0.814357 0.486757 0.543914 -0.140002
C18   C     C_R   0.185095 0.514404 0.455959 -0.211614
C19   C     C_R   0.019536 0.466683 0.320985 -0.090104
C20   C     C_R   0.125914 0.486562 0.330012 -0.218942
C21   C     C_R   0.135405 0.542347 0.569462 0.602979
C22   C     C_R   0.970677 0.476846 0.438222 -0.051329
C23   C     C_R   0.865492 0.444256 0.434871 0.433504
C24   C     C_R   0.871323 0.535426 0.664103 -0.236943
C25   C     C_R   0.978499 0.549949 0.674376 -0.074591
C26   C     C_R   0.536451 0.062891 0.619267 0.135080
C27   C     C_R   0.503030 0.127409 0.499233 -0.039575
C28   C     C_R   0.452467 0.063014 0.384108 -0.171415
F1    F     F_    0.472686 0.178752 0.858577 -0.698204
F2    F     F_    0.191062 0.584903 0.688642 -0.638587
H1    H     H_    0.681231 0.858567 0.676318 0.233274
H2    H     H_    0.161724 0.475448 0.239352 0.276963
H3    H     H_    0.419224 0.111305 0.293383 0.179189
H4    H     H_    0.412290 0.884541 0.293186 0.169686
H5    H     H_    0.606280 0.887552 0.821630 0.187261
H6    H     H_    0.853206 0.190938 0.180044 0.393358
H7    H     H_    0.807126 0.044912 0.443462 0.411758
H8    H     H_    0.238271 0.203252 0.233709 0.373256
H9    H     H_    0.640463 0.105938 0.812282 0.170987
H10   H     H_    0.510683 0.696448 0.129611 0.142743
H11   H     H_    0.508831 0.696441 0.879116 0.151265
H12   H     H_    0.354983 0.313016 0.830610 0.174022
H13   H     H_    0.452501 0.198148 0.100407 0.133931
H14   H     H_    0.832651 0.565356 0.749013 0.193532
H15   H     H_    0.976720 0.443693 0.221678 0.232061
H16   H     H_    0.021316 0.586566 0.768869 0.220507
N1    N     N_R   0.499290 0.499140 0.142710 -0.075697
N2    N     N_R   0.499290 0.499180 0.857070 -0.125662
O1    O     O_R   0.500010 0.316790 0.614690 -0.610198
O2    O     O_2   0.765565 0.419600 0.177701 -0.332670
O3    O     O_3   0.890475 0.237111 0.260010 -0.548513
O4    O     O_2   0.765710 0.232125 0.631022 -0.286855
O5    O     O_2   0.847860 0.037221 0.716011 -0.264081
O6    O     O_3   0.737833 0.033882 0.473888 -0.530803
O7    O     O_2   0.272466 0.460410 0.061938 -0.287134
O8    O     O_2   0.212846 0.251578 0.983985 -0.277255
O9    O     O_3   0.277796 0.283022 0.242591 -0.577287
O10   O     O_R   0.500000 0.316760 0.385350 -0.580125
O11   O     O_R   0.346360 0.499990 0.595720 -0.568051
O12   O     O_R   0.346350 0.499960 0.366370 -0.557784
O13   O     O_R   0.500000 0.683240 0.614650 -0.629091
O14   O     O_R   0.499990 0.683210 0.385310 -0.646943
O15   O     O_R   0.653650 0.500040 0.633630 -0.617860
O16   O     O_R   0.653640 0.500010 0.404280 -0.569832
O17   O     O_2   0.712491 0.273295 0.343438 -0.253221
S1    S     S_3+6 0.803511 0.342831 0.301097 0.036079
S2    S     S_3+6 0.752515 0.093205 0.633607 0.046763
S3    S     S_3+6 0.291680 0.323156 0.082534 0.013605
Zn1   Zn    Zn3+2 0.500010 0.500020 0.653130 1.027724
Zn2   Zn    Zn3+2 0.499990 0.499980 0.346870 1.074294

loop_
_geom_bond_atom_site_label_1
_geom_bond_atom_site_label_2
_ccdc_geom_bond_type
C2    C28   A    
C19   H15   S    
N1    Zn2   S    
C6    C7    S    
C16   O15   A    
O16   Zn2   S    
C18   C21   A    
O2    S1    D    
C9    C10   A    
N2    Zn1   S    
C23   S1    S    
C19   C20   A    
O12   Zn2   S    
C12   C25   A    
C4    C18   S    
C4    O12   A    
C2    C3    A    
C15   O13   A    
C8    N1    A    
O15   Zn1   S    
O1    Zn1   S    
C1    O10   A    
C24   C25   A    
C10   H11   S    
C10   N2    A    
C11   C13   S    
C2    H4    S    
C11   N2    A    
C17   C23   A    
C7    C26   S    
O11   Zn1   S    
C8    C11   A    
O5    S2    D    
H7    O6    S    
C12   C21   A    
C7    H9    S    
C13   F1    S    
C13   H12   S    
C15   O14   A    
C20   H2    S    
C28   H3    S    
C9    N1    A    
C18   C20   A    
C4    O11   A    
C26   C27   A    
C5    C6    S    
C24   H14   S    
H8    O9    S    
C17   C24   A    
C16   C17   S    
O9    S3    S    
C7    S2    S    
C5    C26   A    
C6    H1    S    
C12   C22   A    
H6    O3    S    
C19   C22   A    
C3    C15   S    
C6    H5    S    
O14   Zn2   S    
O17   S1    D    
C21   F2    S    
O8    S3    D    
O13   Zn1   S    
C27   C28   A    
C1    C27   S    
O7    S3    D    
C22   C23   A    
O10   Zn2   S    
C8    C14   S    
O6    S2    S    
C16   O16   A    
C13   C14   S    
C1    O1    A    
C25   H16   S    
C9    H10   S    
C14   S3    S    
O4    S2    D    
C14   H13   S    
C3    C5    A    
O3    S1    S    
