data_mof_unit_3208.cif
_audit_creation_date              2012-12-10T17:53:22-0500
_audit_creation_method            fapswitch 2.2
_symmetry_space_group_name_H-M    P1
_symmetry_Int_Tables_number       1
_space_group_crystal_system       triclinic
_cell_length_a                    23.340789
_cell_length_b                    10.757537
_cell_length_c                    9.892528
_cell_angle_alpha                 87.404442
_cell_angle_beta                  90.161475
_cell_angle_gamma                 94.217358
_cell_volume                      2474.64140295

loop_
_atom_site_label
_atom_site_type_symbol
_atom_type_description
_atom_site_fract_x
_atom_site_fract_y
_atom_site_fract_z
_atom_type_partial_charge
C1    C     C_R   0.497033 0.259234 0.503592 0.944853
C2    C     C_R   0.128027 0.608071 0.571305 0.546536
C3    C     C_R   0.237788 0.564255 0.433256 -0.084698
C4    C     C_R   0.389401 0.495470 0.499509 0.970601
C5    C     C_R   0.297025 0.567508 0.423576 -0.216325
C6    C     C_R   0.326981 0.480312 0.498264 -0.121658
C7    C     C_R   0.296651 0.380950 0.572087 -0.181579
C8    C     C_R   0.238926 0.394896 0.605133 0.023634
C9    C     C_R   0.208710 0.484512 0.530671 0.186715
C10   C     C_R   0.766835 0.515737 0.393746 0.022622
C11   C     C_R   0.706731 0.503625 0.387343 -0.261585
C12   C     C_R   0.958009 0.293579 0.602096 0.471570
C13   C     C_R   0.673901 0.505954 0.505089 -0.104323
C14   C     C_R   0.701363 0.520799 0.629923 -0.171637
C15   C     C_R   0.760683 0.539844 0.639096 -0.010390
C16   C     C_R   0.502572 0.740602 0.496500 0.921050
C17   C     C_R   0.793785 0.534891 0.520482 0.153219
C18   C     C_R   0.518302 0.096867 0.754319 -0.267503
C19   C     C_R   0.553196 0.040118 0.850825 0.503609
C20   C     C_R   0.585928 0.943067 0.812216 -0.165126
C21   C     C_R   0.577114 0.893590 0.681960 -0.171653
C22   C     C_R   0.533477 0.939902 0.596773 0.033341
C23   C     C_R   0.016817 0.286169 0.586930 -0.237629
C24   C     C_R   0.514319 0.055835 0.621514 0.018451
C25   C     C_R   0.492402 0.124852 0.510715 -0.046919
C26   C     C_R   0.475012 0.066302 0.392981 -0.233933
C27   C     C_R   0.478597 0.939952 0.383847 -0.021748
C28   C     C_R   0.610909 0.499533 0.500592 0.908361
C29   C     C_R   0.507300 0.875074 0.488308 -0.125753
C30   C     C_R   0.422685 0.335851 0.148570 -0.210304
C31   C     C_R   0.386263 0.249972 0.084011 -0.313404
C32   C     C_R   0.385764 0.247044 0.942136 0.547981
C33   C     C_R   0.423143 0.332979 0.868849 -0.250414
C34   C     C_R   0.053185 0.395032 0.569344 -0.059415
C35   C     C_R   0.461578 0.418900 0.931999 0.057313
C36   C     C_R   0.461550 0.419415 0.076261 0.166947
C37   C     C_R   0.536802 0.577602 0.068064 -0.078353
C38   C     C_R   0.536611 0.577926 0.924844 -0.085454
C39   C     C_R   0.888432 0.640956 0.533671 0.664947
C40   C     C_R   0.876057 0.418198 0.552470 0.574817
C41   C     C_R   0.934575 0.409921 0.576488 -0.112686
C42   C     C_R   0.971085 0.520967 0.572493 -0.058139
C43   C     C_R   0.948115 0.639057 0.558785 -0.128233
C44   C     C_3   0.902613 0.190299 0.769273 0.221909
C45   C     C_R   0.030932 0.512681 0.575857 -0.075939
C46   C     C_3   0.945205 0.142906 0.874197 -0.459792
C47   C     C_3   0.922668 0.151297 0.017921 -0.830266
C48   C     C_2   0.786239 0.564879 0.774385 0.925145
C49   C     C_3   0.575246 0.203508 0.992168 0.089469
C50   C     C_3   0.639929 0.223740 0.964481 -0.405444
C51   C     C_3   0.661295 0.358850 0.984756 -0.819836
C52   C     C_2   0.630560 0.901332 0.907606 0.976600
C53   C     C_2   0.617918 0.809986 0.625248 0.959803
C54   C     C_2   0.451696 0.881402 0.264280 0.940381
C55   C     C_3   0.306054 0.096768 0.938594 0.092867
C56   C     C_R   0.068424 0.621128 0.579273 -0.137877
C57   C     C_3   0.322377 0.972112 0.003608 -0.363660
C58   C     C_3   0.272131 0.905950 0.082852 -0.906949
C59   C     C_3   0.097959 0.854043 0.741566 0.189376
C60   C     C_3   0.057242 0.928605 0.820868 -0.451329
C61   C     C_3   0.079581 0.950622 0.963605 -0.873561
C62   C     C_2   0.965590 0.875966 0.557636 1.057654
C63   C     C_2   0.320445 0.255799 0.587813 0.944443
C64   C     C_2   0.213875 0.334512 0.731398 0.935858
C65   C     C_2   0.800380 0.504364 0.267933 0.941489
C66   C     C_R   0.045237 0.738666 0.587759 0.442122
C67   C     C_R   0.985844 0.748712 0.568260 -0.158084
C68   C     C_R   0.111510 0.389007 0.544551 0.550211
H1    H     H_    0.685514 0.492460 0.290775 0.189474
H2    H     H_    0.566435 0.641500 0.868402 0.183769
H3    H     H_    0.214904 0.629864 0.371363 0.175422
H4    H     H_    0.319430 0.638524 0.358588 0.195714
H5    H     H_    0.862379 0.128420 0.776592 0.211378
H6    H     H_    0.890597 0.284979 0.794551 0.135910
H7    H     H_    0.952060 0.044152 0.856401 0.270707
H8    H     H_    0.987051 0.198825 0.864269 0.224718
H9    H     H_    0.916406 0.249828 0.039588 0.271309
H10   H     H_    0.954163 0.115188 0.091398 0.278173
H11   H     H_    0.881188 0.094530 0.031212 0.280323
H12   H     H_    0.676293 0.519414 0.721697 0.217738
H13   H     H_    0.775222 0.632217 0.959180 0.366652
H14   H     H_    0.566906 0.230924 0.096882 0.191930
H15   H     H_    0.551569 0.266719 0.924473 0.123345
H16   H     H_    0.663487 0.161324 0.033910 0.264990
H17   H     H_    0.649082 0.201238 0.858507 0.217886
H18   H     H_    0.636122 0.423030 0.921613 0.251822
H19   H     H_    0.707124 0.373295 0.954653 0.292357
H20   H     H_    0.656938 0.380910 0.092539 0.275785
H21   H     H_    0.649817 0.841787 0.097492 0.346889
H22   H     H_    0.661237 0.763141 0.460719 0.345178
H23   H     H_    0.456448 0.118407 0.309533 0.170705
H24   H     H_    0.392854 0.754822 0.191958 0.335610
H25   H     H_    0.272025 0.075067 0.863077 0.211100
H26   H     H_    0.285718 0.156283 0.011184 0.139674
H27   H     H_    0.335348 0.911122 0.923021 0.248792
H28   H     H_    0.359463 0.986952 0.072766 0.247524
H29   H     H_    0.259446 0.964064 0.166208 0.279814
H30   H     H_    0.284998 0.815532 0.127324 0.271473
H31   H     H_    0.234743 0.887544 0.015007 0.265304
H32   H     H_    0.141419 0.903739 0.742197 0.215510
H33   H     H_    0.102107 0.761137 0.794264 0.123788
H34   H     H_    0.491859 0.167282 0.786524 0.188045
H35   H     H_    0.052524 0.020069 0.766795 0.250835
H36   H     H_    0.014542 0.876093 0.828491 0.233625
H37   H     H_    0.083248 0.860165 0.020521 0.276184
H38   H     H_    0.049286 0.005566 0.018079 0.282282
H39   H     H_    0.122315 0.003305 0.959767 0.254933
H40   H     H_    0.969758 0.043107 0.455724 0.366059
H41   H     H_    0.304401 0.069273 0.614081 0.358936
H42   H     H_    0.173845 0.182771 0.826450 0.319367
H43   H     H_    0.803235 0.433235 0.083073 0.355133
H44   H     H_    0.566934 0.640467 0.119315 0.187780
H45   H     H_    0.034076 0.195328 0.593834 0.210176
H46   H     H_    0.419807 0.331970 0.255952 0.225551
H47   H     H_    0.359586 0.185502 0.147822 0.157563
H48   H     H_    0.422919 0.327787 0.761862 0.242624
N1    N     N_R   0.854612 0.531856 0.532700 -0.330549
N2    N     N_R   0.148192 0.493756 0.551017 -0.355120
N3    N     N_R   0.499460 0.498800 0.142780 -0.128017
N4    N     N_R   0.499440 0.498720 0.857170 -0.124077
O1    O     O_R   0.500000 0.316780 0.614690 -0.650474
O2    O     O_R   0.583850 0.500050 0.614640 -0.614487
O3    O     O_R   0.583840 0.500030 0.385310 -0.625186
O4    O     O_2   0.863927 0.749049 0.507771 -0.503153
O5    O     O_3   0.924340 0.185172 0.635829 -0.591604
O6    O     O_2   0.835532 0.541146 0.801073 -0.660999
O7    O     O_R   0.753205 0.616416 0.872433 -0.756707
O8    O     O_3   0.555322 0.076491 0.983949 -0.568662
O9    O     O_2   0.680643 0.903012 0.871193 -0.571609
O10   O     O_R   0.615681 0.866532 0.041495 -0.756687
O11   O     O_2   0.640966 0.734416 0.698529 -0.620211
O12   O     O_2   0.840500 0.313808 0.545736 -0.519109
O13   O     O_R   0.631072 0.820613 0.487108 -0.795766
O14   O     O_2   0.466855 0.919116 0.150532 -0.578423
O15   O     O_R   0.407646 0.786891 0.281325 -0.821517
O16   O     O_3   0.353600 0.158622 0.868558 -0.635968
O17   O     O_3   0.080421 0.846721 0.604418 -0.572544
O18   O     O_2   0.931102 0.908067 0.639563 -0.584073
O19   O     O_R   0.987505 0.960003 0.455433 -0.750247
O20   O     O_2   0.371125 0.243692 0.566150 -0.687623
O21   O     O_R   0.283639 0.148908 0.612479 -0.733841
O22   O     O_2   0.213005 0.394950 0.832964 -0.645049
O23   O     O_2   0.131089 0.280023 0.509345 -0.494992
O24   O     O_R   0.190180 0.211301 0.734460 -0.719573
O25   O     O_2   0.849274 0.552798 0.256317 -0.612366
O26   O     O_R   0.775862 0.437343 0.161887 -0.819815
O27   O     O_2   0.165660 0.708645 0.580097 -0.530450
O28   O     O_R   0.500000 0.316750 0.385360 -0.650006
O29   O     O_R   0.416160 0.499970 0.614690 -0.616300
O30   O     O_R   0.416150 0.499950 0.385360 -0.621854
O31   O     O_R   0.500000 0.683250 0.614640 -0.621263
O32   O     O_R   0.500000 0.683220 0.385310 -0.581361
Zn1   Zn    Zn3+2 0.500000 0.500020 0.653130 0.963899
Zn2   Zn    Zn3+2 0.500000 0.499980 0.346870 0.973631

loop_
_geom_bond_atom_site_label_1
_geom_bond_atom_site_label_2
_ccdc_geom_bond_type
C38   H2    S    
C41   C42   A    
C59   H32   S    
C22   C29   A    
C27   C29   A    
C63   O20   D    
C35   C36   A    
C58   H30   S    
C47   H11   S    
C55   H25   S    
C46   H8    S    
C2    N2    A    
C28   O3    A    
C50   H16   S    
C7    C8    A    
C4    O29   A    
C12   C23   A    
C26   C27   A    
C37   C38   A    
O1    Zn1   S    
C62   C67   S    
C18   C24   A    
C52   O9    D    
C21   C22   A    
C5    H4    S    
C30   C31   A    
C28   O2    A    
C59   O17   S    
C10   C17   A    
C55   O16   S    
C54   O14   D    
C19   O8    S    
C68   O23   S    
C18   C19   A    
C18   H34   S    
C36   N3    A    
O29   Zn1   S    
C37   H44   S    
C50   H17   S    
C68   N2    A    
C19   C20   A    
C45   C56   A    
C8    C9    A    
C57   H28   S    
C13   C28   S    
C53   O11   D    
C14   H12   S    
C62   O19   S    
C60   H35   S    
C61   H37   S    
C17   N1    S    
C38   N4    A    
C66   C67   A    
C40   O12   S    
C59   C60   S    
C13   C14   A    
H13   O7    S    
C1    C25   S    
C9    N2    S    
C35   N4    A    
C58   H29   S    
O28   Zn2   S    
C15   C48   S    
C55   H26   S    
C51   H18   S    
C31   H47   S    
C46   H7    S    
C25   C26   A    
C44   C46   S    
C44   O5    S    
C27   C54   S    
C59   H33   S    
C53   O13   S    
C24   C25   A    
C4    C6    S    
H43   O26   S    
C34   C68   A    
C32   O16   S    
H22   O13   S    
C39   C43   A    
C12   O5    S    
C64   O24   S    
C26   H23   S    
C39   N1    A    
C39   O4    S    
C60   C61   S    
C42   C45   A    
C49   H14   S    
C3    H3    S    
C12   C41   A    
C3    C9    A    
C23   H45   S    
C31   C32   A    
C37   N3    A    
C23   C34   A    
C50   C51   S    
C63   O21   S    
C16   O32   A    
C34   C45   A    
C62   O18   D    
C44   H6    S    
C61   H38   S    
C7    C63   S    
C8    C64   S    
C40   C41   A    
O32   Zn2   S    
N3    Zn2   S    
C55   C57   S    
O30   Zn2   S    
O2    Zn1   S    
C22   C24   A    
H24   O15   S    
C42   C43   A    
C47   H9    S    
C51   H19   S    
C30   H46   S    
C10   C65   S    
C15   C17   A    
C49   O8    S    
C46   C47   S    
C33   H48   S    
C58   H31   S    
C3    C5    A    
C51   H20   S    
H40   O19   S    
C11   H1    S    
C6    C7    A    
C4    O30   A    
C30   C36   A    
C52   O10   S    
C32   C33   A    
C49   H15   S    
C2    O27   S    
C20   C52   S    
C2    C56   A    
C48   O7    S    
C21   C53   S    
C11   C13   A    
C57   C58   S    
C5    C6    A    
C66   O17   S    
C64   O22   D    
C56   C66   A    
C54   O15   S    
N4    Zn1   S    
C33   C35   A    
C40   N1    A    
C16   O31   A    
O31   Zn1   S    
C44   H5    S    
C61   H39   S    
C1    O1    A    
C10   C11   A    
H21   O10   S    
C48   O6    D    
C20   C21   A    
C16   C29   S    
C43   C67   A    
C49   C50   S    
C57   H27   S    
C14   C15   A    
C1    O28   A    
H41   O21   S    
C47   H10   S    
C65   O26   S    
C60   H36   S    
C65   O25   D    
H42   O24   S    
O3    Zn2   S    
