data_mof_unit_1325.cif
_audit_creation_date              2012-12-11T15:37:04-0500
_audit_creation_method            fapswitch 2.2
_symmetry_space_group_name_H-M    P1
_symmetry_Int_Tables_number       1
_space_group_crystal_system       triclinic
_cell_length_a                    16.877524
_cell_length_b                    7.40705
_cell_length_c                    15.020682
_cell_angle_alpha                 90.521729
_cell_angle_beta                  93.772847
_cell_angle_gamma                 90.727316
_cell_volume                      1873.46193404

loop_
_atom_site_label
_atom_site_type_symbol
_atom_type_description
_atom_site_fract_x
_atom_site_fract_y
_atom_site_fract_z
_atom_type_partial_charge
O1    O     O_R   0.578230 0.505720 0.424270 -0.538243
O2    O     O_R   0.421770 0.005720 0.575730 -0.533249
O3    O     O_R   0.412470 0.173950 0.404530 -0.544349
O4    O     O_R   0.587530 0.673950 0.595470 -0.539466
C1    C     C_R   0.390007 0.343003 0.376995 0.746740
C2    C     C_R   0.611491 0.846281 0.620633 0.713405
O5    O     O_R   0.577030 0.175880 0.413670 -0.529169
O6    O     O_R   0.422970 0.675880 0.586330 -0.529027
O7    O     O_R   0.587510 0.007580 0.584940 -0.551952
O8    O     O_R   0.412490 0.507580 0.415060 -0.546290
C3    C     C_R   0.602803 0.344432 0.394091 0.687737
C4    C     C_R   0.397249 0.844024 0.605963 0.693933
O9    O     O_3   0.503240 0.339850 0.556180 -0.392882
O10   O     O_3   0.496760 0.839850 0.443820 -0.396453
V1    V     V_3+5 0.499400 0.064230 0.489580 1.320667
V2    V     V_3+5 0.500600 0.564230 0.510420 1.323936
C5    C     C_1   0.334191 0.853481 0.668263 -0.196249
C6    C     C_1   0.665686 0.354537 0.331634 -0.196308
C7    C     C_1   0.281120 0.864947 0.719632 -0.005214
C8    C     C_1   0.718586 0.365551 0.280024 -0.005995
C9    C     C_1   0.218463 0.879809 0.779845 -0.013591
C10   C     C_1   0.781052 0.379486 0.219525 -0.010564
C11   C     C_1   0.165399 0.891256 0.831217 -0.198225
C12   C     C_1   0.834041 0.390435 0.168025 -0.185495
C13   C     C_3   0.732337 0.800429 0.859006 0.513152
C14   C     C_3   0.252508 0.222435 0.140936 0.452269
C15   C     C_3   0.666933 0.740281 0.780525 0.286028
C16   C     C_3   0.328409 0.204719 0.216867 0.238102
C17   C     C_3   0.835553 0.798595 0.716786 0.548200
C18   C     C_3   0.161441 0.315538 0.279916 0.471861
C19   C     C_3   0.782614 0.092830 0.783781 0.492916
C20   C     C_3   0.243858 0.561072 0.187092 0.452789
C21   C     C_3   0.810923 0.893131 0.811717 -0.258048
C22   C     C_3   0.192195 0.375065 0.180406 -0.236020
C23   C     C_3   0.682190 0.859514 0.692715 -0.172600
C24   C     C_3   0.319727 0.347293 0.302765 -0.140313
C25   C     C_3   0.760568 0.799474 0.643802 0.200011
C26   C     C_3   0.238937 0.319978 0.355840 0.176080
C27   C     C_3   0.696543 0.066037 0.729377 0.251353
C28   C     C_3   0.318153 0.543258 0.257687 0.173890
H1    H     H_    0.695922 0.160904 0.672481 0.098525
H2    H     H_    0.313552 0.651312 0.307519 0.102993
O11   O     O_R   0.087480 0.241090 0.084980 -0.557243
O12   O     O_R   0.912520 0.741090 0.915020 -0.545298
O13   O     O_R   0.922960 0.569060 0.086330 -0.530728
O14   O     O_R   0.077040 0.069060 0.913670 -0.540045
C29   C     C_R   0.897088 0.400469 0.105774 0.721812
C30   C     C_R   0.102406 0.900752 0.893586 0.686134
O15   O     O_R   0.087520 0.570920 0.095480 -0.504975
O16   O     O_R   0.912480 0.070920 0.904520 -0.554941
O17   O     O_R   0.078240 0.739160 0.924260 -0.528586
O18   O     O_R   0.921760 0.239160 0.075740 -0.532242
C31   C     C_R   0.117381 0.400996 0.114104 0.847073
C32   C     C_R   0.884732 0.901803 0.882144 0.713725
O19   O     O_3   0.996740 0.404980 0.943840 -0.403500
O20   O     O_3   0.003260 0.904980 0.056160 -0.379276
V3    V     V_3+5 0.000600 0.680640 0.010420 1.400530
V4    V     V_3+5 0.999400 0.180640 0.989580 1.344108
C33   C     C_3   0.755845 0.647943 0.926363 -0.777524
H3    H     H_    0.800610 0.563319 0.904450 0.191356
H4    H     H_    0.783713 0.704707 0.989619 0.211880
H5    H     H_    0.704643 0.563005 0.943303 0.187110
C34   C     C_3   0.207299 0.043902 0.107430 -0.604559
H6    H     H_    0.153538 0.986967 0.132910 0.233504
H7    H     H_    0.186636 0.053272 0.036241 0.204498
H8    H     H_    0.247796 0.940817 0.106053 0.193861
O21   O     O_3   0.897584 0.903075 0.680793 -0.537806
C35   C     C_3   0.950335 0.822557 0.622299 -0.271902
H9    H     H_    0.922172 0.720330 0.576209 0.132504
H10   H     H_    0.001919 0.764076 0.661046 0.139721
H11   H     H_    0.974194 0.930481 0.580471 0.149616
O22   O     O_3   0.093309 0.422754 0.296805 -0.554582
C36   C     C_3   0.050381 0.384455 0.372900 -0.272479
H12   H     H_    0.082267 0.301812 0.424225 0.138352
H13   H     H_    0.993961 0.313802 0.350952 0.160740
H14   H     H_    0.034886 0.513972 0.404658 0.137367
C37   C     C_3   0.773239 0.937665 0.565709 -0.657284
H15   H     H_    0.788328 0.076861 0.586298 0.234543
H16   H     H_    0.821003 0.896304 0.522977 0.203288
H17   H     H_    0.719976 0.945633 0.518679 0.174847
C38   C     C_3   0.237837 0.464685 0.436045 -0.739894
H18   H     H_    0.263330 0.599221 0.424874 0.161445
H19   H     H_    0.178752 0.484112 0.461196 0.201614
H20   H     H_    0.276070 0.429943 0.496337 0.207038
O23   O     O_3   0.695770 0.938953 0.909768 -0.531592
C39   C     C_3   0.659207 0.900192 0.990322 -0.223300
H21   H     H_    0.703900 0.904348 0.047917 0.136446
H22   H     H_    0.624887 0.771880 0.988457 0.131362
H23   H     H_    0.616452 0.008995 0.002071 0.152989
O24   O     O_3   0.278605 0.284645 0.057478 -0.565093
C40   C     C_3   0.323264 0.169167 0.003423 -0.294415
H24   H     H_    0.285778 0.126780 0.943242 0.164796
H25   H     H_    0.346732 0.046922 0.036973 0.137025
H26   H     H_    0.374082 0.247000 0.979391 0.148375
C41   C     C_3   0.578888 0.760628 0.809837 -0.619372
H27   H     H_    0.564183 0.888777 0.841473 0.247471
H28   H     H_    0.534383 0.734722 0.753389 0.161442
H29   H     H_    0.564285 0.661770 0.861608 0.156943
C42   C     C_3   0.412462 0.236686 0.177296 -0.561097
H30   H     H_    0.413787 0.340587 0.125530 0.240120
H31   H     H_    0.458707 0.269209 0.230962 0.167466
H32   H     H_    0.437466 0.118535 0.143429 0.142345
C43   C     C_3   0.668646 0.536022 0.762577 -0.820621
H33   H     H_    0.639826 0.461307 0.814829 0.226312
H34   H     H_    0.635784 0.496857 0.701152 0.240564
H35   H     H_    0.726483 0.479279 0.760196 0.219808
C44   C     C_3   0.337319 0.006674 0.244263 -0.816397
H36   H     H_    0.359162 0.924535 0.190352 0.218633
H37   H     H_    0.380702 0.984516 0.298720 0.235300
H38   H     H_    0.283228 0.941617 0.257939 0.233762
C45   C     C_3   0.871586 0.613492 0.736553 -0.775386
H39   H     H_    0.932732 0.628857 0.767769 0.207260
H40   H     H_    0.840218 0.537005 0.782222 0.188877
H41   H     H_    0.876921 0.532068 0.675879 0.210019
C46   C     C_3   0.124034 0.128380 0.273722 -0.738330
H42   H     H_    0.073276 0.115357 0.223658 0.229123
H43   H     H_    0.172782 0.050079 0.260799 0.206215
H44   H     H_    0.100581 0.075387 0.335354 0.178974
C47   C     C_3   0.752312 0.617517 0.587724 -0.715408
H45   H     H_    0.705992 0.623122 0.532267 0.224213
H46   H     H_    0.806105 0.592732 0.551403 0.176407
H47   H     H_    0.743755 0.492279 0.624185 0.208454
C48   C     C_3   0.243547 0.144430 0.415425 -0.707108
H48   H     H_    0.286585 0.154517 0.474387 0.211524
H49   H     H_    0.186869 0.112696 0.445225 0.184860
H50   H     H_    0.265855 0.026016 0.384353 0.192473
O25   O     O_3   0.832474 0.185263 0.723121 -0.576820
C49   C     C_3   0.914973 0.224659 0.747094 -0.070292
H51   H     H_    0.942055 0.277125 0.687094 0.109239
H52   H     H_    0.953603 0.111386 0.766429 0.175957
H53   H     H_    0.925860 0.324776 0.800465 0.131390
O26   O     O_3   0.196423 0.714743 0.202989 -0.570183
C50   C     C_3   0.161680 0.732547 0.284703 -0.230643
H54   H     H_    0.191186 0.828118 0.330476 0.074434
H55   H     H_    0.174761 0.630986 0.327408 0.197688
H56   H     H_    0.096992 0.757046 0.274562 0.204508
C51   C     C_3   0.777351 0.218006 0.868870 -0.551645
H57   H     H_    0.721956 0.288131 0.875162 0.212679
H58   H     H_    0.786602 0.152581 0.934503 0.204697
H59   H     H_    0.826422 0.312664 0.873644 0.158606
C52   C     C_3   0.275650 0.615727 0.093468 -0.453551
H60   H     H_    0.313838 0.734163 0.098034 0.131260
H61   H     H_    0.326506 0.546097 0.067825 0.218091
H62   H     H_    0.227598 0.632167 0.040164 0.171316
O27   O     O_3   0.635903 0.118808 0.786014 -0.549539
C53   C     C_3   0.563614 0.174536 0.743017 -0.217774
H63   H     H_    0.523556 0.058912 0.724901 0.139993
H64   H     H_    0.572820 0.255357 0.684343 0.180350
H65   H     H_    0.532013 0.259145 0.790201 0.131889
O28   O     O_3   0.388435 0.575965 0.211679 -0.584503
C54   C     C_3   0.453735 0.659558 0.258276 -0.229577
H66   H     H_    0.497955 0.557266 0.279328 0.152987
H67   H     H_    0.436771 0.738710 0.314711 0.187884
H68   H     H_    0.482729 0.752239 0.212400 0.131432

loop_
_geom_bond_atom_site_label_1
_geom_bond_atom_site_label_2
_ccdc_geom_bond_type
C34   H7    S    
C3    C6    S    
C36   H13   S    
C36   H12   S    
C15   C41   S    
C41   H27   S    
O1    C3    A    
C19   O25   S    
O2    C4    A    
C49   H51   S    
C2    O7    A    
C38   H18   S    
C41   H29   S    
C48   H48   S    
C27   H1    S    
C37   H15   S    
C2    C23   S    
O5    C3    A    
C51   H58   S    
O13   V3    S    
O16   C32   A    
C23   C25   S    
C52   H61   S    
C39   H22   S    
C47   H47   S    
C16   C44   S    
C46   H42   S    
C1    C24   S    
C17   C21   S    
O15   V3    S    
O20   V3    S    
C18   C26   S    
C54   H68   S    
C15   C43   S    
O11   V4    S    
C5    C7    T    
C17   O21   S    
O11   C31   A    
C30   O17   A    
C45   H39   S    
O20   V4    S    
C35   H9    S    
C46   H43   S    
C4    C5    S    
C50   H56   S    
C54   H66   S    
C19   C21   S    
O17   V3    S    
C19   C51   S    
C26   C48   S    
O5    V1    S    
C34   H8    S    
C33   H3    S    
O6    V2    S    
O14   V4    S    
C54   H67   S    
C44   H37   S    
C38   H19   S    
C14   C22   S    
O27   C53   S    
C53   H64   S    
C18   C46   S    
O13   C29   A    
C51   H59   S    
O14   C30   A    
C33   H4    S    
C18   C22   S    
O21   C35   S    
O16   V4    S    
C24   C28   S    
O4    C2    A    
C52   H62   S    
C40   H24   S    
C39   H21   S    
O26   C50   S    
C48   H50   S    
C15   C23   S    
O23   C39   S    
C25   C37   S    
C43   H34   S    
C20   C22   S    
C43   H35   S    
O4    V2    S    
C23   C27   S    
C14   C34   S    
C40   H25   S    
C53   H65   S    
C42   H30   S    
C25   C47   S    
O12   V3    S    
O6    C4    A    
C46   H44   S    
C27   O27   S    
C13   O23   S    
C37   H16   S    
C28   O28   S    
C45   H40   S    
O1    V2    S    
O2    V1    S    
C20   C52   S    
C47   H46   S    
O18   V4    S    
C16   C42   S    
C42   H31   S    
C8    C10   S    
O19   V3    S    
C26   C38   S    
C50   H54   S    
C44   H38   S    
C10   C12   T    
O19   V4    S    
C14   O24   S    
C44   H36   S    
O25   C49   S    
C49   H53   S    
C20   O26   S    
C38   H20   S    
O3    V1    S    
C53   H63   S    
C37   H17   S    
C21   C32   S    
C33   H5    S    
C11   C30   S    
C7    C9    S    
O10   V1    S    
C12   C29   S    
C17   C45   S    
O22   C36   S    
O3    C1    A    
C39   H23   S    
C49   H52   S    
C18   O22   S    
C47   H45   S    
C41   H28   S    
C29   O18   A    
C13   C15   S    
C51   H57   S    
C14   C16   S    
C9    C11   T    
O7    V1    S    
C1    O8    A    
O8    V2    S    
C52   H60   S    
C24   C26   S    
O24   C40   S    
C35   H11   S    
O15   C31   A    
C28   H2    S    
C36   H14   S    
C19   C27   S    
C45   H41   S    
C6    C8    T    
C20   C28   S    
C48   H49   S    
C34   H6    S    
O12   C32   A    
C42   H32   S    
C16   C24   S    
C22   C31   S    
C35   H10   S    
O9    V2    S    
C17   C25   S    
C43   H33   S    
C50   H55   S    
O28   C54   S    
C13   C33   S    
C13   C21   S    
C40   H26   S    
