data_mof_unit_3781.cif
_audit_creation_date              2012-12-11T15:18:28-0500
_audit_creation_method            fapswitch 2.2
_symmetry_space_group_name_H-M    P1
_symmetry_Int_Tables_number       1
_space_group_crystal_system       triclinic
_cell_length_a                    15.927793
_cell_length_b                    15.921493
_cell_length_c                    17.6525
_cell_angle_alpha                 108.050617
_cell_angle_beta                  105.533769
_cell_angle_gamma                 110.12791
_cell_volume                      3627.79447655

loop_
_atom_site_label
_atom_site_type_symbol
_atom_type_description
_atom_site_fract_x
_atom_site_fract_y
_atom_site_fract_z
_atom_type_partial_charge
C1    C     C_R   0.894703 0.888277 0.662370 0.610031
C2    C     C_R   0.918273 0.708010 0.454737 -0.085309
C3    C     C_R   0.747307 0.815982 0.255930 0.527689
C4    C     C_R   0.087543 0.277896 0.490641 0.557455
C5    C     C_R   0.274003 0.992938 0.572391 0.550992
C6    C     C_R   0.688638 0.726923 0.255183 -0.301569
C7    C     C_R   0.335290 0.051480 0.545641 -0.142080
C8    C     C_R   0.002072 0.696343 0.472174 0.037454
C9    C     C_R   0.033252 0.029509 0.241125 -0.368529
C10   C     C_1   0.662121 0.068278 0.552132 -0.005025
C11   C     C_1   0.597813 0.084377 0.563046 -0.023158
C12   C     C_R   0.006424 0.283525 0.441827 -0.302321
C13   C     C_1   0.513512 0.087687 0.566661 -0.011045
C14   C     C_1   0.434229 0.076661 0.561312 -0.019040
C15   C     C_1   0.009162 0.366167 0.426192 -0.039160
C16   C     C_R   0.214882 0.187183 0.752341 -0.191233
C17   C     C_1   0.009653 0.439547 0.422229 -0.004882
C18   C     C_1   0.007835 0.527845 0.429461 -0.013533
C19   C     C_1   0.005097 0.604772 0.445162 -0.051034
C20   C     C_1   0.291019 0.370583 0.845388 -0.010369
C21   C     C_2   0.388182 0.531368 0.996213 -0.174796
C22   C     C_2   0.415152 0.521332 0.069759 -0.161747
C23   C     C_R   0.248563 0.284346 0.763586 -0.112651
C24   C     C_1   0.506557 0.597614 0.141352 0.004335
C25   C     C_1   0.331305 0.443907 0.914085 0.030149
C26   C     C_1   0.588113 0.658602 0.195583 0.038116
C27   C     C_1   0.040603 0.987785 0.160656 -0.029200
C28   C     C_R   0.764275 0.057931 0.472587 -0.180025
C29   C     C_2   0.054993 0.915873 0.012546 -0.165432
C30   C     C_2   0.973807 0.847924 0.940302 -0.175952
C31   C     C_1   0.969530 0.855529 0.861308 0.035276
C32   C     C_1   0.047458 0.952704 0.093542 0.032465
C33   C     C_1   0.969829 0.876699 0.802062 -0.023312
C34   C     C_R   0.730171 0.038623 0.531741 -0.149560
C35   C     C_R   0.229732 0.281057 0.680581 0.549924
C36   C     C_R   0.757444 0.969920 0.549717 0.601894
C37   C     C_R   0.922180 0.199144 0.421409 0.501050
C38   C     C_R   0.057264 0.976278 0.739245 -0.200444
C39   C     C_R   0.972235 0.914171 0.738902 -0.132628
C40   C     C_3   0.756465 0.773332 0.664116 0.266221
C41   C     C_3   0.747142 0.675056 0.665740 -0.301208
C42   C     C_3   0.690548 0.647344 0.719008 -1.044732
C43   C     C_3   0.865029 0.030248 0.137163 0.230112
C44   C     C_3   0.778139 0.050170 0.104577 -0.230829
C45   C     C_R   0.737691 0.729167 0.334079 0.457402
C46   C     C_3   0.778967 0.080421 0.030638 -1.080634
C47   C     C_3   0.243386 0.160722 0.300049 0.214153
C48   C     C_3   0.288931 0.106184 0.250526 -0.265268
C49   C     C_3   0.312505 0.144687 0.185893 -1.041965
C50   C     C_3   0.685950 0.784852 0.109058 0.279091
C51   C     C_3   0.761115 0.750399 0.090930 -0.378030
C52   C     C_3   0.726111 0.687630 0.992993 -1.001535
C53   C     C_3   0.375399 0.936050 0.642927 0.174124
C54   C     C_3   0.350394 0.846704 0.558497 -0.362475
C55   C     C_3   0.437052 0.824078 0.565832 -0.960956
C56   C     C_R   0.283806 0.087626 0.501613 -0.109629
C57   C     C_3   0.221698 0.414026 0.503424 0.290948
C58   C     C_3   0.222839 0.420345 0.418785 -0.335438
C59   C     C_3   0.266962 0.528535 0.432931 -1.008224
C60   C     C_3   0.354943 0.431323 0.709635 0.187386
C61   C     C_3   0.364621 0.535355 0.754968 -0.274034
C62   C     C_3   0.471401 0.612429 0.816571 -1.045810
C63   C     C_3   0.732937 0.985352 0.678252 0.134331
C64   C     C_3   0.832495 0.079217 0.740615 -0.362088
C65   C     C_3   0.829115 0.137546 0.825551 -0.957140
C66   C     C_3   0.794579 0.218878 0.334132 0.212195
C67   C     C_R   0.081834 0.788057 0.529693 -0.125844
C68   C     C_3   0.779807 0.282102 0.410378 -0.351092
C69   C     C_3   0.741529 0.350458 0.386745 -0.988613
C70   C     C_3   0.641092 0.577398 0.329043 0.193947
C71   C     C_3   0.537326 0.541548 0.325710 -0.213538
C72   C     C_3   0.476579 0.428528 0.273764 -1.083694
C73   C     C_R   0.945485 0.002304 0.251862 0.508645
C74   C     C_R   0.108799 0.072490 0.323916 0.571169
H1    H     H_    0.681001 0.761838 0.629884 0.145684
H2    H     H_    0.862345 0.971908 0.080585 0.100577
H3    H     H_    0.933650 0.101767 0.164642 0.089908
H4    H     H_    0.707697 0.982335 0.080304 0.199698
H5    H     H_    0.782219 0.111119 0.159776 0.199201
H6    H     H_    0.848117 0.149337 0.053689 0.277008
H7    H     H_    0.715580 0.095143 0.008866 0.278944
H8    H     H_    0.772663 0.019476 0.973780 0.269117
H9    H     H_    0.302404 0.237559 0.347545 0.108896
H10   H     H_    0.187152 0.170578 0.255547 0.091369
H11   H     H_    0.357769 0.116675 0.298495 0.197126
H12   H     H_    0.786700 0.833296 0.731819 0.052654
H13   H     H_    0.237814 0.024856 0.214258 0.213727
H14   H     H_    0.244900 0.135717 0.137619 0.269383
H15   H     H_    0.343161 0.101890 0.149928 0.274524
H16   H     H_    0.367809 0.224537 0.221598 0.281673
H17   H     H_    0.843778 0.650178 0.413764 0.112782
H18   H     H_    0.672153 0.823636 0.068409 0.122717
H19   H     H_    0.613528 0.720160 0.084900 0.077443
H20   H     H_    0.833136 0.815920 0.114894 0.220416
H21   H     H_    0.771970 0.704671 0.125355 0.182418
H22   H     H_    0.656521 0.618494 0.968043 0.270112
H23   H     H_    0.707734 0.614470 0.597399 0.207296
H24   H     H_    0.782741 0.666256 0.981841 0.273715
H25   H     H_    0.714132 0.730749 0.956026 0.266475
H26   H     H_    0.385786 0.912536 0.696328 0.131382
H27   H     H_    0.447119 0.001184 0.665516 0.114628
H28   H     H_    0.286435 0.779273 0.546893 0.197340
H29   H     H_    0.331065 0.861791 0.500601 0.203665
H30   H     H_    0.500949 0.888458 0.573361 0.268353
H31   H     H_    0.416094 0.757974 0.505238 0.277416
H32   H     H_    0.458346 0.807891 0.622891 0.254245
H33   H     H_    0.382251 0.449085 0.069681 0.141894
H34   H     H_    0.821365 0.681262 0.694471 0.208858
H35   H     H_    0.425202 0.602369 0.995381 0.137651
H36   H     H_    0.905342 0.808029 0.943891 0.142344
H37   H     H_    0.299658 0.450853 0.550927 0.111382
H38   H     H_    0.188773 0.457734 0.534998 0.078696
H39   H     H_    0.267728 0.386355 0.397092 0.193211
H40   H     H_    0.147284 0.377631 0.365456 0.208486
H41   H     H_    0.222737 0.564101 0.453556 0.273313
H42   H     H_    0.267321 0.530778 0.370773 0.274799
H43   H     H_    0.343967 0.571520 0.484079 0.265261
H44   H     H_    0.121447 0.960008 0.008301 0.145645
H45   H     H_    0.729457 0.706109 0.788048 0.271172
H46   H     H_    0.218879 0.162490 0.803101 0.141396
H47   H     H_    0.752624 0.104875 0.443005 0.176122
H48   H     H_    0.390778 0.431798 0.663695 0.111269
H49   H     H_    0.397622 0.414260 0.758676 0.087931
H50   H     H_    0.336239 0.558634 0.704666 0.183958
H51   H     H_    0.319572 0.533232 0.793364 0.208859
H52   H     H_    0.499122 0.593145 0.870103 0.271043
H53   H     H_    0.476116 0.687338 0.846272 0.270786
H54   H     H_    0.518404 0.615332 0.780038 0.276905
H55   H     H_    0.715675 0.940504 0.714290 0.119062
H56   H     H_    0.684697 0.575717 0.718751 0.279789
H57   H     H_    0.671667 0.003875 0.663403 0.116067
H58   H     H_    0.891540 0.057497 0.757128 0.196323
H59   H     H_    0.851682 0.129176 0.709155 0.196331
H60   H     H_    0.771320 0.161526 0.811219 0.264658
H61   H     H_    0.901420 0.204948 0.869106 0.268920
H62   H     H_    0.813327 0.090751 0.860375 0.264894
H63   H     H_    0.720971 0.171093 0.277864 0.126184
H64   H     H_    0.839193 0.263522 0.308968 0.105398
H65   H     H_    0.725336 0.232144 0.425299 0.198706
H66   H     H_    0.849897 0.328643 0.470529 0.200174
H67   H     H_    0.615106 0.638300 0.689775 0.263187
H68   H     H_    0.794257 0.401790 0.371435 0.267423
H69   H     H_    0.732432 0.395801 0.443003 0.269574
H70   H     H_    0.668968 0.305539 0.329028 0.262402
H71   H     H_    0.131230 0.996188 0.781480 0.145347
H72   H     H_    0.678633 0.544758 0.364478 0.109444
H73   H     H_    0.637914 0.548134 0.261666 0.075390
H74   H     H_    0.542438 0.564003 0.393702 0.203709
H75   H     H_    0.499273 0.577200 0.295129 0.203822
H76   H     H_    0.468049 0.404487 0.204792 0.275668
H77   H     H_    0.402342 0.405110 0.273751 0.275796
H78   H     H_    0.316956 0.149679 0.488164 0.185016
H79   H     H_    0.512954 0.391611 0.304262 0.273373
H80   H     H_    0.156825 0.803114 0.559270 0.150417
N1    N     N_R   0.932430 0.938480 0.620530 -0.097922
N2    N     N_R   0.173120 0.127600 0.665820 -0.070306
N3    N     N_R   0.812300 0.005460 0.456230 -0.067189
N4    N     N_R   0.178530 0.184580 0.620530 -0.094079
N5    N     N_R   0.806890 0.948480 0.501510 -0.090526
N6    N     N_R   0.952060 0.145220 0.456230 -0.123728
N7    N     N_R   0.033360 0.987840 0.665820 -0.075664
N8    N     N_R   0.821470 0.815420 0.379470 -0.124649
N9    N     N_R   0.193110 0.051520 0.498490 -0.075914
N10   N     N_R   0.047940 0.854780 0.543770 -0.044258
N11   N     N_R   0.966640 0.012160 0.334180 -0.118304
N12   N     N_R   0.067570 0.061520 0.379470 -0.122704
N13   N     N_R   0.947010 0.805420 0.498490 -0.038494
N14   N     N_R   0.826880 0.872400 0.334180 -0.121505
N15   N     N_R   0.187700 0.994540 0.543770 -0.096303
N16   N     N_R   0.052990 0.194580 0.501510 -0.127217
Ni1   Ni    Ni4+2 0.878060 0.878060 0.500000 0.288813
Ni2   Ni    Ni4+2 0.121940 0.121940 0.500000 0.243982
Ni3   Ni    Ni4+2 0.109540 0.991270 0.603850 0.221362
Ni4   Ni    Ni4+2 0.890460 0.008730 0.396150 0.274492
O1    O     O_3   0.809806 0.796731 0.614669 -0.631027
O2    O     O_3   0.693581 0.682557 0.377793 -0.629014
O3    O     O_3   0.857749 0.995906 0.201229 -0.600492
O4    O     O_3   0.209557 0.111965 0.348637 -0.678715
O5    O     O_3   0.719110 0.853266 0.197940 -0.602378
O6    O     O_3   0.299068 0.963475 0.638108 -0.685270
O7    O     O_3   0.179548 0.313119 0.488355 -0.643403
O8    O     O_3   0.253661 0.360947 0.660355 -0.669486
O9    O     O_3   0.733949 0.923226 0.601177 -0.667542
O10   O     O_3   0.829167 0.153439 0.352464 -0.640251

loop_
_geom_bond_atom_site_label_1
_geom_bond_atom_site_label_2
_ccdc_geom_bond_type
C66   C68   S    
N12   Ni2   S    
N11   N12   A    
C41   H34   S    
C41   C42   S    
C57   H37   S    
C49   H16   S    
C43   C44   S    
C3    C6    A    
C57   O7    S    
C5    O6    S    
C6    C26   S    
C53   C54   S    
N1    N7    A    
C35   O8    S    
N14   Ni4   S    
C56   N9    A    
C33   C39   S    
C4    N16   A    
C55   H31   S    
C61   H50   S    
C37   N6    A    
C6    C45   A    
C24   C26   T    
C47   O4    S    
C16   H46   S    
C5    N15   A    
C30   C31   S    
C42   H45   S    
C57   H38   S    
C20   C25   T    
C22   H33   S    
C18   C19   T    
C40   H12   S    
C12   C37   A    
C1    N1    A    
C3    O5    S    
C41   H23   S    
C21   C25   S    
C36   N5    A    
C46   H8    S    
C67   N10   A    
C7    C14   S    
C43   O3    S    
N8    Ni1   S    
C64   H58   S    
C53   H27   S    
C59   H42   S    
N11   Ni4   S    
C66   H64   S    
C16   N2    A    
C58   H39   S    
C31   C33   T    
C70   C71   S    
C70   H72   S    
C47   H9    S    
C4    O7    S    
C4    C12   A    
C65   H60   S    
N3    Ni4   S    
C73   O3    S    
C16   C23   A    
C71   H74   S    
C28   C34   A    
N3    N5    A    
C21   C22   D    
C49   H14   S    
C61   C62   S    
C9    C73   A    
C7    C56   A    
C44   C46   S    
C3    N14   A    
C50   C51   S    
C44   H5    S    
C53   H26   S    
C60   O8    S    
C38   C39   A    
N2    Ni3   S    
C52   H24   S    
C8    C19   S    
C63   O9    S    
C55   H32   S    
C51   C52   S    
C54   H29   S    
C42   H56   S    
C45   O2    S    
C62   H52   S    
C28   H47   S    
C68   C69   S    
N13   Ni1   S    
C69   H68   S    
C37   O10   S    
C55   H30   S    
C60   C61   S    
C69   H70   S    
C60   H49   S    
C45   N8    A    
C43   H3    S    
C38   H71   S    
C29   C30   D    
C46   H7    S    
N7    Ni3   S    
C47   C48   S    
C74   O4    S    
C20   C23   S    
C72   H77   S    
C42   H67   S    
C17   C18   S    
C48   H13   S    
N10   Ni3   S    
C10   C34   S    
C36   O9    S    
C47   H10   S    
C60   H48   S    
N9    Ni2   S    
C65   H61   S    
N5    Ni1   S    
N8    N14   A    
C50   H18   S    
C40   C41   S    
C73   N11   A    
C30   H36   S    
C12   C15   S    
C63   H57   S    
C67   H80   S    
C22   C24   S    
C68   H66   S    
C69   H69   S    
C9    C74   A    
C59   H43   S    
C53   O6    S    
C74   N12   A    
C9    C27   S    
C5    C7    A    
C64   H59   S    
C43   H2    S    
C15   C17   T    
C66   O10   S    
C54   C55   S    
C1    O1    S    
N6    N16   A    
C72   H79   S    
C27   C32   T    
N6    Ni4   S    
C54   H28   S    
N10   N13   A    
C2    C8    A    
C49   H15   S    
C38   N7    A    
C40   O1    S    
C21   H35   S    
C50   H19   S    
C29   C32   S    
C29   H44   S    
C52   H25   S    
C23   C35   A    
C40   H1    S    
C64   C65   S    
N2    N4    A    
C50   O5    S    
C58   C59   S    
C35   N4    A    
C71   C72   S    
C62   H54   S    
C11   C13   S    
N4    Ni2   S    
C57   C58   S    
C71   H75   S    
C66   H63   S    
N16   Ni2   S    
C48   C49   S    
C72   H76   S    
C44   H4    S    
C28   N3    A    
C52   H22   S    
C34   C36   A    
C63   H55   S    
C2    H17   S    
N9    N15   A    
C65   H62   S    
C10   C11   T    
C1    C39   A    
C51   H20   S    
C63   C64   S    
N1    Ni1   S    
C62   H53   S    
C8    C67   A    
C59   H41   S    
C58   H40   S    
N15   Ni3   S    
C48   H11   S    
C68   H65   S    
C61   H51   S    
C70   H73   S    
C46   H6    S    
C56   H78   S    
C13   C14   T    
C70   O2    S    
C2    N13   A    
C51   H21   S    
