data_mof_unit_2874.cif
_audit_creation_date              2012-12-10T16:57:09-0500
_audit_creation_method            fapswitch 2.2
_symmetry_space_group_name_H-M    P1
_symmetry_Int_Tables_number       1
_space_group_crystal_system       triclinic
_cell_length_a                    7.896441
_cell_length_b                    8.555667
_cell_length_c                    16.437876
_cell_angle_alpha                 92.90648
_cell_angle_beta                  79.772703
_cell_angle_gamma                 93.194579
_cell_volume                      1090.24669066

loop_
_atom_site_label
_atom_site_type_symbol
_atom_type_description
_atom_site_fract_x
_atom_site_fract_y
_atom_site_fract_z
_atom_type_partial_charge
C1    C     C_R   0.545288 0.794150 0.498121 0.955757
C2    C     C_R   0.624150 0.556847 0.200257 -0.241757
C3    C     C_R   0.452969 0.255849 0.836633 -0.167918
C4    C     C_R   0.644087 0.511333 0.116949 -0.148036
C5    C     C_R   0.384470 0.360373 0.900661 0.167189
C6    C     C_R   0.578596 0.363687 0.093001 0.163455
C7    C     C_R   0.337114 0.508942 0.883168 -0.146012
C8    C     C_R   0.501633 0.258318 0.152578 -0.154474
C9    C     C_R   0.368445 0.556646 0.802119 -0.252049
C10   C     C_R   0.477625 0.305515 0.235611 -0.215611
C11   C     C_2   0.400243 0.332179 0.985683 -0.114106
C12   C     C_R   0.454697 0.205869 0.501973 0.947208
C13   C     C_2   0.559935 0.335419 0.006700 -0.114545
C14   C     C_R   0.720208 0.336180 0.943904 0.158704
C15   C     C_R   0.773936 0.468057 0.896683 -0.141732
C16   C     C_R   0.913769 0.460284 0.831485 -0.136815
C17   C     C_R   0.001036 0.321583 0.813529 -0.075370
C18   C     C_R   0.952684 0.192273 0.862490 -0.155693
C19   C     C_R   0.812705 0.199443 0.927648 -0.153078
C20   C     C_R   0.239265 0.326014 0.047870 0.153373
C21   C     C_R   0.195018 0.453246 0.103612 -0.140260
C22   C     C_R   0.053017 0.438620 0.167412 -0.132880
C23   C     C_2   0.569179 0.957588 0.497025 -0.398416
C24   C     C_R   0.953737 0.297996 0.175243 -0.086854
C25   C     C_R   0.992740 0.173520 0.117843 -0.155309
C26   C     C_R   0.135065 0.187391 0.054175 -0.154865
C27   C     C_3   0.035500 0.389538 0.400582 -0.495492
C28   C     C_3   0.964483 0.609150 0.599710 -0.512884
C29   C     C_2   0.430769 0.042480 0.503279 -0.397617
C30   C     C_R   0.475355 0.499286 0.654318 0.832159
C31   C     C_R   0.523796 0.495453 0.345691 0.840142
C32   C     C_R   0.450231 0.456750 0.739299 -0.014969
C33   C     C_R   0.536087 0.455620 0.259025 -0.014479
C34   C     C_R   0.488840 0.305231 0.756094 -0.196116
H1    H     H_    0.546135 0.225464 0.706812 0.141219
H2    H     H_    0.299581 0.992573 0.509357 0.183292
H3    H     H_    0.704525 0.574784 0.908860 0.118350
H4    H     H_    0.953193 0.561116 0.794294 0.122248
H5    H     H_    0.106572 0.314415 0.761861 0.150112
H6    H     H_    0.022068 0.085756 0.849173 0.120951
H7    H     H_    0.773203 0.097164 0.963836 0.114073
H8    H     H_    0.273258 0.561542 0.099027 0.121355
H9    H     H_    0.021038 0.535606 0.211317 0.130480
H10   H     H_    0.846284 0.285494 0.225669 0.145186
H11   H     H_    0.914194 0.065517 0.123418 0.120899
H12   H     H_    0.674271 0.671055 0.218793 0.125640
H13   H     H_    0.166965 0.088781 0.011243 0.114011
H14   H     H_    0.938161 0.315235 0.373644 0.171762
H15   H     H_    0.083302 0.482872 0.356616 0.190788
H16   H     H_    0.137078 0.311230 0.408688 0.207234
H17   H     H_    0.061772 0.682721 0.627100 0.171188
H18   H     H_    0.862973 0.687849 0.591911 0.209682
H19   H     H_    0.916633 0.514863 0.643107 0.193473
H20   H     H_    0.414639 0.225094 0.281662 0.126366
H21   H     H_    0.333044 0.671849 0.788624 0.126199
H22   H     H_    0.285075 0.590667 0.932576 0.123665
H23   H     H_    0.451127 0.144073 0.134360 0.130124
H24   H     H_    0.702905 0.593775 0.071166 0.122827
H25   H     H_    0.489862 0.141060 0.849942 0.128301
H26   H     H_    0.700362 0.007509 0.490973 0.182694
N1    N     N_2   0.953500 0.457650 0.478520 -0.001118
N2    N     N_2   0.046500 0.542350 0.521480 0.001730
O1    O     O_R   0.388470 0.738640 0.505270 -0.604129
O2    O     O_R   0.611530 0.261360 0.494730 -0.606314
O3    O     O_R   0.679650 0.711510 0.491500 -0.630604
O4    O     O_R   0.320350 0.288490 0.508500 -0.631867
O5    O     O_R   0.337210 0.515200 0.623500 -0.616091
O6    O     O_R   0.662790 0.484800 0.376500 -0.617276
O7    O     O_R   0.628380 0.488060 0.609730 -0.625388
O8    O     O_R   0.371620 0.511940 0.390270 -0.624517
Zn1   Zn    Zn3+2 0.305580 0.518120 0.509190 0.931876
Zn2   Zn    Zn3+2 0.694420 0.481880 0.490810 0.930930

loop_
_geom_bond_atom_site_label_1
_geom_bond_atom_site_label_2
_ccdc_geom_bond_type
C27   H14   S    
O7    Zn2   S    
C2    C4    A    
C28   H19   S    
C31   C33   S    
C24   C25   A    
C5    C11   S    
O8    Zn1   S    
C9    H21   S    
C1    O1    A    
C12   C29   S    
O3    Zn2   S    
C11   C13   D    
C1    O3    A    
O4    Zn1   S    
C3    C34   A    
C27   H16   S    
O6    Zn2   S    
C7    C9    A    
N1    N2    D    
C6    C8    A    
C17   C18   A    
C19   H7    S    
C21   C22   A    
C2    H12   S    
C6    C13   S    
C30   C32   S    
C28   H18   S    
C29   H2    S    
C31   O6    A    
C30   O5    A    
C20   C26   A    
C7    H22   S    
C24   H10   S    
C23   C29   D    
C2    C33   A    
C4    C6    A    
O1    Zn1   S    
N2    Zn1   S    
C1    C23   S    
C10   C33   A    
O5    Zn1   S    
O2    Zn2   S    
C23   H26   S    
C8    H23   S    
C28   H17   S    
C22   C24   A    
C11   C20   S    
C3    H25   S    
C10   H20   S    
C15   C16   A    
C25   H11   S    
C30   O7    A    
C20   C21   A    
N1    Zn2   S    
C8    C10   A    
C34   H1    S    
C17   H5    S    
C4    H24   S    
C5    C7    A    
C12   O2    A    
C26   H13   S    
C14   C15   A    
C18   C19   A    
C18   H6    S    
C21   H8    S    
C27   N1    S    
C9    C32   A    
C16   H4    S    
C25   C26   A    
C13   C14   S    
C12   O4    A    
C14   C19   A    
C31   O8    A    
C15   H3    S    
C27   H15   S    
C32   C34   A    
C16   C17   A    
C3    C5    A    
C22   H9    S    
C28   N2    S    
