data_mof_unit_3734.cif
_audit_creation_date              2012-12-11T14:54:25-0500
_audit_creation_method            fapswitch 2.2
_symmetry_space_group_name_H-M    P1
_symmetry_Int_Tables_number       1
_space_group_crystal_system       triclinic
_cell_length_a                    18.885053
_cell_length_b                    10.955805
_cell_length_c                    18.856057
_cell_angle_alpha                 89.857029
_cell_angle_beta                  90.06751
_cell_angle_gamma                 89.909528
_cell_volume                      3901.31652295

loop_
_atom_site_label
_atom_site_type_symbol
_atom_type_description
_atom_site_fract_x
_atom_site_fract_y
_atom_site_fract_z
_atom_type_partial_charge
C1    C     C_R   0.731190 0.377416 0.646285 0.614690
C2    C     C_R   0.271587 0.373273 0.355566 0.583707
C3    C     C_R   0.231126 0.878260 0.646632 0.616857
C4    C     C_R   0.770571 0.875573 0.354300 0.587502
C5    C     C_3   0.567212 0.332283 0.445703 0.272068
C6    C     C_3   0.582569 0.331297 0.524395 0.275831
C7    C     C_3   0.072550 0.824693 0.444313 0.275891
C8    C     C_3   0.087954 0.824392 0.523033 0.277817
C9    C     C_R   0.678223 0.928715 0.526864 0.287513
C10   C     C_R   0.293785 0.866114 0.458888 0.284553
C11   C     C_R   0.185376 0.400801 0.533230 0.297951
C12   C     C_R   0.793265 0.347260 0.458835 0.279171
C13   C     C_R   0.687784 0.908439 0.454129 0.352786
C14   C     C_R   0.286496 0.837522 0.530877 0.398606
C15   C     C_R   0.192992 0.394586 0.459423 0.364256
C16   C     C_R   0.791296 0.331237 0.532657 0.385751
C17   C     C_R   0.756238 0.907918 0.426523 0.020139
C18   C     C_R   0.254262 0.921010 0.577464 0.016594
C19   C     C_R   0.260496 0.396664 0.429959 0.016040
C20   C     C_R   0.753627 0.414663 0.575733 0.033174
C21   C     C_R   0.815068 0.925135 0.470535 -0.204935
C22   C     C_R   0.232044 0.035104 0.553022 -0.232355
C23   C     C_R   0.320730 0.404091 0.473437 -0.209746
C24   C     C_R   0.723718 0.519055 0.546126 -0.225649
C25   C     C_R   0.806073 0.953307 0.540254 -0.160091
C26   C     C_R   0.237979 0.063355 0.481705 -0.196094
C27   C     C_R   0.313933 0.417895 0.545443 -0.175849
C28   C     C_R   0.724334 0.534221 0.473575 -0.179816
C29   C     C_R   0.737952 0.960567 0.568385 0.031163
C30   C     C_R   0.266796 0.978960 0.434363 0.002180
C31   C     C_R   0.246763 0.421691 0.575513 0.014964
C32   C     C_R   0.756073 0.446350 0.429615 0.009285
C33   C     C_R   0.521243 0.054664 0.969212 -0.098422
C34   C     C_R   0.515281 0.057795 0.041633 -0.123554
C35   C     C_R   0.034380 0.559302 0.972420 -0.092106
C36   C     C_R   0.025630 0.563142 0.044791 -0.125665
C37   C     C_R   0.496484 0.166367 0.075437 0.018556
C38   C     C_R   0.513522 0.161731 0.928867 0.035513
C39   C     C_R   0.998473 0.668249 0.076458 0.018515
C40   C     C_R   0.018345 0.661838 0.930397 0.043019
C41   C     C_R   0.489605 0.274851 0.035930 -0.138853
C42   C     C_R   0.498860 0.272676 0.962628 -0.146324
C43   C     C_R   0.986127 0.773687 0.035444 -0.136147
C44   C     C_R   0.996491 0.770600 0.962399 -0.143156
C45   C     C_R   0.531461 0.155883 0.646894 0.605914
C46   C     C_R   0.462505 0.154099 0.356416 0.553708
C47   C     C_R   0.031724 0.655926 0.646753 0.611642
C48   C     C_R   0.962574 0.654239 0.356338 0.562430
C49   C     C_R   0.778587 0.058737 0.979608 -0.162692
C50   C     C_R   0.183643 0.933867 0.042839 -0.121712
C51   C     C_R   0.290723 0.520842 0.972463 -0.151951
C52   C     C_R   0.684025 0.429837 0.043053 -0.125952
C53   C     C_R   0.786142 0.028829 0.050681 -0.190784
C54   C     C_R   0.178425 0.923635 0.970394 -0.171567
C55   C     C_R   0.291467 0.508141 0.044956 -0.196446
C56   C     C_R   0.678405 0.419090 0.970639 -0.170741
C57   C     C_R   0.746407 0.933073 0.080272 0.034156
C58   C     C_R   0.238688 0.897484 0.929276 0.041216
C59   C     C_R   0.249717 0.418720 0.077128 0.032612
C60   C     C_R   0.738991 0.399104 0.928820 0.040578
C61   C     C_R   0.693694 0.876173 0.039324 0.356140
C62   C     C_R   0.304040 0.876392 0.962247 0.345953
C63   C     C_R   0.201496 0.350128 0.036184 0.356009
C64   C     C_R   0.805361 0.385738 0.960850 0.340700
C65   C     C_R   0.685983 0.907156 0.968188 -0.097563
C66   C     C_R   0.309391 0.888370 0.035335 -0.105086
C67   C     C_R   0.200010 0.364821 0.963082 -0.108138
C68   C     C_R   0.811041 0.397474 0.033918 -0.104275
C69   C     C_R   0.730527 0.994904 0.937269 -0.035673
C70   C     C_R   0.249513 0.921295 0.075403 -0.029406
C71   C     C_R   0.246232 0.447438 0.930869 -0.028618
C72   C     C_R   0.750494 0.423224 0.074831 -0.027048
C73   C     C_R   0.730219 0.008283 0.639410 0.656737
C74   C     C_R   0.271710 0.015293 0.360301 0.560498
C75   C     C_R   0.240506 0.469814 0.646915 0.602100
C76   C     C_R   0.759879 0.474004 0.354529 0.579020
C77   C     C_R   0.728063 0.374545 0.854200 0.568939
C78   C     C_R   0.269604 0.378844 0.147793 0.570354
C79   C     C_R   0.227838 0.873835 0.854480 0.567377
C80   C     C_R   0.769442 0.880341 0.147947 0.570294
C81   C     C_R   0.534277 0.156459 0.854739 0.535603
C82   C     C_R   0.467969 0.157367 0.146717 0.556462
C83   C     C_R   0.035863 0.656277 0.855516 0.548969
C84   C     C_R   0.968248 0.657575 0.146938 0.555468
C85   C     C_R   0.727145 0.021652 0.861379 0.552132
C86   C     C_R   0.258626 0.969938 0.146068 0.566156
C87   C     C_R   0.240200 0.476051 0.856204 0.534978
C88   C     C_R   0.758826 0.470424 0.145869 0.557117
C89   C     C_R   0.475177 0.160090 0.431919 0.017207
C90   C     C_R   0.496557 0.169099 0.578654 0.043844
C91   C     C_R   0.975055 0.660927 0.431782 0.019453
C92   C     C_R   0.997718 0.669714 0.578180 0.044572
C93   C     C_R   0.500593 0.266205 0.462867 -0.003899
C94   C     C_R   0.513076 0.269084 0.535139 -0.028814
C95   C     C_R   0.004040 0.764927 0.462011 -0.005888
C96   C     C_R   0.016841 0.767797 0.534199 -0.028513
C97   C     C_R   0.458433 0.072029 0.549324 -0.134856
C98   C     C_R   0.448447 0.067236 0.476114 -0.134029
C99   C     C_R   0.956483 0.575801 0.549599 -0.142918
C100  C     C_R   0.944914 0.572131 0.476547 -0.136440
Cr1   Cr    Cr6+3 0.771950 0.169480 0.750100 1.097370
Cr2   Cr    Cr6+3 0.228050 0.169480 0.249900 1.123774
Cr3   Cr    Cr6+3 0.271950 0.669480 0.750100 1.102653
Cr4   Cr    Cr6+3 0.728050 0.669480 0.249900 1.123985
Cr5   Cr    Cr6+3 0.614930 0.323340 0.749170 1.019232
Cr6   Cr    Cr6+3 0.385070 0.323340 0.250830 1.036509
Cr7   Cr    Cr6+3 0.114930 0.823340 0.749170 1.030910
Cr8   Cr    Cr6+3 0.885070 0.823340 0.250830 1.041838
Cr9   Cr    Cr6+3 0.616590 0.010620 0.750610 1.042541
Cr10  Cr    Cr6+3 0.383410 0.010620 0.249390 1.033723
Cr11  Cr    Cr6+3 0.116590 0.510620 0.750610 1.060224
Cr12  Cr    Cr6+3 0.883410 0.510620 0.249390 1.033377
H1    H     H_    0.441810 0.995603 0.581678 0.115267
H2    H     H_    0.422046 0.989230 0.453696 0.121980
H3    H     H_    0.937760 0.501460 0.582476 0.119392
H4    H     H_    0.914256 0.498469 0.454581 0.123776
H5    H     H_    0.812184 0.128671 0.957066 0.184078
H6    H     H_    0.136804 0.958190 0.072852 0.171458
H7    H     H_    0.324606 0.589896 0.949271 0.195481
H8    H     H_    0.636844 0.449260 0.073728 0.163592
H9    H     H_    0.826255 0.075837 0.081281 0.152657
H10   H     H_    0.126503 0.935216 0.946823 0.156994
H11   H     H_    0.328021 0.563499 0.075349 0.152503
H12   H     H_    0.626005 0.425483 0.947565 0.155101
H13   H     H_    0.647334 0.858268 0.936789 0.156112
H14   H     H_    0.361071 0.879013 0.059772 0.159614
H15   H     H_    0.163319 0.311375 0.931756 0.148329
H16   H     H_    0.863235 0.393444 0.057724 0.164164
H17   H     H_    0.605096 0.279123 0.412795 0.169166
H18   H     H_    0.585246 0.422835 0.549416 0.150010
H19   H     H_    0.108782 0.767446 0.411874 0.180532
H20   H     H_    0.093123 0.916400 0.547087 0.149889
H21   H     H_    0.868887 0.917840 0.451040 0.164232
H22   H     H_    0.206858 0.099554 0.588474 0.128109
H23   H     H_    0.373692 0.400883 0.451616 0.169349
H24   H     H_    0.695614 0.584437 0.578702 0.128318
H25   H     H_    0.853023 0.971021 0.571641 0.175069
H26   H     H_    0.218787 0.150390 0.462814 0.138999
H27   H     H_    0.361172 0.430610 0.577280 0.149733
H28   H     H_    0.699526 0.615226 0.451709 0.174975
H29   H     H_    0.533726 0.967590 0.945252 0.166179
H30   H     H_    0.521233 0.972826 0.070610 0.173517
H31   H     H_    0.054423 0.475481 0.949600 0.161179
H32   H     H_    0.036320 0.481289 0.075407 0.168001
H33   H     H_    0.474313 0.359670 0.061060 0.143331
H34   H     H_    0.494270 0.356655 0.932536 0.131910
H35   H     H_    0.964841 0.855973 0.059026 0.146059
H36   H     H_    0.986304 0.851679 0.930994 0.134808
O1    O     O_R   0.787510 0.042610 0.670410 -0.494610
O2    O     O_R   0.212490 0.042610 0.329590 -0.459564
O3    O     O_R   0.287510 0.542610 0.670410 -0.477531
O4    O     O_R   0.712490 0.542610 0.329590 -0.493553
O5    O     O_R   0.556450 0.252890 0.823790 -0.519105
O6    O     O_R   0.443550 0.252890 0.176210 -0.498489
O7    O     O_R   0.056450 0.752890 0.823790 -0.519002
O8    O     O_R   0.943550 0.752890 0.176210 -0.500314
O9    O     O_R   0.545750 0.051070 0.830560 -0.525374
O10   O     O_R   0.454250 0.051070 0.169440 -0.515996
O11   O     O_R   0.045750 0.551070 0.830560 -0.512422
O12   O     O_R   0.954250 0.551070 0.169440 -0.515584
O13   O     O_R   0.681210 0.959150 0.825320 -0.511277
O14   O     O_R   0.318790 0.959150 0.174680 -0.512236
O15   O     O_R   0.181210 0.459150 0.825320 -0.523736
O16   O     O_R   0.818790 0.459150 0.174680 -0.515247
O17   O     O_3   0.667820 0.167810 0.749960 -0.297556
O18   O     O_3   0.332180 0.167810 0.250040 -0.306844
O19   O     O_3   0.167820 0.667810 0.749960 -0.263764
O20   O     O_3   0.832180 0.667810 0.250040 -0.288305
O21   O     O_R   0.765670 0.292090 0.675090 -0.441444
O22   O     O_R   0.234330 0.292090 0.324910 -0.478412
O23   O     O_R   0.265670 0.792090 0.675090 -0.434823
O24   O     O_R   0.734330 0.792090 0.324910 -0.465736
O25   O     O_R   0.670220 0.409020 0.668560 -0.519718
O26   O     O_R   0.329780 0.409020 0.331440 -0.531266
O27   O     O_R   0.170220 0.909020 0.668560 -0.526060
O28   O     O_R   0.829780 0.909020 0.331440 -0.532038
O29   O     O_R   0.556580 0.251590 0.674980 -0.491712
O30   O     O_R   0.443420 0.251590 0.325020 -0.487649
O31   O     O_R   0.056580 0.751590 0.674980 -0.492736
O32   O     O_R   0.943420 0.751590 0.325020 -0.485412
O33   O     O_R   0.545890 0.049670 0.670030 -0.485553
O34   O     O_R   0.454110 0.049670 0.329970 -0.514585
O35   O     O_R   0.045890 0.549670 0.670030 -0.478063
O36   O     O_R   0.954110 0.549670 0.329970 -0.510306
O37   O     O_R   0.681340 0.957860 0.676500 -0.480413
O38   O     O_R   0.318660 0.957860 0.323500 -0.470397
O39   O     O_R   0.181340 0.457860 0.676500 -0.458576
O40   O     O_R   0.818660 0.457860 0.323500 -0.491515
O41   O     O_R   0.787380 0.044010 0.830940 -0.496411
O42   O     O_R   0.212620 0.044010 0.169060 -0.467807
O43   O     O_R   0.287380 0.544010 0.830940 -0.517305
O44   O     O_R   0.712620 0.544010 0.169060 -0.474517
O45   O     O_R   0.765540 0.293390 0.823910 -0.473179
O46   O     O_R   0.234460 0.293390 0.176090 -0.427116
O47   O     O_R   0.265540 0.793390 0.823910 -0.456379
O48   O     O_R   0.734460 0.793390 0.176090 -0.425441
O49   O     O_R   0.670090 0.410410 0.829090 -0.540732
O50   O     O_R   0.329910 0.410410 0.170910 -0.536573
O51   O     O_R   0.170090 0.910410 0.829090 -0.548234
O52   O     O_R   0.829910 0.910410 0.170910 -0.540354
F1    F     F_    0.653072 0.784969 0.066143 -0.626653
F2    F     F_    0.362600 0.847875 0.923971 -0.638664
F3    F     F_    0.158716 0.264574 0.065791 -0.626849
F4    F     F_    0.864337 0.364124 0.921698 -0.632588
F5    F     F_    0.062252 0.941340 0.417878 -0.659868
F6    F     F_    0.141654 0.743252 0.539965 -0.613544
F7    F     F_    0.553475 0.448529 0.420251 -0.669939
F8    F     F_    0.638256 0.253716 0.540470 -0.644950
O53   O     O_3   0.611333 0.924432 0.557244 -0.505056
C101  C     C_3   0.578245 0.810352 0.544220 0.032893
H37   H     H_    0.614963 0.737899 0.524874 0.120848
H38   H     H_    0.536066 0.823274 0.503847 0.184871
C102  C     C_3   0.544744 0.762523 0.612152 -0.365296
H39   H     H_    0.503730 0.826636 0.631543 0.167823
H40   H     H_    0.519442 0.672845 0.601885 0.099549
H41   H     H_    0.585951 0.750643 0.653640 0.159940
O54   O     O_3   0.317243 0.779526 0.410299 -0.514710
C103  C     C_3   0.382916 0.727129 0.430490 0.032747
H42   H     H_    0.373358 0.636962 0.455391 0.211064
H43   H     H_    0.413812 0.783770 0.468413 0.098439
C104  C     C_3   0.428091 0.707386 0.364806 -0.341335
H44   H     H_    0.439458 0.796286 0.338897 0.182625
H45   H     H_    0.478983 0.663592 0.379992 0.171652
H46   H     H_    0.399919 0.647418 0.326705 0.175954
O55   O     O_3   0.118429 0.401075 0.563812 -0.496632
C105  C     C_3   0.079377 0.295808 0.544582 0.020983
H47   H     H_    0.112931 0.218404 0.526137 0.126665
H48   H     H_    0.041602 0.320157 0.501683 0.193366
C106  C     C_3   0.037360 0.250667 0.608179 -0.365284
H49   H     H_    0.000554 0.322668 0.626855 0.176880
H50   H     H_    0.006006 0.169024 0.593051 0.110760
H51   H     H_    0.074032 0.225532 0.651956 0.148363
O56   O     O_3   0.822919 0.261041 0.413463 -0.535070
C107  C     C_3   0.892429 0.227302 0.434086 0.029154
H52   H     H_    0.890700 0.141003 0.464747 0.200677
H53   H     H_    0.919615 0.296930 0.467044 0.108992
C108  C     C_3   0.937014 0.205627 0.368206 -0.341058
H54   H     H_    0.940334 0.290775 0.336348 0.180479
H55   H     H_    0.991325 0.177344 0.383906 0.166457
H56   H     H_    0.912999 0.132513 0.335390 0.178665
F9    F     F_    0.631129 0.890670 0.410890 -0.633640
F10   F     F_    0.302750 0.722916 0.553299 -0.613374
F11   F     F_    0.135183 0.388952 0.416583 -0.634391
F12   F     F_    0.819707 0.228410 0.561133 -0.650619

loop_
_geom_bond_atom_site_label_1
_geom_bond_atom_site_label_2
_ccdc_geom_bond_type
Cr2   O22   S    
C87   O15   A    
C58   C62   A    
C93   C94   A    
Cr10  O18   S    
C90   C94   A    
C55   C59   A    
Cr6   O26   S    
C34   C37   A    
C85   O13   A    
C41   C42   A    
C14   C18   A    
Cr5   O5    S    
C95   C96   A    
C8    C96   S    
C54   H10   S    
C6    H18   S    
C107  C108  S    
Cr9   O9    S    
C97   C98   A    
C84   O12   A    
C79   O47   A    
C7    C8    S    
Cr12  O36   S    
C46   C89   S    
C102  H39   S    
Cr3   O19   S    
C1    O25   A    
C50   C54   A    
C63   F3    S    
C22   H22   S    
C37   C41   A    
C56   H12   S    
Cr9   O13   S    
C87   O43   A    
C39   C84   S    
C38   C42   A    
C104  H46   S    
Cr1   O41   S    
C99   H3    S    
C5    C6    S    
C82   O10   A    
C49   C53   A    
C98   H2    S    
C83   O7    A    
C76   O4    A    
C85   O41   A    
Cr12  O20   S    
C33   H29   S    
C92   C96   A    
C81   O5    A    
Cr8   O32   S    
C3    C18   S    
C47   C92   S    
C4    O28   A    
Cr1   O1    S    
C30   C74   S    
C46   O30   A    
C62   F2    S    
C9    C13   A    
Cr7   O7    S    
C61   F1    S    
C14   F10   S    
C52   C56   A    
C11   C15   A    
C13   F9    S    
C12   C16   A    
C9    O53   S    
Cr6   O6    S    
C48   C91   S    
C28   H28   S    
C8    H20   S    
C51   H7    S    
Cr1   O21   S    
C86   O14   A    
C23   C27   A    
C91   C100  A    
Cr12  O12   S    
O56   C107  S    
C68   H16   S    
C90   C97   A    
C6    F8    S    
Cr10  O10   S    
C7    F5    S    
Cr6   O50   S    
Cr7   O31   S    
C24   H24   S    
Cr5   O49   S    
Cr8   O20   S    
C11   C31   A    
Cr2   O18   S    
C49   C69   A    
C108  H54   S    
C12   C32   A    
Cr3   O23   S    
C41   H33   S    
C26   C30   A    
C57   C80   S    
C40   C83   S    
Cr9   O17   S    
C107  H53   S    
C80   O48   A    
Cr2   O46   S    
C59   C78   S    
C21   H21   S    
C72   C88   S    
Cr1   O45   S    
O55   C105  S    
C55   H11   S    
C102  H40   S    
C25   C29   A    
C12   O56   S    
Cr12  O16   S    
O53   C101  S    
Cr7   O19   S    
C60   C77   S    
C86   O42   A    
C81   O9    A    
C62   C66   A    
C45   O33   A    
C20   C24   A    
C28   C32   A    
C79   O51   A    
C47   O35   A    
C10   C14   A    
C75   O3    A    
Cr3   O47   S    
C15   F11   S    
C53   C57   A    
C19   C23   A    
C39   C43   A    
C51   C55   A    
C6    C94   S    
O54   C103  S    
C88   O16   A    
C103  H43   S    
C27   C31   A    
C27   H27   S    
C25   H25   S    
C56   C60   A    
C68   C72   A    
C35   C36   A    
C65   H13   S    
Cr8   O52   S    
C15   C19   A    
C43   C44   A    
C63   C67   A    
Cr12  O40   S    
C106  H49   S    
C52   C72   A    
C67   H15   S    
C16   F12   S    
C104  H44   S    
C34   H30   S    
C10   C30   A    
C73   O37   A    
C99   C100  A    
Cr8   O8    S    
C5    F7    S    
C16   C20   A    
C77   O45   A    
Cr3   O3    S    
Cr11  O35   S    
C33   C34   A    
Cr4   O48   S    
C83   O11   A    
C23   H23   S    
C64   F4    S    
C8    F6    S    
C45   C90   S    
Cr10  O14   S    
C47   O31   A    
C58   C79   S    
C2    O22   A    
C70   C86   S    
C71   C87   S    
C4    C17   S    
C52   H8    S    
C101  H38   S    
C3    O27   A    
Cr2   O2    S    
C105  H47   S    
C105  H48   S    
C108  H55   S    
C38   C81   S    
C78   O46   A    
C49   H5    S    
C5    H17   S    
Cr3   O43   S    
C107  H52   S    
C97   H1    S    
C42   H34   S    
C64   C68   A    
C31   C75   S    
C48   O32   A    
C69   C85   S    
C11   O55   S    
C103  C104  S    
C48   O36   A    
C54   C58   A    
C102  H41   S    
Cr9   O33   S    
C59   C63   A    
C88   O44   A    
C21   C25   A    
Cr10  O38   S    
C1    C20   S    
C4    O24   A    
C80   O52   A    
C73   O1    A    
C2    C19   S    
C50   H6    S    
C7    H19   S    
C36   C39   A    
C75   O39   A    
C24   C28   A    
Cr5   O29   S    
C26   H26   S    
C76   O40   A    
C32   C76   S    
C5    C93   S    
Cr4   O20   S    
C51   C71   A    
C92   C99   A    
C57   C61   A    
C9    C29   A    
C106  H51   S    
C101  C102  S    
C7    C95   S    
Cr11  O39   S    
C33   C38   A    
Cr4   O24   S    
C89   C98   A    
C60   C64   A    
Cr9   O37   S    
C100  H4    S    
Cr4   O4    S    
C18   C22   A    
C35   C40   A    
C50   C70   A    
C104  H45   S    
Cr11  O15   S    
C53   H9    S    
Cr1   O17   S    
Cr7   O51   S    
C45   O29   A    
C84   O8    A    
C46   O34   A    
C103  H42   S    
C66   C70   A    
Cr7   O27   S    
Cr6   O18   S    
C65   C69   A    
Cr8   O28   S    
C1    O21   A    
Cr2   O42   S    
Cr5   O17   S    
C67   C71   A    
C61   C65   A    
C89   C93   A    
C37   C82   S    
C17   C21   A    
C43   H35   S    
Cr11  O19   S    
C91   C95   A    
C13   C17   A    
C82   O6    A    
C66   H14   S    
C40   C44   A    
C29   C73   S    
C105  C106  S    
Cr10  O34   S    
C106  H50   S    
C101  H37   S    
C22   C26   A    
C108  H56   S    
C74   O2    A    
Cr5   O25   S    
C78   O50   A    
C44   H36   S    
C36   H32   S    
C77   O49   A    
Cr6   O30   S    
C2    O26   A    
C3    O23   A    
C10   O54   S    
C35   H31   S    
C74   O38   A    
Cr11  O11   S    
Cr4   O44   S    
