data_mof_unit_1526.cif
_audit_creation_date              2012-12-11T15:09:37-0500
_audit_creation_method            fapswitch 2.2
_symmetry_space_group_name_H-M    P1
_symmetry_Int_Tables_number       1
_space_group_crystal_system       triclinic
_cell_length_a                    20.863326
_cell_length_b                    7.125968
_cell_length_c                    14.021989
_cell_angle_alpha                 89.945977
_cell_angle_beta                  97.931636
_cell_angle_gamma                 90.059619
_cell_volume                      2064.72370809

loop_
_atom_site_label
_atom_site_type_symbol
_atom_type_description
_atom_site_fract_x
_atom_site_fract_y
_atom_site_fract_z
_atom_type_partial_charge
O1    O     O_R   0.447130 0.507140 0.597350 -0.533987
O2    O     O_R   0.552870 0.007140 0.402650 -0.533194
O3    O     O_R   0.578910 0.181280 0.586990 -0.540478
O4    O     O_R   0.421090 0.681280 0.413010 -0.541088
C1    C     C_R   0.604533 0.344523 0.607273 0.755065
C2    C     C_R   0.395467 0.844465 0.392729 0.754878
O5    O     O_R   0.449230 0.177860 0.608640 -0.540295
O6    O     O_R   0.550770 0.677860 0.391360 -0.540639
O7    O     O_R   0.422260 0.000770 0.424450 -0.535460
O8    O     O_R   0.577740 0.500770 0.575550 -0.536251
C3    C     C_R   0.432967 0.346491 0.634935 0.763916
C4    C     C_R   0.567000 0.846769 0.365018 0.763284
O9    O     O_3   0.491310 0.336980 0.439550 -0.373070
O10   O     O_3   0.508690 0.836980 0.560450 -0.373686
V1    V     V_3+5 0.501610 0.064760 0.511210 1.501220
V2    V     V_3+5 0.498390 0.564760 0.488790 1.499060
C5    C     C_R   0.621592 0.951815 0.126227 -0.159931
C6    C     C_R   0.379027 0.436519 0.875637 -0.158723
H1    H     H_    0.707206 0.985183 0.004413 0.139463
H2    H     H_    0.293642 0.461371 0.998276 0.139271
H3    H     H_    0.600725 0.992555 0.054072 0.177505
H4    H     H_    0.400193 0.469778 0.948680 0.176922
C7    C     C_R   0.607051 0.860606 0.287693 -0.123031
C8    C     C_R   0.392874 0.359058 0.712201 -0.123239
C9    C     C_R   0.921320 0.831528 0.305171 -0.232454
C10   C     C_R   0.078485 0.343722 0.694258 -0.231297
C11   C     C_R   0.886208 0.843894 0.382184 0.460781
C12   C     C_R   0.113710 0.362082 0.617624 0.460965
C13   C     C_R   0.818582 0.872998 0.366383 0.194013
C14   C     C_R   0.181532 0.387162 0.634108 0.194251
C15   C     C_R   0.785596 0.878423 0.269329 -0.034892
C16   C     C_R   0.214525 0.381903 0.731149 -0.034812
C17   C     C_R   0.823814 0.885928 0.192379 0.026975
C18   C     C_R   0.176374 0.383169 0.808235 0.026524
C19   C     C_R   0.716535 0.882841 0.244874 0.112581
C20   C     C_R   0.283590 0.382004 0.755584 0.112981
C21   C     C_R   0.688792 0.930291 0.149555 0.068260
C22   C     C_R   0.311673 0.419597 0.851912 0.067831
C23   C     C_R   0.728022 0.951934 0.077633 -0.159240
C24   C     C_R   0.272599 0.435670 0.924347 -0.158896
C25   C     C_R   0.794122 0.923141 0.097790 -0.147062
C26   C     C_R   0.206316 0.410670 0.903599 -0.146567
C27   C     C_R   0.673718 0.832709 0.310050 -0.306228
C28   C     C_R   0.326003 0.336414 0.689193 -0.306415
C29   C     C_R   0.580896 0.923187 0.195755 0.386205
C30   C     C_R   0.419520 0.412191 0.805485 0.385922
C31   C     C_R   0.891393 0.859412 0.211335 -0.154921
C32   C     C_R   0.108610 0.361145 0.788677 -0.154522
H5    H     H_    0.690890 0.769617 0.378334 0.154844
H6    H     H_    0.308332 0.279969 0.619542 0.154185
H7    H     H_    0.973336 0.812477 0.319110 0.179630
H8    H     H_    0.026310 0.328832 0.679883 0.178526
H9    H     H_    0.821973 0.933948 0.038344 0.113984
H10   H     H_    0.178535 0.416736 0.963274 0.113131
C33   C     C_1   0.166486 0.857107 0.168605 -0.169425
C34   C     C_1   0.833511 0.357007 0.831403 -0.169391
C35   C     C_1   0.218844 0.854819 0.219848 0.019211
C36   C     C_1   0.781152 0.354807 0.780160 0.019799
C37   C     C_1   0.280584 0.853367 0.279888 0.020511
C38   C     C_1   0.719414 0.353483 0.720117 0.020717
C39   C     C_1   0.332995 0.851047 0.330989 -0.159117
C40   C     C_1   0.667005 0.351202 0.669013 -0.159378
O11   O     O_R   0.922300 0.202240 0.924350 -0.536255
O12   O     O_R   0.077700 0.702240 0.075650 -0.535952
O13   O     O_R   0.050780 0.535130 0.891350 -0.537316
O14   O     O_R   0.949220 0.035130 0.108650 -0.537608
C41   C     C_R   0.067581 0.368159 0.865386 0.725700
C42   C     C_R   0.932373 0.867868 0.134561 0.725412
O15   O     O_R   0.921100 0.531560 0.912990 -0.537109
O16   O     O_R   0.078900 0.031560 0.087010 -0.537462
O17   O     O_R   0.947120 0.708470 0.097370 -0.537121
O18   O     O_R   0.052880 0.208470 0.902630 -0.537088
C43   C     C_R   0.895903 0.363507 0.893362 0.716334
C44   C     C_R   0.104094 0.863557 0.106640 0.716634
O19   O     O_3   0.008710 0.375800 0.060400 -0.372779
O20   O     O_3   0.991290 0.875800 0.939600 -0.372523
V3    V     V_3+5 0.998380 0.648080 0.988790 1.472625
V4    V     V_3+5 0.001620 0.148080 0.011210 1.471254
Cl1   Cl    Cl    0.497207 0.961516 0.164967 -0.631852
Cl2   Cl    Cl    0.503513 0.443429 0.837102 -0.632364
N1    N     N_2   0.787994 0.933651 0.446131 -0.509829
H11   H     H_    0.752433 0.034668 0.434240 0.258028
C45   C     C_3   0.784214 0.804257 0.525200 -0.436645
H12   H     H_    0.733157 0.787162 0.537863 0.145963
H13   H     H_    0.811939 0.862231 0.591914 0.238917
H14   H     H_    0.803777 0.663732 0.510465 0.213045
N2    N     N_2   0.212563 0.454850 0.556071 -0.509678
H15   H     H_    0.248845 0.553287 0.570632 0.258481
C46   C     C_3   0.215442 0.333644 0.473621 -0.436949
H16   H     H_    0.266388 0.315918 0.460602 0.146188
H17   H     H_    0.188249 0.399484 0.408554 0.238529
H18   H     H_    0.194773 0.192583 0.484487 0.213484
Cl3   Cl    Cl    0.930729 0.843138 0.498571 -0.572839
Cl4   Cl    Cl    0.069209 0.374968 0.501417 -0.573949

loop_
_geom_bond_atom_site_label_1
_geom_bond_atom_site_label_2
_ccdc_geom_bond_type
O14   C42   A    
N2    H15   S    
C7    C29   A    
C11   C13   A    
O12   V3    S    
O15   V3    S    
O1    C3    A    
O2    C4    A    
C2    O7    A    
N1    H11   S    
C23   C25   A    
O5    C3    A    
C4    C7    S    
C16   C20   A    
C2    C39   S    
C12   Cl4   S    
C19   C21   A    
C5    C29   A    
H2    C24   S    
C35   C37   S    
O16   V4    S    
C36   C38   S    
C3    C8    S    
C7    C27   A    
C38   C40   T    
C41   O18   A    
O18   V4    S    
C33   C44   S    
O13   C41   A    
C18   C26   A    
O16   C44   A    
C15   C17   A    
O15   C43   A    
C46   H17   S    
C19   C27   A    
C9    C31   A    
C10   C32   A    
C24   C26   A    
O6    V2    S    
C22   C24   A    
C14   N2    S    
C6    C30   A    
N1    C45   S    
O14   V4    S    
C37   C39   T    
O13   V3    S    
O20   V3    S    
O4    C2    A    
C27   H5    S    
O5    V1    S    
O11   C43   A    
C5    H3    S    
C16   C18   A    
O4    V2    S    
C9    H7    S    
C13   N1    S    
C10   H8    S    
C45   H12   S    
O6    C4    A    
C29   Cl1   S    
O1    V2    S    
C5    C21   A    
C46   H18   S    
O2    V1    S    
O19   V3    S    
C25   H9    S    
H1    C23   S    
C45   H13   S    
C33   C35   T    
C17   C31   A    
C15   C19   A    
C20   C28   A    
C18   C32   A    
C31   C42   S    
O17   V3    S    
O3    V1    S    
C28   H6    S    
C34   C43   S    
C6    H4    S    
O20   V4    S    
O3    C1    A    
C9    C11   A    
C10   C12   A    
C8    C30   A    
C12   C14   A    
C6    C22   A    
C17   C25   A    
C1    O8    A    
C21   C23   A    
O8    V2    S    
C26   H10   S    
C14   C16   A    
C42   O17   A    
C8    C28   A    
C20   C22   A    
C34   C36   T    
C1    C40   S    
C32   C41   S    
O7    V1    S    
O19   V4    S    
C11   Cl3   S    
C45   H14   S    
C13   C15   A    
O9    V2    S    
N2    C46   S    
O12   C44   A    
O10   V1    S    
C30   Cl2   S    
C46   H16   S    
O11   V4    S    
