data_mof_unit_4867.cif
_audit_creation_date              2012-12-10T17:37:16-0500
_audit_creation_method            fapswitch 2.2
_symmetry_space_group_name_H-M    P1
_symmetry_Int_Tables_number       1
_space_group_crystal_system       triclinic
_cell_length_a                    12.327726
_cell_length_b                    13.169934
_cell_length_c                    15.847858
_cell_angle_alpha                 77.897464
_cell_angle_beta                  101.091113
_cell_angle_gamma                 116.575873
_cell_volume                      2235.64485219

loop_
_atom_site_label
_atom_site_type_symbol
_atom_type_description
_atom_site_fract_x
_atom_site_fract_y
_atom_site_fract_z
_atom_type_partial_charge
C1    C     C_R   0.854852 0.286606 0.506697 0.770594
C2    C     C_3   0.998292 0.497847 0.917192 0.125852
C3    C     C_3   0.106655 0.580393 0.029850 -0.204936
C4    C     C_3   0.999980 0.499243 0.083091 0.147007
C5    C     C_3   0.012178 0.598980 0.957402 0.315474
C6    C     C_3   0.905824 0.520553 0.011097 -0.161524
C7    C     C_1   0.997927 0.498526 0.825278 -0.062041
C8    C     C_1   0.000713 0.499433 0.174858 -0.055949
C9    C     C_R   0.271802 0.023716 0.389701 -0.183556
C10   C     C_R   0.227831 0.834920 0.469779 -0.046768
C11   C     C_R   0.815619 0.083825 0.556735 -0.190637
C12   C     C_R   0.999390 0.499701 0.659936 0.822192
C13   C     C_R   0.737135 0.968400 0.570528 -0.145724
C14   C     C_R   0.613627 0.931513 0.541146 -0.178329
C15   C     C_R   0.566196 0.009876 0.494035 0.078276
C16   C     C_R   0.649393 0.124859 0.470592 0.064109
C17   C     C_R   0.439241 0.977538 0.468764 0.060057
C18   C     C_R   0.398061 0.056692 0.413572 0.107579
C19   C     C_R   0.484008 0.165775 0.382140 -0.052795
C20   C     C_R   0.607614 0.197380 0.408800 -0.241599
C21   C     C_R   0.351629 0.868834 0.498307 -0.242483
C22   C     C_R   0.187609 0.913381 0.416975 -0.198676
C23   C     C_R   0.145110 0.713492 0.487451 0.792733
C24   C     C_R   0.772788 0.163615 0.508805 -0.091936
C25   C     C_R   0.345043 0.326890 0.636614 -0.299255
C26   C     C_R   0.760253 0.645963 0.383768 0.082902
C27   C     C_R   0.664011 0.677807 0.358337 -0.248157
C28   C     C_R   0.560140 0.622565 0.401897 -0.177241
C29   C     C_R   0.551372 0.534322 0.472001 -0.001068
C30   C     C_R   0.652682 0.504862 0.495879 0.288431
C31   C     C_R   0.446690 0.474671 0.519457 -0.034967
C32   C     C_R   0.445574 0.386876 0.589038 0.175226
C33   C     C_R   0.545023 0.359732 0.611272 -0.278758
C34   C     C_R   0.000470 0.500108 0.340070 0.818109
C35   C     C_R   0.646429 0.417872 0.566196 -0.175904
C36   C     C_R   0.342327 0.498015 0.501450 0.027702
C37   C     C_R   0.245717 0.354108 0.615668 0.074682
C38   C     C_3   0.985815 0.395460 0.044571 -0.138463
C39   C     C_3   0.892261 0.417000 0.970881 -0.198836
C40   C     C_1   0.998264 0.499164 0.749613 -0.177476
C41   C     C_1   0.000927 0.499707 0.250452 -0.177694
C42   C     C_3   0.091878 0.476490 0.989512 -0.197047
Cu1   Cu    Cu3+1 0.098270 0.475420 0.519690 0.938052
Cu2   Cu    Cu3+1 0.901730 0.524580 0.480310 0.927349
H1    H     H_    0.804961 0.349783 0.945641 0.141247
H2    H     H_    0.377105 0.807815 0.543677 0.147802
H3    H     H_    0.909773 0.110871 0.585189 0.152330
H4    H     H_    0.558623 0.840650 0.554669 0.129107
H5    H     H_    0.771553 0.907355 0.606619 0.146253
H6    H     H_    0.670789 0.278777 0.378416 0.181034
H7    H     H_    0.167693 0.308117 0.652059 0.121832
H8    H     H_    0.544978 0.293073 0.664732 0.151260
H9    H     H_    0.343452 0.259538 0.689796 0.135880
H10   H     H_    0.335148 0.563144 0.449799 0.123830
H11   H     H_    0.840559 0.689362 0.349619 0.123399
H12   H     H_    0.974933 0.310972 0.082329 0.138084
H13   H     H_    0.488465 0.650718 0.379422 0.134693
H14   H     H_    0.669946 0.745553 0.304678 0.142572
H15   H     H_    0.718291 0.391802 0.589430 0.206150
H16   H     H_    0.830350 0.539626 0.020758 0.133484
H17   H     H_    0.193773 0.648328 0.054538 0.135855
H18   H     H_    0.167416 0.457749 0.979490 0.147578
H19   H     H_    0.091700 0.888361 0.394263 0.148587
H20   H     H_    0.237461 0.081819 0.347988 0.147956
N1    N     N_R   0.246280 0.438200 0.549540 -0.180625
N2    N     N_R   0.754330 0.561180 0.450980 -0.206792
O1    O     O_R   0.972510 0.318130 0.524770 -0.580954
O2    O     O_R   0.806530 0.359650 0.491510 -0.604894
O3    O     O_R   0.082970 0.479240 0.637550 -0.575857
O4    O     O_R   0.916990 0.520750 0.604290 -0.590092
O5    O     O_R   0.193470 0.640350 0.508490 -0.588846
O6    O     O_R   0.027490 0.681870 0.475230 -0.587518
O7    O     O_R   0.083010 0.479250 0.395710 -0.572909
O8    O     O_R   0.917030 0.520760 0.362450 -0.586442
N3    N     N_2   0.026807 0.708797 0.907405 -0.428273
H21   H     H_    0.095744 0.741602 0.867933 0.249025
C43   C     C_3   0.032173 0.791815 0.956845 -0.705836
H22   H     H_    0.037696 0.870866 0.912367 0.229058
H23   H     H_    0.114099 0.814189 0.005700 0.219503
H24   H     H_    0.948705 0.757310 0.990125 0.234409
C44   C     C_1   0.448579 0.248315 0.322848 0.224695
N4    N     N_1   0.420458 0.314566 0.275571 -0.291090

loop_
_geom_bond_atom_site_label_1
_geom_bond_atom_site_label_2
_ccdc_geom_bond_type
Cu1   O7    S    
C12   O3    A    
C3    C42   S    
C5    N3    S    
C9    H20   S    
Cu2   N2    S    
C19   C20   A    
C4    C8    S    
C26   H11   S    
C44   N4    T    
C28   H13   S    
C10   C22   A    
C33   H8    S    
C26   C27   A    
C30   C35   A    
C28   C29   A    
C25   H9    S    
C38   C42   S    
C5    C6    S    
C37   H7    S    
C9    C22   A    
C15   C16   A    
C11   C24   A    
C1    O2    A    
C35   H15   S    
C18   C19   A    
N3    H21   S    
C25   C37   A    
C22   H19   S    
C11   H3    S    
C2    C39   S    
C2    C7    S    
C37   N1    A    
C20   H6    S    
C7    C40   T    
Cu2   O4    S    
C42   H18   S    
C16   C20   A    
C39   H1    S    
C25   C32   A    
C43   H23   S    
C16   C24   A    
C13   C14   A    
C34   C41   S    
C3    H17   S    
C10   C21   A    
C26   N2    A    
C6    H16   S    
C8    C41   T    
C4    C6    S    
C36   N1    A    
C14   H4    S    
C43   H22   S    
C17   C21   A    
C12   C40   S    
Cu1   Cu2   S    
C29   C30   A    
C23   O5    A    
C31   C32   A    
C14   C15   A    
Cu1   N1    S    
C17   C18   A    
Cu2   O8    S    
N3    C43   S    
C30   N2    A    
C34   O8    A    
C13   H5    S    
Cu1   O1    S    
C4    C38   S    
Cu2   O2    S    
C2    C5    S    
C3    C4    S    
C21   H2    S    
C43   H24   S    
C15   C17   A    
C12   O4    A    
Cu1   O5    S    
C31   C36   A    
C23   O6    A    
C3    C5    S    
C27   H14   S    
C1    O1    A    
C10   C23   S    
C32   C33   A    
C29   C31   A    
C11   C13   A    
C38   C39   S    
C2    C42   S    
C33   C35   A    
Cu2   O6    S    
C36   H10   S    
C34   O7    A    
C9    C18   A    
C38   H12   S    
C1    C24   S    
Cu1   O3    S    
C27   C28   A    
C6    C39   S    
C19   C44   S    
