data_mof_unit_4978.cif
_audit_creation_date              2012-12-11T14:13:25-0500
_audit_creation_method            fapswitch 2.2
_symmetry_space_group_name_H-M    P1
_symmetry_Int_Tables_number       1
_space_group_crystal_system       triclinic
_cell_length_a                    11.697095
_cell_length_b                    18.390317
_cell_length_c                    10.156097
_cell_angle_alpha                 89.998887
_cell_angle_beta                  110.690021
_cell_angle_gamma                 89.997537
_cell_volume                      2043.80969176

loop_
_atom_site_label
_atom_site_type_symbol
_atom_type_description
_atom_site_fract_x
_atom_site_fract_y
_atom_site_fract_z
_atom_type_partial_charge
C1    C     C_R   0.073199 0.645930 0.140405 0.530676
C2    C     C_2   0.592941 0.074093 0.076312 -0.118406
C3    C     C_2   0.633770 0.440231 0.007739 -0.130377
C4    C     C_2   0.407069 0.574114 0.923612 -0.118395
C5    C     C_2   0.460155 0.976626 0.079747 -0.155069
C6    C     C_2   0.478910 0.052349 0.049859 -0.171535
C7    C     C_2   0.539850 0.476634 0.920229 -0.155027
C8    C     C_2   0.521100 0.552354 0.950127 -0.171467
C9    C     C_2   0.118385 0.942095 0.151512 0.053503
C10   C     C_2   0.984452 0.073978 0.882790 0.045713
C11   C     C_2   0.881622 0.442090 0.848463 0.053377
C12   C     C_R   0.867507 0.361812 0.840912 0.521286
C13   C     C_2   0.015467 0.574017 0.117268 0.045645
C14   C     C_2   0.110640 0.978061 0.033329 -0.148526
C15   C     C_2   0.069727 0.054990 0.005841 -0.159915
C16   C     C_2   0.889475 0.478058 0.966674 -0.148642
C17   C     C_2   0.930414 0.554983 0.994108 -0.159906
C18   C     C_R   0.470134 0.645566 0.437868 0.529833
C19   C     C_R   0.524924 0.350109 0.553308 0.511187
C20   C     C_R   0.529850 0.145580 0.562095 0.529755
C21   C     C_R   0.475059 0.850117 0.446680 0.511229
C22   C     C_R   0.376489 0.644788 0.964924 0.567524
C23   C     C_R   0.926814 0.145928 0.859611 0.530564
C24   C     C_R   0.647481 0.362241 0.991973 0.526677
C25   C     C_R   0.623516 0.144782 0.035064 0.567511
C26   C     C_R   0.352506 0.862242 0.008042 0.526592
C27   C     C_R   0.480235 0.417716 0.473923 -0.021932
C28   C     C_R   0.496750 0.569669 0.485802 -0.008063
C29   C     C_R   0.519675 0.917746 0.526000 -0.022183
C30   C     C_R   0.503181 0.069704 0.514069 -0.008212
C31   C     C_R   0.292730 0.425816 0.534057 -0.104913
C32   C     C_R   0.681249 0.556526 0.411076 -0.045700
C33   C     C_R   0.707202 0.925822 0.465892 -0.104689
C34   C     C_R   0.132488 0.861812 0.159082 0.521322
C35   C     C_R   0.318616 0.056617 0.588656 -0.045588
C36   C     C_R   0.220317 0.464598 0.592002 -0.092530
C37   C     C_R   0.759673 0.512071 0.369933 -0.146844
C38   C     C_R   0.779533 0.964568 0.407780 -0.092312
C39   C     C_R   0.240182 0.012209 0.629861 -0.146676
C40   C     C_R   0.238266 0.539067 0.614869 0.076369
C41   C     C_R   0.739876 0.437168 0.357338 0.050769
C42   C     C_R   0.761606 0.039040 0.384908 0.076476
C43   C     C_R   0.259946 0.937305 0.642536 0.050687
C44   C     C_R   0.337399 0.571961 0.593429 -0.077818
C45   C     C_R   0.392614 0.458900 0.509315 0.017052
C46   C     C_R   0.630672 0.410223 0.361525 -0.078668
C47   C     C_R   0.662534 0.071969 0.406448 -0.077477
C48   C     C_R   0.369102 0.910304 0.638271 -0.078607
C49   C     C_R   0.410180 0.533937 0.530961 -0.013505
C50   C     C_R   0.559034 0.452209 0.418420 -0.016082
C51   C     C_R   0.589747 0.033957 0.468924 -0.013435
C52   C     C_R   0.440804 0.952259 0.581402 -0.016130
C53   C     C_2   0.151501 0.584192 0.654758 0.585887
C54   C     C_2   0.838009 0.385461 0.360516 0.623398
C55   C     C_2   0.848426 0.084141 0.345077 0.585686
C56   C     C_R   0.578434 0.527424 0.437723 0.041473
C57   C     C_2   0.161801 0.885661 0.639578 0.623008
C58   C     C_2   0.926792 0.018870 0.776248 0.601722
C59   C     C_2   0.112009 0.980996 0.275633 0.602870
C60   C     C_2   0.072801 0.518962 0.224044 0.601777
C61   C     C_2   0.887876 0.480984 0.724278 0.602768
C62   C     C_R   0.607310 0.958921 0.490609 0.016673
C63   C     C_R   0.421439 0.027477 0.562077 0.041386
C64   C     C_2   0.366242 0.940229 0.992240 -0.130405
Cr1   Cr    Cr6+3 0.187610 0.750000 0.979860 1.068502
Cr2   Cr    Cr6+3 0.812390 0.250000 0.020140 1.068368
Cr3   Cr    Cr6+3 0.245810 0.750000 0.341640 1.120077
Cr4   Cr    Cr6+3 0.754190 0.250000 0.658360 1.120170
Cr5   Cr    Cr6+3 0.485760 0.750000 0.219910 1.014207
Cr6   Cr    Cr6+3 0.514240 0.250000 0.780090 1.014170
H1    H     H_    0.147018 0.436620 0.611198 0.191217
H2    H     H_    0.530700 0.948591 0.164195 0.172716
H3    H     H_    0.598361 0.587555 0.003342 0.154645
H4    H     H_    0.469295 0.448604 0.835793 0.172702
H5    H     H_    0.666218 0.035060 0.116451 0.155847
H6    H     H_    0.297556 0.969144 0.908199 0.116253
H7    H     H_    0.333775 0.535106 0.883349 0.155757
H8    H     H_    0.702473 0.469136 0.091760 0.116260
H9    H     H_    0.104583 0.096180 0.086383 0.170497
H10   H     H_    0.115111 0.946925 0.944684 0.178440
H11   H     H_    0.895825 0.596128 0.913430 0.170620
H12   H     H_    0.841463 0.535499 0.360863 0.170755
H13   H     H_    0.884999 0.446928 0.055328 0.178337
H14   H     H_    0.056608 0.598718 0.783498 0.368361
H15   H     H_    0.997560 0.367628 0.333247 0.334892
H16   H     H_    0.943259 0.098682 0.216276 0.368519
H17   H     H_    0.002275 0.867983 0.667036 0.335220
H18   H     H_    0.268134 0.369673 0.505821 0.139875
H19   H     H_    0.713298 0.611410 0.438825 0.180621
H20   H     H_    0.731833 0.869689 0.494219 0.139896
H21   H     H_    0.286597 0.111504 0.560839 0.180567
H22   H     H_    0.840983 0.921546 0.733126 0.329587
H23   H     H_    0.852811 0.936572 0.388559 0.191087
H24   H     H_    0.039556 0.984188 0.427342 0.353195
H25   H     H_    0.158164 0.421519 0.267397 0.329806
H26   H     H_    0.960281 0.484209 0.572532 0.353319
H27   H     H_    0.158396 0.035669 0.638916 0.170412
H28   H     H_    0.358288 0.627380 0.629715 0.144370
H29   H     H_    0.608946 0.353396 0.336342 0.154296
H30   H     H_    0.641693 0.127403 0.370226 0.144328
H31   H     H_    0.390787 0.853475 0.663495 0.154390
H32   H     H_    0.401645 0.087569 0.996728 0.154613
O1    O     O_R   0.267710 0.668200 0.902110 -0.467526
O2    O     O_R   0.883280 0.330790 0.732340 -0.426027
O3    O     O_R   0.883280 0.169210 0.732340 -0.445332
O4    O     O_R   0.116720 0.830790 0.267660 -0.426006
O5    O     O_R   0.366710 0.675440 0.427590 -0.489024
O6    O     O_R   0.633290 0.324560 0.572410 -0.507392
O7    O     O_R   0.633290 0.175440 0.572410 -0.488921
O8    O     O_R   0.366710 0.824560 0.427590 -0.507485
O9    O     O_R   0.534870 0.669390 0.371760 -0.533836
O10   O     O_R   0.465130 0.330610 0.628240 -0.537570
O11   O     O_R   0.465130 0.169390 0.628240 -0.533856
O12   O     O_R   0.732290 0.331800 0.097890 -0.491964
O13   O     O_R   0.534870 0.830610 0.371760 -0.537535
O14   O     O_R   0.453080 0.674480 0.075160 -0.494239
O15   O     O_R   0.546920 0.325520 0.924840 -0.490733
O16   O     O_R   0.546920 0.174480 0.924840 -0.494224
O17   O     O_R   0.453080 0.825520 0.075160 -0.490709
O18   O     O_3   0.306390 0.750000 0.180470 -0.313940
O19   O     O_3   0.693610 0.250000 0.819530 -0.313902
O20   O     O_2   0.120108 0.643446 0.598941 -0.450053
O21   O     O_R   0.110083 0.561026 0.760775 -0.687782
O22   O     O_2   0.832914 0.322159 0.395423 -0.453019
O23   O     O_R   0.732290 0.168200 0.097890 -0.467549
O24   O     O_R   0.937171 0.408332 0.325955 -0.698537
O25   O     O_2   0.879930 0.143358 0.401010 -0.450091
O26   O     O_R   0.889782 0.060993 0.238996 -0.687767
O27   O     O_2   0.166790 0.822333 0.604763 -0.452905
O28   O     O_R   0.062715 0.908637 0.674186 -0.698680
O29   O     O_2   0.929047 0.026636 0.658400 -0.501527
O30   O     O_R   0.871582 0.958208 0.811823 -0.682774
O31   O     O_2   0.161213 0.040085 0.309038 -0.576670
O32   O     O_R   0.047672 0.950010 0.353432 -0.646150
O33   O     O_2   0.069778 0.526676 0.341557 -0.501870
O34   O     O_R   0.267710 0.831800 0.902110 -0.491888
O35   O     O_R   0.128478 0.458365 0.188979 -0.682865
O36   O     O_2   0.838525 0.540032 0.690806 -0.576631
O37   O     O_R   0.952238 0.450029 0.646477 -0.646185
O38   O     O_R   0.099480 0.674460 0.038850 -0.510959
O39   O     O_R   0.900520 0.325540 0.961150 -0.508890
O40   O     O_R   0.900520 0.174460 0.961150 -0.510966
O41   O     O_R   0.099480 0.825540 0.038850 -0.508755
O42   O     O_R   0.116720 0.669210 0.267660 -0.445514

loop_
_geom_bond_atom_site_label_1
_geom_bond_atom_site_label_2
_ccdc_geom_bond_type
C44   C49   A    
C46   H29   S    
Cr5   O14   S    
C24   O12   A    
C21   O13   A    
C25   O16   A    
H26   O37   S    
C21   O8    A    
C28   C56   A    
C7    C8    S    
Cr2   O39   S    
C20   C30   S    
C19   O10   A    
H14   O21   S    
C54   O24   S    
C24   O15   A    
C5    C6    S    
H17   O28   S    
C57   O27   D    
H22   O30   S    
C30   C51   A    
C38   C42   A    
C5    H2    S    
C3    C7    D    
C10   C15   D    
C20   O11   A    
Cr1   O41   S    
C61   O36   D    
C39   H27   S    
Cr6   O15   S    
C23   O3    A    
C12   O39   A    
C11   C16   D    
C26   C64   S    
C18   O5    A    
C25   O23   A    
Cr1   O38   S    
C44   H28   S    
C15   H9    S    
C58   O30   S    
C33   C62   A    
C41   C46   A    
C23   O40   A    
C14   H10   S    
C19   C27   S    
Cr3   O18   S    
C27   C50   A    
C4    C8    D    
C60   O35   S    
Cr4   O7    S    
C19   O6    A    
C27   C45   A    
C22   O14   A    
C30   C63   A    
H15   O24   S    
C2    C6    D    
C51   C62   A    
Cr3   O42   S    
C7    H4    S    
Cr6   O11   S    
C34   O41   A    
H25   O35   S    
H16   O26   S    
C34   O4    A    
C57   O28   S    
C36   C40   A    
C18   C28   S    
C26   O17   A    
C53   O21   S    
C13   C60   S    
C43   C57   S    
C61   O37   S    
C39   C43   A    
C21   C29   S    
Cr5   O17   S    
C16   H13   S    
C50   C56   A    
C47   H30   S    
C5    C64   D    
C9    C59   S    
C35   C39   A    
C9    C14   D    
C42   C55   S    
C4    C22   S    
C28   C49   A    
Cr3   O8    S    
C32   H19   S    
C45   C49   A    
C58   O29   D    
C64   H6    S    
Cr2   O19   S    
C32   C37   A    
C18   O9    A    
C60   O33   D    
C1    O38   A    
Cr6   O10   S    
C55   O25   D    
C9    C34   S    
C37   H12   S    
C1    C13   S    
Cr4   O3    S    
Cr1   O1    S    
C43   C48   A    
C54   O22   D    
C29   C62   A    
Cr5   O13   S    
C31   H18   S    
Cr2   O12   S    
C10   C58   S    
C31   C36   A    
Cr4   O2    S    
C3    C24   S    
C11   C61   S    
C52   C63   A    
Cr4   O19   S    
C47   C51   A    
C11   C12   S    
C36   H1    S    
Cr3   O4    S    
C12   O2    A    
Cr2   O40   S    
C10   C23   S    
C46   C50   A    
Cr5   O18   S    
C33   C38   A    
Cr2   O23   S    
C13   C17   D    
C53   O20   D    
C4    H7    S    
C1    O42   A    
C33   H20   S    
Cr5   O9    S    
Cr6   O19   S    
Cr3   O5    S    
C16   C17   S    
Cr6   O16   S    
C48   H31   S    
C38   H23   S    
C8    H3    S    
H24   O32   S    
Cr1   O18   S    
C59   O31   D    
C2    C25   S    
C17   H11   S    
C42   C47   A    
C6    H32   S    
C37   C41   A    
C41   C54   S    
Cr1   O34   S    
C26   O34   A    
C22   O1    A    
C20   O7    A    
C40   C44   A    
C55   O26   S    
C40   C53   S    
C31   C45   A    
C14   C15   S    
C35   C63   A    
Cr4   O6    S    
C48   C52   A    
C3    H8    S    
C32   C56   A    
C2    H5    S    
C59   O32   S    
C29   C52   A    
C35   H21   S    
