data_mof_unit_4511.cif
_audit_creation_date              2012-12-10T17:12:37-0500
_audit_creation_method            fapswitch 2.2
_symmetry_space_group_name_H-M    P1
_symmetry_Int_Tables_number       1
_space_group_crystal_system       triclinic
_cell_length_a                    23.10715
_cell_length_b                    10.726316
_cell_length_c                    10.217228
_cell_angle_alpha                 90.609488
_cell_angle_beta                  89.921427
_cell_angle_gamma                 90.550378
_cell_volume                      2532.12473821

loop_
_atom_site_label
_atom_site_type_symbol
_atom_type_description
_atom_site_fract_x
_atom_site_fract_y
_atom_site_fract_z
_atom_type_partial_charge
C1    C     C_R   0.503469 0.263541 0.498966 0.869310
C2    C     C_R   0.970461 0.279873 0.295532 -0.073121
C3    C     C_R   0.030013 0.280716 0.315559 0.480396
C4    C     C_R   0.058014 0.390273 0.364661 -0.128266
C5    C     C_R   0.024735 0.497783 0.393307 -0.091945
C6    C     C_R   0.050944 0.607057 0.446160 -0.175541
C7    C     C_R   0.016137 0.713231 0.473934 0.335247
C8    C     C_R   0.959242 0.716907 0.423610 0.340548
C9    C     C_R   0.118117 0.397217 0.384376 0.567216
C10   C     C_R   0.111398 0.606616 0.464884 0.625154
C11   C     C_R   0.238233 0.580469 0.384882 -0.151010
C12   C     C_R   0.388909 0.502049 0.499280 1.013495
C13   C     C_R   0.297660 0.587609 0.402986 0.297756
C14   C     C_R   0.324799 0.506366 0.493291 -0.387005
C15   C     C_R   0.289649 0.423688 0.568348 0.338412
C16   C     C_R   0.228881 0.429125 0.558605 0.436571
C17   C     C_R   0.203800 0.504098 0.461822 0.023604
C18   C     C_R   0.755523 0.343353 0.442387 0.435285
C19   C     C_R   0.695496 0.361646 0.446372 0.372609
C20   C     C_R   0.673327 0.476292 0.496729 -0.396420
C21   C     C_R   0.712061 0.563893 0.553700 0.280548
C22   C     C_R   0.771227 0.539230 0.551659 0.398808
C23   C     C_R   0.498744 0.736314 0.501014 0.847282
C24   C     C_R   0.792272 0.447360 0.463979 -0.186233
C25   C     C_2   0.520319 0.930617 0.408505 -0.139179
C26   C     C_2   0.493205 0.868252 0.502301 0.422395
C27   C     C_2   0.507688 0.059651 0.396318 0.306404
C28   C     C_2   0.523026 0.137356 0.495796 0.114368
C29   C     C_2   0.525158 0.577549 0.935238 0.343254
C30   C     C_2   0.540978 0.537364 0.068899 0.412169
C31   C     C_R   0.610670 0.497038 0.499524 0.939750
C32   C     C_R   0.870386 0.587075 0.389917 0.637866
C33   C     C_R   0.876925 0.376599 0.331540 0.657237
C34   C     C_R   0.937346 0.383305 0.330221 -0.111205
C35   C     C_R   0.964524 0.494216 0.373652 -0.062982
C36   C     C_R   0.931166 0.602538 0.391091 -0.202738
H1    H     H_    0.949785 0.194497 0.261283 0.231842
H2    H     H_    0.546498 0.885170 0.333754 0.166319
H3    H     H_    0.460645 0.535193 0.122664 0.212706
H4    H     H_    0.217537 0.637418 0.312003 0.224993
N1    N     N_R   0.846607 0.469115 0.392906 -0.332426
N2    N     N_R   0.142645 0.501880 0.438381 -0.357695
N3    N     N_2   0.500610 0.501330 0.852150 -0.032032
N4    N     N_2   0.500630 0.501360 0.147810 -0.186419
O1    O     O_R   0.499990 0.319060 0.613040 -0.494148
O2    O     O_2   0.849529 0.282082 0.269364 -0.468710
O3    O     O_2   0.152490 0.302095 0.347584 -0.454852
O4    O     O_2   0.139778 0.710886 0.503549 -0.441123
O5    O     O_R   0.500010 0.319100 0.386900 -0.583987
O6    O     O_R   0.416150 0.499940 0.613100 -0.563940
O7    O     O_R   0.416160 0.499980 0.386960 -0.550401
O8    O     O_R   0.499990 0.680900 0.613100 -0.571692
O9    O     O_R   0.500010 0.680940 0.386960 -0.607056
O10   O     O_R   0.583840 0.500020 0.613040 -0.549005
O11   O     O_R   0.583850 0.500060 0.386900 -0.579077
O12   O     O_2   0.835240 0.686384 0.391664 -0.409957
Zn1   Zn    Zn3+2 0.499990 0.499970 0.650990 1.202856
Zn2   Zn    Zn3+2 0.500010 0.500030 0.349010 1.156080
O13   O     O_3   0.660784 0.262522 0.406572 -0.615348
H5    H     H_    0.619591 0.283846 0.414728 0.342411
S1    S     S_3+6 0.689949 0.709900 0.617825 0.196118
O14   O     O_2   0.684299 0.699320 0.763630 -0.135648
O15   O     O_2   0.734832 0.808174 0.588462 -0.134528
O16   O     O_3   0.626799 0.754085 0.553038 -0.524243
H6    H     H_    0.635070 0.766162 0.458825 0.353246
O17   O     O_3   0.807829 0.609342 0.630745 -0.625466
H7    H     H_    0.844990 0.564499 0.638533 0.343229
O18   O     O_3   0.456362 0.928011 0.589489 -0.724312
H8    H     H_    0.435897 0.864445 0.642343 0.372277
S2    S     S_3+6 0.457807 0.092416 0.269526 0.111343
O19   O     O_2   0.406716 0.162695 0.322228 -0.223215
O20   O     O_2   0.488211 0.168913 0.168202 -0.210533
O21   O     O_3   0.434468 0.958371 0.199656 -0.458470
H9    H     H_    0.411149 0.984209 0.123476 0.413197
S3    S     S_3+6 0.575430 0.097336 0.617233 0.110019
O22   O     O_2   0.546433 0.029742 0.727766 -0.183160
O23   O     O_2   0.621195 0.015919 0.557686 -0.195535
O24   O     O_3   0.607333 0.227065 0.678197 -0.526369
H10   H     H_    0.634153 0.197311 0.746393 0.422379
S4    S     S_3+6 0.530305 0.738363 0.904871 0.123504
O25   O     O_2   0.573112 0.763528 0.798097 -0.133609
O26   O     O_2   0.471794 0.784657 0.865380 -0.300496
O27   O     O_3   0.551650 0.814098 0.041815 -0.517023
H11   H     H_    0.547273 0.903749 0.022112 0.419210
S5    S     S_3+6 0.479908 0.351289 0.908478 0.180847
O28   O     O_2   0.532686 0.287566 0.960291 -0.230238
O29   O     O_2   0.434451 0.359530 0.013205 -0.253094
O30   O     O_3   0.448866 0.255375 0.798864 -0.417304
H12   H     H_    0.447347 0.172735 0.841258 0.400221
S6    S     S_3+6 0.614895 0.514206 0.101007 0.128394
O31   O     O_2   0.637598 0.617795 0.187435 -0.265481
O32   O     O_2   0.622958 0.390593 0.165889 -0.235887
O33   O     O_3   0.651686 0.514570 0.958950 -0.495605
H13   H     H_    0.692504 0.500428 0.983740 0.403907
O34   O     O_3   0.058729 0.171096 0.291559 -0.635635
H14   H     H_    0.078979 0.149918 0.373728 0.399545
S7    S     S_3+6 0.037400 0.827131 0.594123 0.146900
O35   O     O_2   0.075053 0.924897 0.531565 -0.195261
O36   O     O_2   0.985438 0.888496 0.654361 -0.198537
O37   O     O_3   0.074390 0.757906 0.714641 -0.499951
H15   H     H_    0.087694 0.827113 0.772496 0.407437
S8    S     S_3+6 0.927509 0.863871 0.387809 0.148385
O38   O     O_2   0.885653 0.899328 0.494369 -0.153993
O39   O     O_2   0.973324 0.963540 0.376836 -0.238607
O40   O     O_3   0.892204 0.854165 0.244089 -0.481726
H16   H     H_    0.874795 0.937421 0.232523 0.402260
S9    S     S_3+6 0.334598 0.706404 0.315653 0.105461
O41   O     O_2   0.370297 0.650303 0.207636 -0.215627
O42   O     O_2   0.292558 0.795629 0.256090 -0.218128
O43   O     O_3   0.377605 0.786200 0.418845 -0.548346
H17   H     H_    0.350914 0.824226 0.483480 0.369825
S10   S     S_3+6 0.320602 0.308288 0.669255 0.147288
O44   O     O_2   0.342488 0.369992 0.792397 -0.181876
O45   O     O_2   0.277175 0.209040 0.705195 -0.180110
O46   O     O_3   0.375507 0.240561 0.588121 -0.531569
H18   H     H_    0.375120 0.152286 0.615640 0.405714
O47   O     O_3   0.195232 0.359762 0.643565 -0.645557
H19   H     H_    0.154461 0.386772 0.639206 0.348064
S11   S     S_3+6 0.779160 0.189953 0.478282 0.173133
O48   O     O_2   0.841075 0.190607 0.523366 -0.247111
O49   O     O_2   0.741830 0.137826 0.585615 -0.189031
O50   O     O_3   0.771779 0.098257 0.344650 -0.422530
H20   H     H_    0.780622 0.013108 0.374922 0.412531

loop_
_geom_bond_atom_site_label_1
_geom_bond_atom_site_label_2
_ccdc_geom_bond_type
O33   H13   S    
C24   N1    S    
O9    Zn2   S    
C10   N2    A    
O21   H9    S    
O34   H14   S    
C30   S6    S    
S7    O37   S    
S10   O45   D    
S7    O35   D    
C23   O8    A    
C7    C8    A    
S5    O28   D    
O1    Zn1   S    
C9    N2    A    
C18   C24   A    
C32   C36   A    
C18   C19   A    
C5    C6    A    
S11   O50   S    
C15   C16   A    
S8    O40   S    
C34   C35   A    
C8    C36   A    
C23   C26   S    
S1    O15   D    
C17   N2    S    
C22   O17   S    
O43   H17   S    
C19   C20   A    
N4    Zn2   S    
O18   H8    S    
C1    C28   S    
S9    O41   D    
S2    O19   D    
C21   S1    S    
S1    O14   D    
C13   S9    S    
C2    C34   A    
S5    O29   D    
O17   H7    S    
O13   H5    S    
C13   C14   A    
C29   N3    D    
C33   O2    S    
S9    O42   D    
C30   N4    D    
S8    O38   D    
S4    O27   S    
S10   O44   D    
S7    O36   D    
C23   O9    A    
S11   O49   D    
S2    O20   D    
N3    S5    S    
S4    O26   D    
C16   O47   S    
O24   H10   S    
C16   C17   A    
C19   O13   S    
C25   C26   D    
O5    Zn2   S    
C35   C36   A    
S1    O16   S    
S3    O22   D    
C29   C30   S    
C25   H2    S    
S6    O32   D    
O27   H11   S    
C32   N1    A    
S2    O21   S    
C33   C34   A    
O7    Zn2   S    
C20   C21   A    
S8    O39   D    
S3    O23   D    
C6    C7    A    
C27   S2    S    
C12   C14   S    
C9    O3    S    
C10   O4    S    
C20   C31   S    
S9    O43   S    
C22   C24   A    
C3    C4    A    
C12   O7    A    
S6    O33   S    
S5    O30   S    
C11   C17   A    
C7    S7    S    
O6    Zn1   S    
C15   S10   S    
S4    O25   D    
C6    C10   A    
C12   O6    A    
S11   O48   D    
H3    N4    S    
C25   C27   S    
O40   H16   S    
C33   N1    A    
O16   H6    S    
C2    C3    A    
C4    C9    A    
C26   O18   S    
O47   H19   S    
C11   C13   A    
C2    H1    S    
C1    O1    A    
S6    O31   D    
C29   S4    S    
C8    S8    S    
C5    C35   A    
O37   H15   S    
C31   O10   A    
C11   H4    S    
S3    O24   S    
O8    Zn1   S    
N3    Zn1   S    
C4    C5    A    
O30   H12   S    
O11   Zn2   S    
C27   C28   D    
C14   C15   A    
C3    O34   S    
C31   O11   A    
O50   H20   S    
C21   C22   A    
C28   S3    S    
C1    O5    A    
C18   S11   S    
C32   O12   S    
S10   O46   S    
O46   H18   S    
O10   Zn1   S    
