data_mof_unit_3595.cif
_audit_creation_date              2012-12-11T15:31:53-0500
_audit_creation_method            fapswitch 2.2
_symmetry_space_group_name_H-M    P1
_symmetry_Int_Tables_number       1
_space_group_crystal_system       triclinic
_cell_length_a                    13.584871
_cell_length_b                    13.589559
_cell_length_c                    27.655486
_cell_angle_alpha                 90.275909
_cell_angle_beta                  90.021317
_cell_angle_gamma                 120.005348
_cell_volume                      4421.220026

loop_
_atom_site_label
_atom_site_type_symbol
_atom_type_description
_atom_site_fract_x
_atom_site_fract_y
_atom_site_fract_z
_atom_type_partial_charge
C1    C     C_R   0.619706 0.898455 0.431335 0.546114
C2    C     C_R   0.625433 0.395283 0.219781 0.025843
C3    C     C_R   0.620399 0.379940 0.270155 -0.087284
C4    C     C_R   0.666282 0.318801 0.291607 0.002640
C5    C     C_R   0.678111 0.348071 0.191076 0.002144
C6    C     C_1   0.689789 0.366028 0.139585 -0.078096
C7    C     C_1   0.651170 0.294936 0.342465 -0.065949
C8    C     C_1   0.700152 0.390624 0.097398 -0.017418
C9    C     C_1   0.233225 0.863014 0.382643 -0.003939
C10   C     C_R   0.170432 0.927796 0.264880 0.277380
C11   C     C_R   0.148820 0.916971 0.214605 0.279601
C12   C     C_R   0.599867 0.218738 0.431394 0.546449
C13   C     C_R   0.168772 0.748979 0.213046 -0.174921
C14   C     C_R   0.183776 0.756076 0.263128 -0.175206
C15   C     C_R   0.183685 0.844440 0.289295 -0.003476
C16   C     C_R   0.151755 0.829164 0.188544 -0.002821
C17   C     C_1   0.127110 0.814181 0.137422 -0.016352
C18   C     C_1   0.206187 0.853394 0.340589 -0.016686
C19   C     C_1   0.098013 0.794769 0.095620 -0.002950
C20   C     C_1   0.635508 0.866161 0.383803 -0.009044
C21   C     C_R   0.707641 0.776771 0.272941 -0.081094
C22   C     C_R   0.715070 0.764729 0.223036 -0.077785
C23   C     C_R   0.279788 0.878999 0.430504 0.543500
C24   C     C_R   0.605422 0.858059 0.208581 -0.103603
C25   C     C_R   0.597931 0.870070 0.258479 -0.105171
C26   C     C_R   0.649281 0.829789 0.290763 0.039674
C27   C     C_R   0.664229 0.805547 0.190755 0.043679
C28   C     C_1   0.676430 0.796130 0.139525 -0.063232
C29   C     C_1   0.643651 0.846430 0.341908 -0.054194
C30   C     C_1   0.693195 0.786350 0.097447 -0.017225
C31   C     C_R   0.624152 0.253877 0.619436 -0.008726
C32   C     C_R   0.736096 0.314899 0.635921 -0.094492
C33   C     C_R   0.759137 0.331746 0.685502 0.007451
C34   C     C_R   0.620009 0.900536 0.569088 0.536394
C35   C     C_R   0.667139 0.281277 0.718376 0.001918
C36   C     C_R   0.554198 0.213386 0.701423 -0.005122
C37   C     C_R   0.534113 0.203574 0.652103 -0.164392
C38   C     C_R   0.637769 0.386725 0.782359 -0.089833
C39   C     C_R   0.639785 0.415361 0.830236 -0.101562
C40   C     C_R   0.739792 0.314478 0.850733 -0.120556
C41   C     C_R   0.733590 0.281505 0.802492 -0.096928
C42   C     C_R   0.683235 0.318858 0.768463 0.056024
C43   C     C_R   0.691448 0.380426 0.864590 0.042288
C44   C     C_R   0.253770 0.874949 0.619574 0.035092
C45   C     C_R   0.599450 0.219450 0.569323 0.541107
C46   C     C_R   0.151718 0.864062 0.636091 -0.137544
C47   C     C_R   0.131538 0.859067 0.685758 -0.098919
C48   C     C_R   0.214352 0.867202 0.718739 0.070160
C49   C     C_R   0.317761 0.881999 0.701729 -0.085113
C50   C     C_R   0.337118 0.885615 0.652449 -0.141478
C51   C     C_R   0.196230 0.766175 0.795883 0.225049
C52   C     C_R   0.156485 0.740781 0.843184 -0.120965
C53   C     C_R   0.110698 0.891658 0.841945 -0.131773
C54   C     C_R   0.149401 0.918235 0.794009 0.248600
C55   C     C_R   0.189437 0.852694 0.770733 0.064355
C56   C     C_R   0.281376 0.882013 0.568660 0.537661
C57   C     C_R   0.108400 0.799258 0.865470 -0.063422
C58   C     C_R   0.635742 0.861730 0.616240 0.019968
C59   C     C_R   0.540102 0.776251 0.640284 -0.138687
C60   C     C_R   0.545152 0.758516 0.689301 -0.123238
C61   C     C_R   0.646933 0.822958 0.714820 0.035550
C62   C     C_R   0.745338 0.900638 0.689769 -0.123373
C63   C     C_R   0.739561 0.921027 0.640878 -0.122961
C64   C     C_R   0.719011 0.906603 0.796390 -0.119239
C65   C     C_R   0.733143 0.893565 0.845217 -0.126949
C66   C     C_R   0.598187 0.691879 0.838466 -0.125079
C67   C     C_1   0.632063 0.266577 0.384138 -0.013080
C68   C     C_R   0.586129 0.704349 0.789357 -0.110962
C69   C     C_R   0.649981 0.811156 0.767552 0.041160
C70   C     C_R   0.676994 0.785133 0.865993 0.025326
C71   C     C_R   0.049198 0.761040 0.048212 0.545206
C72   C     C_R   0.713933 0.435393 0.049602 0.546528
C73   C     C_R   0.723521 0.770579 0.049574 0.545449
C74   C     C_R   0.045057 0.756616 0.910709 0.550479
C75   C     C_R   0.708130 0.429343 0.912492 0.538609
C76   C     C_R   0.716898 0.765946 0.912197 0.539268
C77   C     C_R   0.717811 0.272217 0.262974 -0.114912
C78   C     C_R   0.724187 0.287265 0.212945 -0.117713
Cr1   Cr    Cr6+3 0.417720 0.831920 0.499820 1.029575
Cr2   Cr    Cr6+3 0.668190 0.085770 0.500360 1.033767
Cr3   Cr    Cr6+3 0.414060 0.082260 0.499840 1.025391
Cr4   Cr    Cr6+3 0.908000 0.821090 0.979770 1.021823
Cr5   Cr    Cr6+3 0.912420 0.571130 0.979880 1.024684
Cr6   Cr    Cr6+3 0.657970 0.566940 0.980940 1.031087
H1    H     H_    0.751978 0.223206 0.279277 0.119866
H2    H     H_    0.761098 0.724242 0.209594 0.103041
H3    H     H_    0.566360 0.890469 0.184009 0.113542
H4    H     H_    0.552950 0.911680 0.271901 0.110714
H5    H     H_    0.804818 0.349583 0.609901 0.167919
H6    H     H_    0.598571 0.415488 0.756064 0.103975
H7    H     H_    0.604897 0.468831 0.840067 0.117674
H8    H     H_    0.767863 0.227955 0.791634 0.102187
H9    H     H_    0.781873 0.289111 0.877014 0.109561
H10   H     H_    0.764961 0.251267 0.191256 0.117575
H11   H     H_    0.447699 0.150802 0.639050 0.129946
H12   H     H_    0.087804 0.857595 0.610816 0.108091
H13   H     H_    0.159426 0.672194 0.861676 0.149624
H14   H     H_    0.050696 0.846603 0.698478 0.122415
H15   H     H_    0.079393 0.940553 0.860595 0.130261
H16   H     H_    0.383272 0.890462 0.726574 0.177073
H17   H     H_    0.418011 0.898136 0.639789 0.123260
H18   H     H_    0.458576 0.728768 0.622252 0.137421
H19   H     H_    0.765368 0.990773 0.780905 0.101782
H20   H     H_    0.792905 0.967265 0.866005 0.123153
H21   H     H_    0.467882 0.698432 0.707543 0.118146
H22   H     H_    0.531679 0.629201 0.768171 0.098090
H23   H     H_    0.552349 0.607762 0.853940 0.122695
H24   H     H_    0.825973 0.947962 0.708275 0.097473
H25   H     H_    0.814723 0.986385 0.623010 0.130597
H26   H     H_    0.579766 0.414549 0.292788 0.151685
H27   H     H_    0.168774 0.679735 0.193450 0.139740
H28   H     H_    0.196486 0.692977 0.281459 0.140418
H29   H     H_    0.747959 0.745659 0.297486 0.115661
O1    O     O_R   0.302900 0.805360 0.446400 -0.504217
O2    O     O_R   0.657980 0.180990 0.549630 -0.497772
O3    O     O_R   0.503420 0.197810 0.553190 -0.513694
O4    O     O_R   0.320350 0.978840 0.548910 -0.502402
O5    O     O_3   0.499990 0.999990 0.500010 -0.253538
O6    O     O_R   0.819150 0.845650 0.033320 -0.511142
O7    O     O_R   0.006060 0.815720 0.028680 -0.491812
O8    O     O_R   0.028100 0.664460 0.032550 -0.506625
O9    O     O_R   0.811290 0.477490 0.029660 -0.494026
O10   O     O_R   0.638120 0.455970 0.034270 -0.504815
O11   O     O_R   0.667540 0.672320 0.030160 -0.490870
O12   O     O_R   0.522090 0.841370 0.450730 -0.492550
O13   O     O_R   0.814460 0.840990 0.926980 -0.522939
O14   O     O_R   0.001710 0.811400 0.930110 -0.500064
O15   O     O_R   0.023410 0.659800 0.926210 -0.516015
O16   O     O_R   0.806940 0.473170 0.931090 -0.504075
O17   O     O_R   0.633420 0.451310 0.927930 -0.514671
O18   O     O_R   0.663190 0.668000 0.931580 -0.504202
O19   O     O_3   0.826130 0.653050 0.980200 -0.249562
O20   O     O_R   0.693280 0.995650 0.447220 -0.504550
O21   O     O_R   0.657260 0.178740 0.451050 -0.492189
O22   O     O_R   0.502640 0.195380 0.446850 -0.509046
O23   O     O_R   0.319630 0.976590 0.450330 -0.493616
O24   O     O_R   0.303680 0.807790 0.552740 -0.507202
O25   O     O_R   0.522820 0.843620 0.549310 -0.509939
O26   O     O_R   0.694060 0.998080 0.553560 -0.511236
C79   C     C_2   0.878503 0.404494 0.702022 0.188750
H30   H     H_    0.898940 0.421149 0.740126 0.088427
O27   O     O_2   0.956241 0.447261 0.672930 -0.542759
C80   C     C_2   0.454039 0.152779 0.733725 0.222351
H31   H     H_    0.369352 0.124329 0.719623 0.141801
O28   O     O_2   0.463870 0.130216 0.775497 -0.478290
O29   O     O_3   0.244230 0.707920 0.774525 -0.568958
C81   C     C_3   0.156692 0.601477 0.758014 -0.005129
H32   H     H_    0.097579 0.611819 0.733402 0.172606
H33   H     H_    0.108122 0.546489 0.788966 0.118775
C82   C     C_3   0.209141 0.542579 0.730003 -0.346927
H34   H     H_    0.271935 0.534855 0.753030 0.142248
H35   H     H_    0.141883 0.456202 0.718796 0.140442
H36   H     H_    0.252458 0.592365 0.697224 0.161796
O30   O     O_3   0.158293 0.012079 0.769847 -0.555881
C83   C     C_3   0.062944 0.025734 0.777484 -0.021332
H37   H     H_    0.070541 0.068116 0.812870 0.138542
H38   H     H_    0.981622 0.942955 0.775790 0.120400
C84   C     C_3   0.060093 0.102407 0.738291 -0.375026
H39   H     H_    0.049083 0.061598 0.702267 0.149713
H40   H     H_    0.988340 0.117945 0.744837 0.088189
H41   H     H_    0.140702 0.185277 0.738617 0.165387
C85   C     C_2   0.575129 0.459877 0.197796 0.207939
H42   H     H_    0.581896 0.476504 0.159277 0.126490
O31   O     O_2   0.524775 0.495190 0.222534 -0.516941
O32   O     O_3   0.173086 0.016822 0.290390 -0.554075
C86   C     C_3   0.284694 0.110682 0.288519 0.006017
H43   H     H_    0.307887 0.142075 0.250772 0.174360
H44   H     H_    0.347766 0.088343 0.302833 0.124043
C87   C     C_3   0.291343 0.206453 0.319573 -0.344607
H45   H     H_    0.269829 0.177953 0.357626 0.166423
H46   H     H_    0.378752 0.280747 0.318468 0.112050
H47   H     H_    0.230902 0.232388 0.305817 0.171238
O33   O     O_3   0.129696 0.995106 0.190778 -0.547500
C88   C     C_3   0.012604 0.958740 0.193564 0.005343
H48   H     H_    0.985673 0.955756 0.231838 0.163055
H49   H     H_    0.960488 0.873249 0.176617 0.118503
C89   C     C_3   0.989283 0.042063 0.166453 -0.354026
H50   H     H_    0.012067 0.044410 0.127740 0.171712
H51   H     H_    0.897698 0.015239 0.169055 0.103543
H52   H     H_    0.040142 0.128467 0.182383 0.166958

loop_
_geom_bond_atom_site_label_1
_geom_bond_atom_site_label_2
_ccdc_geom_bond_type
C64   H19   S    
C66   C68   A    
C21   C26   A    
O32   C86   S    
C73   O6    A    
C48   C55   S    
C76   O13   A    
C41   C42   A    
C34   O26   A    
C15   C18   S    
C19   C71   S    
C35   C36   A    
C24   C27   A    
Cr4   O7    S    
Cr5   O15   S    
C2    C85   S    
C66   C70   A    
C77   C78   A    
C53   H15   S    
Cr6   O10   S    
C14   H28   S    
C85   H42   S    
C47   H14   S    
C23   O23   A    
C56   O4    A    
C36   C37   A    
C81   H33   S    
C36   C80   S    
C79   O27   D    
C38   C42   A    
C10   C15   A    
C38   C39   A    
C76   O18   A    
C83   H38   S    
C33   C79   S    
C44   C50   A    
C80   H31   S    
Cr1   O5    S    
Cr3   O4    S    
C52   H13   S    
Cr2   O21   S    
C37   H11   S    
C87   H45   S    
C35   C42   S    
C44   C56   S    
C88   H48   S    
Cr4   O13   S    
C84   H41   S    
C17   C19   T    
C54   C55   A    
C84   H40   S    
C40   C43   A    
C74   O15   A    
C32   H5    S    
C16   C17   S    
C89   H51   S    
C82   H36   S    
C26   C29   S    
C40   H9    S    
C75   O17   A    
C89   H52   S    
Cr1   O12   S    
C77   H1    S    
C59   C60   A    
C12   O21   A    
C21   C22   A    
C83   C84   S    
C86   H44   S    
C87   H46   S    
C86   H43   S    
C68   H22   S    
Cr4   O6    S    
C4    C7    S    
C1    O20   A    
C39   H7    S    
C44   C46   A    
Cr3   O22   S    
C85   O31   D    
C20   C29   T    
C43   C75   S    
C12   C67   S    
Cr2   O5    S    
C11   O33   S    
C8    C72   S    
C81   H32   S    
C51   C52   A    
C47   C48   A    
C81   C82   S    
C24   C25   A    
C21   H29   S    
C52   C57   A    
C30   C73   S    
C53   C57   A    
C68   C69   A    
C6    C8    T    
C51   O29   S    
C58   C59   A    
C53   C54   A    
Cr3   O5    S    
C34   O25   A    
C25   H4    S    
Cr5   O8    S    
Cr2   O20   S    
C31   C37   A    
C60   C61   A    
C57   C74   S    
C63   H25   S    
C62   C63   A    
C12   O22   A    
C11   C16   A    
C45   O2    A    
C74   O14   A    
Cr2   O2    S    
C73   O11   A    
C41   H8    S    
C46   H12   S    
C66   H23   S    
C64   C69   A    
C79   H30   S    
C88   C89   S    
O30   C83   S    
C86   C87   S    
C71   O7    A    
C48   C49   A    
Cr1   O24   S    
C49   C50   A    
C22   C27   A    
C72   O10   A    
C70   C76   S    
C84   H39   S    
C87   H47   S    
C82   H35   S    
C13   C16   A    
C2    C5    A    
Cr4   O19   S    
C3    C4    A    
C83   H37   S    
Cr3   O23   S    
O29   C81   S    
C61   C69   S    
C58   C63   A    
C80   O28   D    
C46   C47   A    
C40   C41   A    
C1    C20   S    
C72   O9    A    
C14   C15   A    
C59   H18   S    
C71   O8    A    
C31   C32   A    
C9    C23   S    
C1    O12   A    
C54   O30   S    
C39   C43   A    
Cr5   O16   S    
Cr6   O11   S    
Cr2   O26   S    
C38   H6    S    
Cr6   O18   S    
C64   C65   A    
C28   C30   T    
C2    C3    A    
C25   C26   A    
C4    C77   A    
C13   H27   S    
C32   C33   A    
C49   H16   S    
C56   O24   A    
C45   O3    A    
C5    C6    S    
C78   H10   S    
C10   O32   S    
Cr3   O3    S    
Cr6   O17   S    
C33   C35   A    
Cr6   O19   S    
C51   C55   A    
C22   H2    S    
Cr5   O9    S    
C61   C62   A    
C24   H3    S    
C88   H49   S    
Cr4   O14   S    
C10   C11   A    
C7    C67   T    
C75   O16   A    
C9    C18   T    
Cr5   O19   S    
Cr1   O25   S    
C62   H24   S    
C50   H17   S    
C89   H50   S    
C31   C45   S    
Cr1   O1    S    
C27   C28   S    
C34   C58   S    
C82   H34   S    
C3    H26   S    
C65   H20   S    
C5    C78   A    
C13   C14   A    
O33   C88   S    
C60   H21   S    
C65   C70   A    
C23   O1    A    
