data_mof_unit_2152.cif
_audit_creation_date              2012-12-10T21:00:39-0500
_audit_creation_method            fapswitch 2.2
_symmetry_space_group_name_H-M    P1
_symmetry_Int_Tables_number       1
_space_group_crystal_system       triclinic
_cell_length_a                    18.10363
_cell_length_b                    18.140471
_cell_length_c                    18.356077
_cell_angle_alpha                 120.340363
_cell_angle_beta                  89.838671
_cell_angle_gamma                 119.74227
_cell_volume                      4263.1839681

loop_
_atom_site_label
_atom_site_type_symbol
_atom_type_description
_atom_site_fract_x
_atom_site_fract_y
_atom_site_fract_z
_atom_type_partial_charge
C1    C     C_R   0.109737 0.220231 0.609399 0.781921
C2    C     C_3   0.449641 0.897349 0.947639 0.065979
C3    C     C_3   0.800013 0.552620 0.680566 -0.914226
C4    C     C_3   0.183765 0.503853 0.288488 -0.417765
C5    C     C_3   0.200037 0.447484 0.319481 -0.914285
C6    C     C_3   0.485910 0.033001 0.079116 -0.183159
C7    C     C_3   0.514087 0.966999 0.920888 -0.183277
C8    C     C_3   0.413064 0.430688 0.447815 -0.147467
C9    C     C_3   0.586935 0.569300 0.552181 -0.147521
C10   C     C_3   0.482372 0.404344 0.447248 -0.186235
C11   C     C_3   0.517629 0.595646 0.552750 -0.186165
C12   C     C_3   0.550946 0.500174 0.449519 0.070953
C13   C     C_3   0.449053 0.499816 0.550478 0.070945
C14   C     C_3   0.482571 0.526552 0.449253 -0.180639
C15   C     C_R   0.890274 0.779768 0.390601 0.781819
C16   C     C_3   0.517428 0.473438 0.550744 -0.180543
C17   C     C_R   0.928403 0.135027 0.794872 -0.147912
C18   C     C_R   0.072015 0.865345 0.205318 -0.147983
C19   C     C_R   0.392625 0.781145 0.888400 0.760047
C20   C     C_R   0.607375 0.218855 0.111602 0.760068
C21   C     C_R   0.951829 0.085592 0.721316 -0.142260
C22   C     C_R   0.048562 0.914735 0.278868 -0.142537
C23   C     C_R   0.956339 0.105302 0.655960 0.140614
C24   C     C_R   0.043730 0.894707 0.344039 0.140562
C25   C     C_R   0.935704 0.174132 0.664924 -0.134046
C26   C     C_3   0.990642 0.437217 0.414214 -0.135375
C27   C     C_R   0.064096 0.825615 0.334900 -0.133637
C28   C     C_R   0.912527 0.223541 0.738673 -0.125688
C29   C     C_R   0.087281 0.776235 0.261146 -0.125495
C30   C     C_R   0.908842 0.203963 0.803543 -0.100144
C31   C     C_R   0.091271 0.796121 0.196458 -0.100231
C32   C     C_R   0.931452 0.944732 0.524076 -0.256976
C33   C     C_R   0.068613 0.055272 0.475943 -0.257002
C34   C     C_R   0.948882 0.892112 0.446630 -0.038294
C35   C     C_R   0.051166 0.107886 0.553375 -0.038295
C36   C     C_R   0.018693 0.947148 0.422202 -0.002786
C37   C     C_3   0.009356 0.562781 0.585786 -0.135389
C38   C     C_R   0.981370 0.052850 0.577808 -0.002903
C39   C     C_R   0.658381 0.691235 0.857058 -0.113027
C40   C     C_R   0.341840 0.308975 0.143206 -0.112874
C41   C     C_R   0.619388 0.621712 0.880969 -0.183701
C42   C     C_R   0.380881 0.378550 0.119352 -0.183281
C43   C     C_R   0.109636 0.499813 0.888498 0.800505
C44   C     C_R   0.890363 0.500187 0.111501 0.800421
C45   C     C_R   0.595064 0.649682 0.958488 0.155901
C46   C     C_R   0.404917 0.350469 0.041666 0.155922
C47   C     C_R   0.612617 0.748977 0.013446 -0.165006
C48   C     C_3   0.412926 0.964714 0.987423 -0.155900
C49   C     C_R   0.387025 0.251022 0.986496 -0.165401
C50   C     C_R   0.651983 0.818717 0.989894 -0.199045
C51   C     C_R   0.347603 0.181228 0.009988 -0.199327
C52   C     C_R   0.674233 0.790496 0.910986 0.276320
C53   C     C_R   0.325641 0.209549 0.089053 0.276270
C54   C     C_R   0.593646 0.570099 0.033517 -0.264833
C55   C     C_R   0.406348 0.430032 0.966617 -0.264854
C56   C     C_R   0.550081 0.498825 0.055160 -0.050523
C57   C     C_R   0.449915 0.501281 0.944948 -0.050513
C58   C     C_R   0.455245 0.428022 0.021720 -0.008438
C59   C     C_3   0.587071 0.035285 0.012582 -0.155977
C60   C     C_R   0.544746 0.572120 0.978426 -0.008436
C61   C     C_R   0.053003 0.724544 0.886934 0.191948
C62   C     C_R   0.947052 0.275483 0.113068 0.191966
C63   C     C_R   0.062176 0.681990 0.929401 -0.131827
C64   C     C_R   0.937865 0.318025 0.070595 -0.131915
C65   C     C_R   0.994319 0.579757 0.899466 0.094138
C66   C     C_R   0.005697 0.420272 0.100547 0.094154
C67   C     C_R   0.392285 0.499988 0.607650 0.766910
C68   C     C_R   0.607715 0.500009 0.392349 0.766891
C69   C     C_R   0.915972 0.520801 0.827918 -0.269421
C70   C     C_3   0.478163 0.035860 0.961394 -0.171437
C71   C     C_R   0.084037 0.479252 0.172113 -0.269443
C72   C     C_R   0.904068 0.563208 0.786486 0.202770
C73   C     C_R   0.095958 0.436856 0.213547 0.202764
C74   C     C_R   0.973462 0.665630 0.816642 -0.152478
C75   C     C_R   0.026586 0.334422 0.183379 -0.152448
C76   C     C_R   0.946842 0.536405 0.004895 -0.261409
C77   C     C_R   0.053162 0.463606 0.995108 -0.261482
C78   C     C_R   0.946619 0.498402 0.054877 -0.063951
C79   C     C_R   0.053383 0.501605 0.945124 -0.063905
C80   C     C_R   0.000343 0.461062 0.049813 0.005339
C81   C     C_3   0.521833 0.964140 0.038611 -0.171566
C82   C     C_R   0.999664 0.538953 0.950192 0.005359
C83   C     C_R   0.394007 0.500212 0.888777 0.797365
C84   C     C_R   0.605992 0.499813 0.111248 0.797371
C85   C     C_R   0.108735 0.500249 0.607795 0.776473
C86   C     C_R   0.891265 0.499751 0.392205 0.776450
C87   C     C_3   0.081259 0.535108 0.489369 -0.187007
C88   C     C_3   0.918738 0.464890 0.510631 -0.186995
C89   C     C_3   0.038843 0.597249 0.523061 -0.179893
C90   C     C_3   0.961155 0.402749 0.476939 -0.179887
C91   C     C_3   0.949025 0.499362 0.448730 0.060658
C92   C     C_3   0.550357 0.102651 0.052365 0.065998
C93   C     C_3   0.050973 0.500636 0.551270 0.060650
C94   C     C_3   0.714366 0.869055 0.888405 -0.435522
C95   C     C_3   0.725421 0.828966 0.796119 -0.914008
C96   C     C_3   0.285397 0.130907 0.111542 -0.435478
C97   C     C_3   0.274960 0.171183 0.204087 -0.913911
C98   C     C_3   0.126758 0.833690 0.917842 -0.455898
C99   C     C_3   0.170329 0.833229 0.846387 -0.858762
C100  C     C_3   0.873331 0.166316 0.082131 -0.455955
C101  C     C_3   0.829737 0.166707 0.153559 -0.858813
C102  C     C_3   0.816259 0.496231 0.711552 -0.417791
H1    H     H_    0.069974 0.677140 0.541181 0.129969
H2    H     H_    0.062046 0.810060 0.384861 0.096580
H3    H     H_    0.897350 0.276981 0.745514 0.113425
H4    H     H_    0.102229 0.722578 0.254159 0.113373
H5    H     H_    0.876301 0.901066 0.540784 0.155196
H6    H     H_    0.123775 0.098954 0.459252 0.155130
H7    H     H_    0.674839 0.666034 0.796034 0.134817
H8    H     H_    0.325603 0.334256 0.204355 0.134774
H9    H     H_    0.605771 0.544953 0.837777 0.124442
H10   H     H_    0.394758 0.455424 0.162707 0.124293
H11   H     H_    0.593662 0.771295 0.073242 0.123119
H12   H     H_    0.930024 0.322858 0.458820 0.129972
H13   H     H_    0.405746 0.228611 0.926563 0.123292
H14   H     H_    0.149144 0.564776 0.482254 0.136795
H15   H     H_    0.850855 0.435226 0.517749 0.136785
H16   H     H_    0.663587 0.894436 0.032511 0.117994
H17   H     H_    0.335733 0.105386 0.967195 0.118087
H18   H     H_    0.666436 0.624889 0.059315 0.179618
H19   H     H_    0.333558 0.375240 0.940815 0.179613
H20   H     H_    0.966718 0.700812 0.786335 0.145197
H21   H     H_    0.033344 0.299248 0.213689 0.145212
H22   H     H_    0.121883 0.728209 0.985852 0.115437
H23   H     H_    0.890649 0.242061 0.860409 0.124909
H24   H     H_    0.878171 0.271783 0.014121 0.115439
H25   H     H_    0.862826 0.442507 0.806159 0.129501
H26   H     H_    0.137166 0.557556 0.193880 0.129500
H27   H     H_    0.905308 0.564506 0.008210 0.177324
H28   H     H_    0.094697 0.435505 0.991793 0.177311
H29   H     H_    0.982138 0.385731 0.343108 0.149400
H30   H     H_    0.017857 0.614265 0.656892 0.149397
H31   H     H_    0.460667 0.066508 0.930275 0.123239
H32   H     H_    0.539316 0.933492 0.069738 0.123162
H33   H     H_    0.340932 0.935115 0.977445 0.144554
H34   H     H_    0.109471 0.758044 0.139587 0.124897
H35   H     H_    0.659066 0.064882 0.022562 0.144588
H36   H     H_    0.474723 0.061357 0.144729 0.124733
H37   H     H_    0.525274 0.938644 0.855275 0.124693
H38   H     H_    0.469023 0.325993 0.402967 0.128793
H39   H     H_    0.530984 0.674000 0.597038 0.128862
H40   H     H_    0.340769 0.374067 0.405983 0.147482
H41   H     H_    0.659234 0.625911 0.593999 0.147441
H42   H     H_    0.469173 0.548035 0.406436 0.126070
H43   H     H_    0.530826 0.451954 0.593560 0.126111
H44   H     H_    0.774478 0.808311 0.791410 0.254104
H45   H     H_    0.925444 0.119934 0.845203 0.126756
H46   H     H_    0.659326 0.760185 0.743241 0.268902
H47   H     H_    0.751470 0.891008 0.785078 0.253059
H48   H     H_    0.670349 0.896189 0.892045 0.211630
H49   H     H_    0.781375 0.937457 0.939804 0.200359
H50   H     H_    0.341283 0.239720 0.256697 0.269010
H51   H     H_    0.226171 0.192279 0.209328 0.254025
H52   H     H_    0.248874 0.109081 0.215056 0.252992
H53   H     H_    0.218161 0.062819 0.060405 0.200302
H54   H     H_    0.329074 0.103245 0.107367 0.211514
H55   H     H_    0.196418 0.784365 0.827594 0.292248
H56   H     H_    0.075230 0.880696 0.155140 0.126777
H57   H     H_    0.120995 0.802801 0.785915 0.245429
H58   H     H_    0.227331 0.913938 0.872748 0.232131
H59   H     H_    0.098090 0.879682 0.933501 0.200331
H60   H     H_    0.179923 0.873276 0.979984 0.195179
H61   H     H_    0.879071 0.197145 0.214037 0.245460
H62   H     H_    0.803606 0.215532 0.172352 0.292184
H63   H     H_    0.772763 0.085975 0.127170 0.232191
H64   H     H_    0.820168 0.126728 0.019986 0.195194
H65   H     H_    0.902037 0.120360 0.066471 0.200400
H66   H     H_    0.802382 0.619457 0.737617 0.257585
H67   H     H_    0.967230 0.032734 0.715701 0.127232
H68   H     H_    0.850751 0.580374 0.650118 0.261690
H69   H     H_    0.732246 0.497869 0.629106 0.251310
H70   H     H_    0.813802 0.430100 0.653379 0.200540
H71   H     H_    0.759469 0.463071 0.734513 0.203849
H72   H     H_    0.149297 0.419705 0.349916 0.261689
H73   H     H_    0.197696 0.380666 0.262436 0.257623
H74   H     H_    0.267799 0.502255 0.370952 0.251301
H75   H     H_    0.240553 0.537027 0.265531 0.203869
H76   H     H_    0.186203 0.569972 0.346656 0.200540
H77   H     H_    0.033403 0.967820 0.284625 0.127283
H78   H     H_    0.937540 0.189457 0.614826 0.096765
O1    O     O_3   0.251620 0.500000 0.748430 -0.476736
O2    O     O_R   0.570330 0.268390 0.136490 -0.633455
O3    O     O_R   0.134680 0.268390 0.572240 -0.648691
O4    O     O_R   0.865320 0.731610 0.427760 -0.648687
O5    O     O_R   0.306670 0.731630 0.863510 -0.655124
O6    O     O_R   0.693330 0.268370 0.136490 -0.655106
O7    O     O_R   0.135450 0.439270 0.865360 -0.635588
O8    O     O_R   0.864550 0.560730 0.134640 -0.635597
O9    O     O_R   0.429670 0.560710 0.692610 -0.640175
O10   O     O_R   0.570330 0.439290 0.307390 -0.640249
O11   O     O_R   0.308540 0.439240 0.865360 -0.654514
O12   O     O_3   0.748380 0.500000 0.251570 -0.476742
O13   O     O_R   0.691460 0.560760 0.134640 -0.654489
O14   O     O_R   0.133580 0.439310 0.571150 -0.642536
O15   O     O_R   0.866420 0.560690 0.428850 -0.642540
O16   O     O_R   0.430770 0.560690 0.864590 -0.634567
O17   O     O_R   0.569230 0.439310 0.135410 -0.634590
O18   O     O_R   0.133580 0.560760 0.692610 -0.646670
O19   O     O_R   0.866420 0.439240 0.307390 -0.646654
O20   O     O_R   0.134680 0.560740 0.864590 -0.643256
O21   O     O_R   0.865320 0.439260 0.135410 -0.643225
O22   O     O_R   0.306670 0.439270 0.571150 -0.648182
O23   O     O_R   0.693330 0.560730 0.428850 -0.648155
O24   O     O_R   0.135450 0.268370 0.694460 -0.628813
O25   O     O_R   0.864550 0.731630 0.305540 -0.628820
O26   O     O_R   0.429670 0.731610 0.863510 -0.633530
Zn1   Zn    Zn3+2 0.207400 0.586780 0.791530 0.954373
Zn2   Zn    Zn3+2 0.792600 0.413220 0.208470 0.954392
Zn3   Zn    Zn3+2 0.208510 0.413230 0.792630 0.968770
Zn4   Zn    Zn3+2 0.791490 0.586770 0.207370 0.968759
Zn5   Zn    Zn3+2 0.383150 0.586740 0.791530 0.967618
Zn6   Zn    Zn3+2 0.616850 0.413260 0.208470 0.967628
Zn7   Zn    Zn3+2 0.207400 0.413250 0.618010 0.954156
Zn8   Zn    Zn3+2 0.792600 0.586750 0.381990 0.954141

loop_
_geom_bond_atom_site_label_1
_geom_bond_atom_site_label_2
_ccdc_geom_bond_type
O3    Zn7   S    
C63   C65   A    
C45   C60   S    
C8    C13   S    
C54   H18   S    
C27   C29   A    
C5    H73   S    
C5    H72   S    
O5    Zn1   S    
C37   C88   S    
C102  H71   S    
C61   C98   S    
C24   C27   A    
C4    H75   S    
C100  H64   S    
O14   Zn7   S    
C55   H19   S    
C63   H22   S    
C1    O3    A    
C25   H78   S    
C81   H32   S    
C39   C41   A    
C54   C60   A    
C25   C28   A    
C20   C92   S    
C46   C49   A    
C24   C36   S    
C6    C48   S    
C49   H13   S    
C100  H65   S    
C75   H21   S    
C83   O11   A    
O1    Zn1   S    
C9    C16   S    
C76   C78   A    
C99   H57   S    
C86   C91   S    
C11   C14   S    
C21   H67   S    
C85   O14   A    
C96   H53   S    
C59   H35   S    
C43   C79   S    
C98   C99   S    
C15   O4    A    
C27   H2    S    
C33   C36   A    
C95   H44   S    
O1    Zn3   S    
C42   C46   A    
O12   Zn8   S    
C83   O16   A    
C61   C63   A    
O10   Zn6   S    
O12   Zn6   S    
O15   Zn8   S    
C62   C64   A    
C48   H33   S    
C2    C7    S    
O1    Zn7   S    
O16   Zn5   S    
C85   C93   S    
O26   Zn5   S    
C97   H50   S    
O7    Zn3   S    
C26   C87   S    
C49   C51   A    
C32   H5    S    
O24   Zn3   S    
C19   O26   A    
C50   C52   A    
C57   C83   S    
C48   C70   S    
C52   C94   S    
C43   O20   A    
C95   H47   S    
C97   H51   S    
C89   C91   S    
C84   O13   A    
C15   C34   S    
C34   C36   A    
C6    C92   S    
C86   O19   A    
C77   H28   S    
C100  C101  S    
C40   C42   A    
C39   C52   A    
O18   Zn1   S    
C30   H23   S    
C6    C81   S    
C18   C22   A    
C99   H58   S    
C89   H1    S    
C68   O23   A    
C17   C30   A    
C73   C75   A    
C33   H6    S    
O8    Zn4   S    
C7    C70   S    
C7    C59   S    
C98   H60   S    
C3    H66   S    
C56   C84   S    
C47   C50   A    
C14   H42   S    
C45   C47   A    
C102  H70   S    
C71   H26   S    
C54   C56   A    
C39   H7    S    
C101  H61   S    
C35   C38   A    
C72   C74   A    
O9    Zn5   S    
C76   C82   A    
C71   C73   A    
C31   H34   S    
C57   C60   A    
C42   H10   S    
C2    C48   S    
C26   C91   S    
C17   C21   A    
C99   H55   S    
C16   H43   S    
C51   C53   A    
C64   C66   A    
C6    H36   S    
C69   C72   A    
C18   H56   S    
C86   O15   A    
C70   H31   S    
C11   H39   S    
C76   H27   S    
C85   O18   A    
C51   H17   S    
C66   C71   A    
C88   C91   S    
C68   O10   A    
C28   H3    S    
C96   C97   S    
C65   C82   S    
O2    Zn6   S    
C4    C73   S    
C77   C79   A    
C37   C93   S    
C55   C57   A    
C97   H52   S    
C101  H63   S    
C9    C11   S    
O12   Zn4   S    
C87   H14   S    
C15   O25   A    
C10   C12   S    
C44   O8    A    
C62   C100  S    
C3    C102  S    
C74   H20   S    
C12   C14   S    
O12   Zn2   S    
O20   Zn1   S    
C64   H24   S    
C10   H38   S    
C44   O21   A    
C61   C74   A    
C5    H74   S    
C22   C24   A    
C62   C75   A    
C13   C16   S    
C26   C90   S    
O11   Zn3   S    
C98   H59   S    
C1    C35   S    
C90   C93   S    
C20   O2    A    
C13   C67   S    
C77   C80   A    
C47   H11   S    
C8    C14   S    
C17   H45   S    
C2    C19   S    
C50   H16   S    
C101  H62   S    
C70   C92   S    
C95   H46   S    
C59   C81   S    
C4    H76   S    
C22   H77   S    
C43   O7    A    
C79   C82   A    
C40   H8    S    
C67   O9    A    
C3    H68   S    
O6    Zn2   S    
C84   O17   A    
C94   H48   S    
C23   C38   S    
C66   C80   S    
C32   C38   A    
C37   H30   S    
C37   C89   S    
O1    Zn5   S    
C12   C68   S    
C21   C23   A    
C88   C90   S    
C94   H49   S    
C28   C30   A    
C29   C31   A    
O17   Zn6   S    
C10   C16   S    
C19   O5    A    
C7    H37   S    
C11   C13   S    
C3    H69   S    
O13   Zn4   S    
C96   H54   S    
C72   C102  S    
O25   Zn4   S    
C65   C69   A    
C87   C93   S    
C44   C78   S    
O19   Zn2   S    
C33   C35   A    
O21   Zn2   S    
C56   C58   A    
C78   C80   A    
C59   C92   S    
C90   H12   S    
O22   Zn7   S    
C94   C95   S    
C29   H4    S    
C9    C12   S    
O23   Zn8   S    
C20   O6    A    
C9    H41   S    
O4    Zn8   S    
C4    C5    S    
C23   C25   A    
C69   H25   S    
C8    C10   S    
C40   C53   A    
C41   H9    S    
C55   C58   A    
C67   O22   A    
C87   C89   S    
C41   C45   A    
C2    C81   S    
C8    H40   S    
C18   C31   A    
C88   H15   S    
C1    O24   A    
C46   C58   S    
C26   H29   S    
C32   C34   A    
C53   C96   S    
