data_mof_unit_3362.cif
_audit_creation_date              2012-12-10T16:48:05-0500
_audit_creation_method            fapswitch 2.2
_symmetry_space_group_name_H-M    P1
_symmetry_Int_Tables_number       1
_space_group_crystal_system       triclinic
_cell_length_a                    15.84316
_cell_length_b                    8.690719
_cell_length_c                    7.449564
_cell_angle_alpha                 103.00107
_cell_angle_beta                  94.057316
_cell_angle_gamma                 92.317794
_cell_volume                      995.24320077

loop_
_atom_site_label
_atom_site_type_symbol
_atom_type_description
_atom_site_fract_x
_atom_site_fract_y
_atom_site_fract_z
_atom_type_partial_charge
C1    C     C_R   0.497472 0.199717 0.453253 0.885877
C2    C     C_R   0.502528 0.800283 0.546747 0.885877
C3    C     C_R   0.339975 0.499422 0.502421 0.818785
C4    C     C_R   0.660025 0.500578 0.497579 0.818785
C5    C     C_2   0.496260 0.031819 0.426984 -0.341010
C6    C     C_2   0.503740 0.968181 0.573016 -0.341010
C7    C     C_3   0.968709 0.362822 0.527007 0.284073
C8    C     C_3   0.031291 0.637178 0.472993 0.284073
C9    C     C_3   0.021503 0.381417 0.366401 0.268387
C10   C     C_3   0.978496 0.618583 0.633599 0.268387
C11   C     C_1   0.250512 0.498994 0.507308 -0.111778
C12   C     C_1   0.749488 0.501006 0.492692 -0.111778
C13   C     C_3   0.031428 0.480013 0.666318 -0.292942
C14   C     C_3   0.968572 0.519987 0.333682 -0.292942
C15   C     C_3   0.083252 0.498817 0.504150 -0.074355
C16   C     C_3   0.916748 0.501183 0.495850 -0.074355
C17   C     C_1   0.174970 0.498590 0.507523 0.108578
C18   C     C_1   0.825030 0.501409 0.492477 0.108578
Cu1   Cu    Cu3+1 0.509330 0.517380 0.684380 0.988702
Cu2   Cu    Cu3+1 0.490670 0.482620 0.315620 0.988702
H1    H     H_    0.942208 0.536454 0.197583 0.217329
H2    H     H_    0.057791 0.463546 0.802417 0.217329
H3    H     H_    0.489210 0.960213 0.286250 0.182155
H4    H     H_    0.510790 0.039787 0.713750 0.182156
N1    N     N_2   0.476600 0.456420 0.038510 -0.211176
N2    N     N_2   0.523400 0.543580 0.961490 -0.211176
O1    O     O_R   0.506070 0.286130 0.619780 -0.586414
O2    O     O_R   0.493930 0.713870 0.380220 -0.586413
O3    O     O_R   0.490300 0.256770 0.308360 -0.581897
O4    O     O_R   0.509700 0.743230 0.691640 -0.581897
O5    O     O_R   0.386960 0.514660 0.655680 -0.583684
O6    O     O_R   0.613040 0.485340 0.344320 -0.583685
O7    O     O_R   0.371190 0.485310 0.344260 -0.564095
O8    O     O_R   0.628810 0.514690 0.655740 -0.564095
Br1   Br    Br    0.053403 0.210827 0.171663 -0.319586
Br2   Br    Br    0.946597 0.789173 0.828337 -0.319586
Br3   Br    Br    0.921890 0.165413 0.568229 -0.320267
Br4   Br    Br    0.078110 0.834587 0.431771 -0.320267
H5    H     H_    0.434376 0.377429 0.948722 0.233316
H6    H     H_    0.565624 0.622571 0.051278 0.233316

loop_
_geom_bond_atom_site_label_1
_geom_bond_atom_site_label_2
_ccdc_geom_bond_type
C10   Br2   S    
C9    C14   S    
C15   C17   S    
C4    C12   S    
Cu1   O1    S    
Cu1   Cu2   S    
C5    H3    S    
C2    O4    A    
Cu1   O5    S    
C1    O3    A    
C7    Br3   S    
C6    H4    S    
C10   C16   S    
N1    H5    S    
C3    O5    A    
N2    H6    S    
C4    O6    A    
C8    Br4   S    
C8    C14   S    
C1    C5    S    
Cu2   O7    S    
C14   H1    S    
C8    C10   S    
C7    C16   S    
C13   H2    S    
C8    C15   S    
C4    O8    A    
Cu2   O3    S    
C13   C15   S    
C9    C15   S    
C5    C6    D    
C14   C16   S    
C3    C11   S    
Cu2   N1    S    
C3    O7    A    
C9    Br1   S    
C7    C9    S    
C7    C13   S    
C16   C18   S    
Cu2   O6    S    
C12   C18   T    
C1    O1    A    
Cu1   N2    S    
C11   C17   T    
C2    O2    A    
Cu2   O2    S    
N1    N2    D    
Cu1   O4    S    
Cu1   O8    S    
C2    C6    S    
C10   C13   S    
