data_mof_unit_2377.cif
_audit_creation_date              2012-12-10T16:49:27-0500
_audit_creation_method            fapswitch 2.2
_symmetry_space_group_name_H-M    P1
_symmetry_Int_Tables_number       1
_space_group_crystal_system       triclinic
_cell_length_a                    7.844223
_cell_length_b                    8.549394
_cell_length_c                    12.88332
_cell_angle_alpha                 88.569813
_cell_angle_beta                  88.242998
_cell_angle_gamma                 93.695272
_cell_volume                      861.482699321

loop_
_atom_site_label
_atom_site_type_symbol
_atom_type_description
_atom_site_fract_x
_atom_site_fract_y
_atom_site_fract_z
_atom_type_partial_charge
Br1   Br    Br    0.985043 0.707505 0.388413 -0.371223
Br2   Br    Br    0.004908 0.268995 0.588084 -0.443001
C1    C     C_R   0.455058 0.205665 0.497173 0.943152
C2    C     C_R   0.720112 0.512976 0.138102 0.499364
C3    C     C_R   0.595263 0.543197 0.867091 -0.310855
C4    C     C_R   0.411945 0.532291 0.131269 -0.311785
C5    C     C_R   0.585291 0.544089 0.974040 0.113164
C6    C     C_R   0.423611 0.537103 0.024821 0.107812
C7    C     C_2   0.431600 0.041943 0.495403 -0.361646
C8    C     C_2   0.568649 0.958141 0.503426 -0.361255
C9    C     C_3   0.896504 0.321542 0.179741 0.051119
C10   C     C_3   0.997217 0.264340 0.270651 -0.697485
C11   C     C_3   0.108123 0.274566 0.842972 0.126548
C12   C     C_R   0.545043 0.794368 0.502400 0.955207
C13   C     C_3   0.916118 0.235483 0.855643 -0.792115
C14   C     C_R   0.466062 0.502220 0.699821 0.881002
C15   C     C_R   0.534484 0.500484 0.300228 0.887026
C16   C     C_R   0.557982 0.515248 0.188596 -0.167728
C17   C     C_R   0.446659 0.513889 0.811232 -0.174804
C18   C     C_R   0.274758 0.520050 0.969232 -0.299976
C19   C     C_R   0.733599 0.539183 0.030934 -0.321306
C20   C     C_R   0.285653 0.493241 0.863506 0.480475
H1    H     H_    0.286268 0.531921 0.168760 0.214397
H2    H     H_    0.029755 0.141446 0.258660 0.205461
H3    H     H_    0.117056 0.338697 0.277380 0.261494
H4    H     H_    0.166357 0.237052 0.916902 0.102481
H5    H     H_    0.161345 0.202334 0.780929 0.185443
H6    H     H_    0.889322 0.106294 0.858076 0.217962
H7    H     H_    0.867209 0.282310 0.929324 0.213638
H8    H     H_    0.846977 0.286766 0.790601 0.297675
H9    H     H_    0.720195 0.555667 0.828189 0.212038
H10   H     H_    0.151035 0.508759 0.009156 0.161651
H11   H     H_    0.857947 0.543007 0.991880 0.167792
H12   H     H_    0.302042 0.990962 0.487767 0.215884
H13   H     H_    0.698220 0.009129 0.510900 0.215637
H14   H     H_    0.973481 0.309292 0.106936 0.132784
H15   H     H_    0.777225 0.243023 0.177076 0.129331
H16   H     H_    0.919541 0.268520 0.343863 0.272712
N1    N     N_2   0.054030 0.541640 0.471970 0.086019
N2    N     N_2   0.945970 0.458360 0.528030 0.082687
O1    O     O_R   0.609680 0.261530 0.506880 -0.609551
O2    O     O_3   0.141123 0.435759 0.814510 -0.585745
O3    O     O_R   0.390320 0.738470 0.493120 -0.603131
O4    O     O_R   0.323330 0.288220 0.488910 -0.592977
O5    O     O_R   0.676670 0.711780 0.511090 -0.588387
O6    O     O_R   0.619510 0.488830 0.661140 -0.622556
O7    O     O_R   0.380490 0.511170 0.338860 -0.633269
O8    O     O_R   0.333160 0.515520 0.643180 -0.555823
O9    O     O_R   0.666840 0.484480 0.356820 -0.554611
O10   O     O_3   0.863678 0.481032 0.192511 -0.573352
Zn1   Zn    Zn3+2 0.691200 0.482180 0.511990 1.055472
Zn2   Zn    Zn3+2 0.308800 0.517820 0.488010 1.057154

loop_
_geom_bond_atom_site_label_1
_geom_bond_atom_site_label_2
_ccdc_geom_bond_type
C9    C10   S    
C13   H7    S    
O7    Zn2   S    
C3    C17   A    
N2    Zn1   S    
C7    C8    D    
C10   H2    S    
C10   H3    S    
C2    C16   A    
C14   O8    A    
C15   C16   S    
C5    C6    A    
C9    O10   S    
C6    C18   A    
C2    C19   A    
O4    Zn2   S    
C13   H6    S    
C20   O2    S    
C4    C16   A    
C14   C17   S    
C1    C7    S    
C4    H1    S    
C11   O2    S    
C18   C20   A    
N1    Zn2   S    
C12   O5    A    
C1    O4    A    
C11   C13   S    
C10   H16   S    
C7    H12   S    
O3    Zn2   S    
C8    H13   S    
C11   H4    S    
C19   H11   S    
Br1   N1    S    
C14   O6    A    
C8    C12   S    
Br2   N2    S    
O8    Zn2   S    
C17   C20   A    
C13   H8    S    
C3    C5    A    
C18   H10   S    
C15   O9    A    
N1    N2    D    
C9    H15   S    
O5    Zn1   S    
C11   H5    S    
C4    C6    A    
C3    H9    S    
C5    C19   A    
O6    Zn1   S    
O1    Zn1   S    
C1    O1    A    
C15   O7    A    
C2    O10   S    
C12   O3    A    
O9    Zn1   S    
C9    H14   S    
