data_mof_unit_4490.cif
_audit_creation_date              2012-12-10T17:47:42-0500
_audit_creation_method            fapswitch 2.2
_symmetry_space_group_name_H-M    P1
_symmetry_Int_Tables_number       1
_space_group_crystal_system       triclinic
_cell_length_a                    10.619255
_cell_length_b                    10.608658
_cell_length_c                    9.981343
_cell_angle_alpha                 88.907729
_cell_angle_beta                  90.272378
_cell_angle_gamma                 92.878323
_cell_volume                      1122.82785381

loop_
_atom_site_label
_atom_site_type_symbol
_atom_type_description
_atom_site_fract_x
_atom_site_fract_y
_atom_site_fract_z
_atom_type_partial_charge
C1    C     C_R   0.505138 0.261087 0.500941 0.885585
C2    C     C_3   0.878781 0.505027 0.501244 0.169072
C3    C     C_3   0.932905 0.615674 0.411537 -0.392490
C4    C     C_3   0.921837 0.378546 0.446734 -0.393417
C5    C     C_R   0.707167 0.137373 0.642662 -0.307854
C6    C     C_R   0.805658 0.075319 0.703369 -0.231600
C7    C     C_R   0.812237 0.944433 0.692452 0.599918
C8    C     C_R   0.715163 0.875912 0.627082 -0.296033
C9    C     C_R   0.613973 0.937732 0.566108 0.032185
C10   C     C_R   0.611442 0.069443 0.571355 0.092285
C11   C     C_R   0.514062 0.128820 0.501641 -0.092046
C12   C     C_R   0.258196 0.503000 0.500061 0.848254
C13   C     C_R   0.423616 0.061795 0.426317 -0.231394
C14   C     C_R   0.423834 0.933255 0.424774 -0.219361
C15   C     C_R   0.516054 0.872085 0.496291 -0.061365
C16   C     C_R   0.314638 0.359376 0.147156 -0.268135
C17   C     C_R   0.205182 0.313948 0.086067 -0.373493
C18   C     C_R   0.196176 0.318529 0.948861 0.524875
C19   C     C_R   0.303630 0.353569 0.872214 0.413575
C20   C     C_R   0.405467 0.429286 0.930607 -0.015775
C21   C     C_R   0.407516 0.430567 0.074904 0.127069
C22   C     C_R   0.588805 0.566528 0.070086 -0.092838
C23   C     C_R   0.505056 0.739262 0.498871 0.847213
C24   C     C_R   0.588882 0.566445 0.927544 -0.097838
C25   C     C_R   0.742079 0.502846 0.500358 0.793586
C26   C     C_3   0.073157 0.525491 0.645378 -0.364317
C27   C     C_3   0.930040 0.522678 0.646011 -0.382570
C28   C     C_3   0.077551 0.614295 0.409381 -0.401046
C29   C     C_3   0.065947 0.377543 0.450102 -0.404126
C30   C     C_3   0.121652 0.505292 0.501054 0.164806
H1    H     H_    0.111600 0.617405 0.684049 0.165858
H2    H     H_    0.887835 0.365252 0.342003 0.190088
H3    H     H_    0.109469 0.601950 0.304568 0.195957
H4    H     H_    0.896252 0.607357 0.307237 0.185186
H5    H     H_    0.350119 0.109152 0.372310 0.146455
H6    H     H_    0.708426 0.238724 0.650889 0.181704
H7    H     H_    0.877461 0.129435 0.757962 0.205486
H8    H     H_    0.722183 0.774810 0.621336 0.151735
H9    H     H_    0.350096 0.881016 0.370534 0.149330
H10   H     H_    0.661621 0.621347 0.122308 0.140789
H11   H     H_    0.104299 0.449837 0.714295 0.239712
H12   H     H_    0.323818 0.336618 0.250797 0.235316
H13   H     H_    0.130265 0.267244 0.144308 0.193163
H14   H     H_    0.661657 0.621165 0.873625 0.148929
H15   H     H_    0.893983 0.443631 0.712734 0.203540
H16   H     H_    0.898418 0.612333 0.687856 0.202851
H17   H     H_    0.119122 0.706443 0.444209 0.145855
H18   H     H_    0.903570 0.707287 0.450485 0.158982
H19   H     H_    0.100864 0.360282 0.347978 0.168984
H20   H     H_    0.095937 0.298935 0.516615 0.186872
H21   H     H_    0.882058 0.297960 0.508117 0.165502
N1    N     N_R   0.498810 0.498800 0.142780 -0.098806
N2    N     N_R   0.498760 0.498720 0.857170 -0.094421
O1    O     O_R   0.500000 0.316780 0.614690 -0.559007
O2    O     O_R   0.499990 0.316750 0.385360 -0.633601
O3    O     O_R   0.314800 0.499990 0.614670 -0.574261
O4    O     O_R   0.314790 0.499970 0.385330 -0.647279
O5    O     O_R   0.500010 0.683250 0.614640 -0.621380
O6    O     O_R   0.500000 0.683220 0.385310 -0.611631
O7    O     O_R   0.685210 0.500030 0.614670 -0.644822
O8    O     O_R   0.685200 0.500010 0.385330 -0.622277
Zn1   Zn    Zn3+2 0.500010 0.500020 0.653130 0.972755
Zn2   Zn    Zn3+2 0.499990 0.499980 0.346870 0.939391
O9    O     O_3   0.908570 0.880608 0.752470 -0.613720
C31   C     C_3   0.022282 0.912053 0.684297 -0.361279
H22   H     H_    0.054475 0.011934 0.700506 0.190344
H23   H     H_    0.013453 0.893442 0.575182 0.150703
H24   H     H_    0.096400 0.851997 0.725031 0.192699
F1    F     F_    0.090867 0.266724 0.889697 -0.698062
O10   O     O_3   0.309903 0.301084 0.747857 -0.555500
C32   C     C_3   0.320699 0.168485 0.761927 -0.258903
H25   H     H_    0.248603 0.120487 0.827975 0.178854
H26   H     H_    0.416308 0.146887 0.798999 0.169288
H27   H     H_    0.305863 0.125706 0.662546 0.165895

loop_
_geom_bond_atom_site_label_1
_geom_bond_atom_site_label_2
_ccdc_geom_bond_type
O5    Zn1   S    
C32   H27   S    
C2    C4    S    
C1    O1    A    
C17   H13   S    
C28   H17   S    
C13   H5    S    
O10   C32   S    
C25   O7    A    
C23   O5    A    
N2    Zn1   S    
C12   C30   S    
O6    Zn2   S    
C4    C29   S    
C1    C11   S    
C31   H24   S    
C22   H10   S    
O9    C31   S    
C27   H15   S    
C18   F1    S    
C15   C23   S    
C17   C18   A    
C1    O2    A    
C6    H7    S    
C7    C8    A    
C25   O8    A    
C2    C27   S    
C23   O6    A    
C11   C13   A    
C26   C27   S    
C29   C30   S    
C8    H8    S    
O8    Zn2   S    
C12   O4    A    
C20   N2    A    
C27   H16   S    
C28   C30   S    
C3    C28   S    
C12   O3    A    
C28   H3    S    
C26   C30   S    
C6    C7    A    
C2    C3    S    
C29   H20   S    
C9    C15   A    
C5    C6    A    
C24   H14   S    
C22   C24   A    
C7    O9    S    
C14   H9    S    
C16   C17   A    
C10   C11   A    
C4    H21   S    
C4    H2    S    
C5    H6    S    
C16   H12   S    
C3    H18   S    
C5    C10   A    
C32   H25   S    
C20   C21   A    
C26   H11   S    
O7    Zn1   S    
C31   H22   S    
C26   H1    S    
C32   H26   S    
C14   C15   A    
C18   C19   A    
C19   O10   S    
C29   H19   S    
O1    Zn1   S    
C3    H4    S    
C22   N1    A    
C24   N2    A    
C13   C14   A    
C16   C21   A    
O3    Zn1   S    
C21   N1    A    
C2    C25   S    
C19   C20   A    
O4    Zn2   S    
C9    C10   A    
C8    C9    A    
C31   H23   S    
N1    Zn2   S    
O2    Zn2   S    
