data_mof_unit_2886.cif
_audit_creation_date              2012-12-10T18:16:29-0500
_audit_creation_method            fapswitch 2.2
_symmetry_space_group_name_H-M    P1
_symmetry_Int_Tables_number       1
_space_group_crystal_system       triclinic
_cell_length_a                    12.559589
_cell_length_b                    13.191365
_cell_length_c                    27.351591
_cell_angle_alpha                 90.743565
_cell_angle_beta                  102.33044
_cell_angle_gamma                 81.633377
_cell_volume                      4379.14402

loop_
_atom_site_label
_atom_site_type_symbol
_atom_type_description
_atom_site_fract_x
_atom_site_fract_y
_atom_site_fract_z
_atom_type_partial_charge
C1    C     C_R   0.438860 0.691199 0.494695 0.849215
C2    C     C_R   0.374808 0.470298 0.016878 0.019047
C3    C     C_R   0.574570 0.425172 0.032695 0.002351
C4    C     C_R   0.500885 0.499119 0.593877 0.948191
C5    C     C_R   0.475823 0.436861 0.050122 0.096744
C6    C     C_R   0.279541 0.493652 0.036412 -0.252521
C7    C     C_R   0.281330 0.481585 0.087218 0.443431
C8    C     C_R   0.381853 0.439732 0.120258 -0.148576
C9    C     C_R   0.479025 0.416062 0.101042 -0.141156
C10   C     C_R   0.580621 0.374109 0.132826 -0.141697
C11   C     C_R   0.586122 0.373171 0.184690 0.602347
C12   C     C_R   0.500784 0.597763 0.722286 -0.052730
C13   C     C_R   0.391921 0.424995 0.172134 0.590395
C14   C     C_R   0.546230 0.509087 0.273765 -0.138166
C15   C     C_R   0.546118 0.538612 0.322955 0.467360
C16   C     C_R   0.561566 0.309086 0.505516 0.920330
C17   C     C_R   0.461929 0.387358 0.334281 -0.229439
C18   C     C_R   0.462769 0.359287 0.285282 -0.062881
C19   C     C_R   0.504105 0.420641 0.254896 0.166844
C20   C     C_R   0.372768 0.480777 0.965058 0.041970
C21   C     C_R   0.472827 0.480724 0.949377 0.055891
C22   C     C_R   0.574588 0.463789 0.984768 -0.044258
C23   C     C_R   0.483641 0.511277 0.746768 0.223283
C24   C     C_R   0.273944 0.490571 0.928650 -0.274698
C25   C     C_R   0.669383 0.500593 0.920002 -0.176785
C26   C     C_R   0.668180 0.367046 0.061784 -0.174472
C27   C     C_R   0.672836 0.340081 0.111344 0.454846
C28   C     C_R   0.499297 0.499217 0.405864 0.917050
C29   C     C_R   0.671193 0.486434 0.970455 0.351950
C30   C     C_R   0.694182 0.063317 0.464330 -0.064003
C31   C     C_R   0.598911 0.200446 0.504235 -0.059705
C32   C     C_R   0.328197 0.829181 0.529660 -0.119395
C33   C     C_R   0.317970 0.926905 0.548958 -0.063141
C34   C     C_R   0.471646 0.497004 0.898260 -0.098466
C35   C     C_R   0.386874 0.995161 0.540332 -0.071904
C36   C     C_R   0.463684 0.968714 0.509291 0.107057
C37   C     C_R   0.468736 0.871140 0.487327 0.080171
C38   C     C_R   0.538016 0.034306 0.500440 0.057292
C39   C     C_R   0.618302 0.000140 0.471892 0.119578
C40   C     C_R   0.378137 0.514222 0.810811 0.570796
C41   C     C_R   0.618781 0.905416 0.449307 -0.119779
C42   C     C_R   0.542875 0.843541 0.455614 -0.114882
C43   C     C_R   0.531321 0.134981 0.516785 -0.156126
C44   C     C_R   0.684743 0.163601 0.480766 -0.173255
C45   C     C_R   0.371343 0.506255 0.861677 -0.147023
C46   C     C_R   0.404035 0.800218 0.499607 -0.063834
C47   C     C_R   0.104942 0.318390 0.447715 0.377565
C48   C     C_R   0.803239 0.639830 0.551975 0.429416
C49   C     C_R   0.874604 0.700189 0.535773 0.200851
C50   C     C_R   0.941232 0.653990 0.503094 0.152597
C51   C     C_R   0.944211 0.547583 0.494718 -0.105767
C52   C     C_R   0.572867 0.512226 0.833299 0.565078
C53   C     C_R   0.848971 0.505848 0.498174 0.070327
C54   C     C_R   0.032129 0.483218 0.479331 -0.014496
C55   C     C_R   0.013543 0.387350 0.456999 -0.106281
C56   C     C_R   0.270806 0.504119 0.877771 0.418177
C57   C     C_R   0.904117 0.365918 0.445083 0.425331
C58   C     C_R   0.826665 0.419449 0.469485 -0.163485
C59   C     C_R   0.140145 0.507643 0.489229 0.080529
C60   C     C_R   0.206186 0.353317 0.453280 -0.041820
C61   C     C_R   0.476074 0.418745 0.721743 -0.181102
C62   C     C_R   0.484887 0.411664 0.671834 0.389034
C63   C     C_R   0.508904 0.592014 0.672421 -0.217650
C64   C     C_R   0.571954 0.502606 0.883832 -0.066517
C65   C     C_R   0.500677 0.499683 0.646961 -0.145670
C66   C     C_R   0.502566 0.477023 0.353608 -0.130871
H1    H     H_    0.464309 0.352412 0.741756 0.185073
H2    H     H_    0.284531 0.773063 0.542064 0.148231
H3    H     H_    0.261006 0.947817 0.573299 0.182598
H4    H     H_    0.544876 0.771917 0.436414 0.222647
H5    H     H_    0.275771 0.303660 0.444602 0.179493
H6    H     H_    0.747157 0.396773 0.461955 0.210625
H7    H     H_    0.203294 0.528059 0.012794 0.213483
H8    H     H_    0.197564 0.483318 0.939134 0.185489
H9    H     H_    0.518743 0.660262 0.653350 0.203059
H10   H     H_    0.737483 0.340070 0.045246 0.223356
H11   H     H_    0.830291 0.135460 0.197353 0.411600
H12   H     H_    0.744524 0.513240 0.909143 0.215410
H13   H     H_    0.887740 0.587154 0.969902 0.386656
H14   H     H_    0.379239 0.066716 0.559551 0.182953
H15   H     H_    0.700939 0.314234 0.334707 0.402014
H16   H     H_    0.035897 0.069587 0.477477 0.421742
H17   H     H_    0.159895 0.576109 0.509185 0.136137
H18   H     H_    0.814246 0.740443 0.678773 0.397556
H19   H     H_    0.031340 0.449627 0.875762 0.367271
H20   H     H_    0.098435 0.773486 0.526223 0.337618
H21   H     H_    0.771777 0.947578 0.585287 0.392092
H22   H     H_    0.654139 0.777062 0.309309 0.404966
H23   H     H_    0.429726 0.338402 0.357368 0.181168
H24   H     H_    0.574823 0.556834 0.248853 0.208871
H25   H     H_    0.000682 0.619543 0.074118 0.436447
H26   H     H_    0.558914 0.187207 0.704483 0.369529
H27   H     H_    0.429393 0.291176 0.270607 0.186871
H28   H     H_    0.737870 0.214380 0.471395 0.194138
H29   H     H_    0.676500 0.879791 0.425843 0.207018
H30   H     H_    0.756646 0.036975 0.443319 0.216362
H31   H     H_    0.506901 0.669309 0.741816 0.169693
H32   H     H_    0.467189 0.167988 0.535192 0.205378
N1    N     N_R   0.477587 0.515375 0.798265 -0.358058
N2    N     N_R   0.493289 0.400574 0.202750 -0.359317
N3    N     N_R   0.222180 0.444690 0.474320 -0.135922
N4    N     N_R   0.776980 0.554780 0.525420 -0.182183
O1    O     O_R   0.366730 0.627160 0.487740 -0.599387
O2    O     O_R   0.410930 0.482330 0.420550 -0.609587
O3    O     O_R   0.589030 0.517690 0.436960 -0.586696
O4    O     O_2   0.287918 0.518999 0.773675 -0.434637
O5    O     O_2   0.854320 0.206715 0.105851 -0.247328
O6    O     O_2   0.867684 0.324354 0.176043 -0.157375
O7    O     O_3   0.759221 0.170757 0.177801 -0.493445
O8    O     O_2   0.759196 0.555209 0.062000 -0.219400
O9    O     O_2   0.879171 0.432011 0.022463 -0.263324
O10   O     O_3   0.831637 0.619290 0.988104 -0.492519
O11   O     O_2   0.919892 0.309906 0.351731 -0.188193
O12   O     O_2   0.302892 0.437034 0.192768 -0.432297
O13   O     O_2   0.853551 0.188416 0.401565 -0.253977
O14   O     O_3   0.722006 0.351267 0.366220 -0.594269
O15   O     O_2   0.075305 0.150780 0.391528 -0.160843
O16   O     O_2   0.224434 0.132081 0.465417 -0.338846
O17   O     O_3   0.025903 0.145303 0.479540 -0.513866
O18   O     O_2   0.647644 0.718070 0.601071 -0.306264
O19   O     O_2   0.767937 0.559692 0.635340 -0.255426
O20   O     O_3   0.847641 0.728414 0.649125 -0.440799
O21   O     O_2   0.118253 0.618335 0.808171 -0.163786
O22   O     O_2   0.129417 0.431778 0.801671 -0.217901
O23   O     O_2   0.668709 0.515838 0.818938 -0.503880
O24   O     O_3   0.037593 0.522353 0.870089 -0.519095
O25   O     O_2   0.034627 0.666532 0.422055 -0.225444
O26   O     O_2   0.889858 0.802472 0.432497 -0.201363
O27   O     O_3   0.082068 0.798902 0.491145 -0.482472
O28   O     O_2   0.974513 0.828882 0.600476 -0.238382
O29   O     O_2   0.894150 0.900318 0.516954 -0.252448
O30   O     O_3   0.761775 0.877206 0.574109 -0.491856
O31   O     O_2   0.486622 0.728891 0.349360 -0.329666
O32   O     O_2   0.673973 0.647727 0.388818 -0.284555
O33   O     O_3   0.636481 0.709580 0.296442 -0.501240
O34   O     O_2   0.683369 0.350856 0.217401 -0.438483
O35   O     O_2   0.111040 0.439894 0.124888 -0.153128
O36   O     O_2   0.178344 0.603722 0.147659 -0.211493
O37   O     O_3   0.061437 0.587151 0.058681 -0.521778
O38   O     O_2   0.377804 0.295878 0.602549 -0.260439
O39   O     O_2   0.579323 0.266556 0.619070 -0.338291
O40   O     O_3   0.482623 0.198197 0.684206 -0.511431
O41   O     O_R   0.544830 0.662520 0.504140 -0.595583
O42   O     O_R   0.410970 0.482310 0.563040 -0.594777
O43   O     O_R   0.589070 0.517670 0.579450 -0.525061
O44   O     O_R   0.455170 0.337480 0.495860 -0.618229
O45   O     O_R   0.633270 0.372840 0.512260 -0.637977
S1    S     S_3+6 0.793513 0.259933 0.142932 0.136554
S2    S     S_3+6 0.156386 0.528014 0.106454 0.133755
S3    S     S_3+6 0.481109 0.291405 0.642561 0.031880
S4    S     S_3+6 0.787667 0.521294 0.013099 0.059062
S5    S     S_3+6 0.852469 0.299640 0.390195 0.086164
S6    S     S_3+6 0.108891 0.183287 0.444761 0.091070
S7    S     S_3+6 0.762916 0.661203 0.610041 0.115909
S8    S     S_3+6 0.137500 0.519275 0.837441 0.120454
S9    S     S_3+6 0.987013 0.730340 0.460288 0.126708
S10   S     S_3+6 0.879258 0.829342 0.556556 0.093130
S11   S     S_3+6 0.586593 0.658627 0.341404 0.041269
Zn1   Zn    Zn3+2 0.381080 0.476390 0.489050 1.025746
Zn2   Zn    Zn3+2 0.618920 0.523610 0.510950 1.062979

loop_
_geom_bond_atom_site_label_1
_geom_bond_atom_site_label_2
_ccdc_geom_bond_type
C10   C27   A    
C23   N1    S    
C63   C65   A    
C8    C13   A    
C22   C29   A    
C41   C42   A    
C35   C36   A    
C43   H32   S    
C30   C44   A    
C40   N1    A    
C7    C8    A    
C39   C41   A    
O21   S8    D    
C16   C31   S    
O19   S7    D    
C12   C23   A    
C17   C66   A    
C31   C43   A    
H13   O10   S    
C16   O45   A    
C47   C55   A    
C36   C37   A    
C59   H17   S    
C18   C19   A    
C4    C65   S    
C1    C46   S    
O3    Zn2   S    
H18   O20   S    
C57   S5    S    
C35   H14   S    
C42   H4    S    
O16   S6    D    
C16   O44   A    
O31   S11   D    
C37   C42   A    
O29   S10   D    
C61   H1    S    
C14   H24   S    
C30   H30   S    
C47   C60   A    
C7    S2    S    
C20   C24   A    
C45   C56   A    
C50   S9    S    
C8    C9    A    
O13   S5    D    
C26   H10   S    
H26   O40   S    
C9    C10   A    
C1    O1    A    
C13   O12   S    
C33   H3    S    
C32   H2    S    
O24   S8    S    
O17   S6    S    
O33   S11   S    
C21   C22   A    
O20   S7    S    
O11   S5    D    
C49   S10   S    
H19   O24   S    
C2    C6    A    
H16   O17   S    
C56   S8    S    
O45   Zn2   S    
C34   C64   A    
O39   S3    D    
C50   C51   A    
C54   C59   A    
O1    Zn1   S    
O36   S2    D    
C25   C29   A    
C40   C45   A    
C31   C44   A    
C2    C20   A    
C25   H12   S    
C59   N3    A    
O41   Zn2   S    
C17   H23   S    
C15   S11   S    
O8    S4    D    
C52   C64   A    
N4    Zn2   S    
O43   Zn2   S    
C27   S1    S    
C21   C34   A    
C47   S6    S    
C60   H5    S    
C15   C66   A    
O37   S2    S    
C11   N2    A    
C51   C53   A    
C25   C64   A    
C38   C39   A    
H21   O30   S    
C28   C66   S    
C5    C9    A    
C1    O41   A    
C29   S4    S    
C28   O2    A    
C53   N4    A    
C52   O23   S    
C48   N4    A    
O18   S7    D    
C17   C18   A    
C26   C27   A    
O10   S4    S    
C34   C45   A    
O42   Zn1   S    
H11   O7    S    
C12   H31   S    
H25   O37   S    
C48   C49   A    
O35   S2    D    
C28   O3    A    
O28   S10   D    
O15   S6    D    
C2    C5    A    
O2    Zn1   S    
C60   N3    A    
O38   S3    D    
O14   S5    S    
C6    H7    S    
C40   O4    S    
C12   C63   A    
C48   S7    S    
C54   C55   A    
C62   S3    S    
C62   C65   A    
O32   S11   D    
C32   C46   A    
C14   C19   A    
C3    C26   A    
H22   O33   S    
C3    C5    A    
O9    S4    D    
O25   S9    D    
C4    O42   A    
O27   S9    S    
C53   C58   A    
C24   H8    S    
H20   O27   S    
C6    C7    A    
O44   Zn1   S    
C24   C56   A    
C52   N1    A    
O30   S10   S    
C51   C54   A    
C32   C33   A    
O40   S3    S    
C13   N2    A    
C55   C57   A    
C38   C43   A    
C11   O34   S    
C19   N2    S    
O5    S1    D    
C58   H6    S    
C57   C58   A    
C41   H29   S    
C63   H9    S    
C4    O43   A    
H15   O14   S    
C36   C38   A    
C33   C35   A    
C30   C39   A    
C61   C62   A    
C44   H28   S    
C10   C11   A    
O26   S9    D    
O7    S1    S    
C23   C61   A    
C20   C21   A    
N3    Zn1   S    
C49   C50   A    
O22   S8    D    
C18   H27   S    
C14   C15   A    
C3    C22   A    
C37   C46   A    
O6    S1    D    
