data_mof_unit_2815.cif
_audit_creation_date              2012-12-10T18:05:53-0500
_audit_creation_method            fapswitch 2.2
_symmetry_space_group_name_H-M    P1
_symmetry_Int_Tables_number       1
_space_group_crystal_system       triclinic
_cell_length_a                    12.635356
_cell_length_b                    13.063407
_cell_length_c                    14.956522
_cell_angle_alpha                 92.273702
_cell_angle_beta                  102.579101
_cell_angle_gamma                 82.233221
_cell_volume                      2387.23904869

loop_
_atom_site_label
_atom_site_type_symbol
_atom_type_description
_atom_site_fract_x
_atom_site_fract_y
_atom_site_fract_z
_atom_type_partial_charge
C1    C     C_R   0.440429 0.688278 0.474294 0.848877
C2    C     C_R   0.404422 0.483673 0.074607 0.149633
C3    C     C_R   0.654511 0.611174 0.080427 0.207333
C4    C     C_R   0.659386 0.605670 0.987325 -0.076510
C5    C     C_R   0.578182 0.560284 0.923639 0.011085
C6    C     C_R   0.491360 0.523108 0.953025 0.050283
C7    C     C_R   0.408002 0.480350 0.889835 0.142489
C8    C     C_R   0.322065 0.443687 0.918716 -0.223776
C9    C     C_R   0.320411 0.445131 0.011002 -0.225934
C10   C     C_R   0.581725 0.549880 0.831055 -0.240935
C11   C     C_R   0.499332 0.506939 0.769354 -0.071017
C12   C     C_R   0.500551 0.501098 0.673181 0.882116
C13   C     C_R   0.412425 0.473207 0.798516 -0.260848
C14   C     C_R   0.736141 0.051017 0.511478 0.009643
C15   C     C_R   0.596431 0.197490 0.513599 -0.071638
C16   C     C_R   0.294596 0.831226 0.403938 0.010023
C17   C     C_R   0.264376 0.938005 0.398616 -0.193251
C18   C     C_R   0.343056 0.004889 0.423508 -0.218069
C19   C     C_R   0.455998 0.966161 0.445032 0.101688
C20   C     C_R   0.485935 0.859462 0.437449 0.075039
C21   C     C_R   0.540483 0.029288 0.472468 0.073568
C22   C     C_R   0.652293 0.987649 0.479833 0.111983
C23   C     C_R   0.560630 0.308317 0.512571 0.924190
C24   C     C_R   0.676371 0.885308 0.452083 -0.239939
C25   C     C_R   0.594098 0.822606 0.429923 -0.161173
C26   C     C_R   0.516060 0.132430 0.494821 -0.269497
C27   C     C_R   0.706505 0.156555 0.526110 -0.189867
C28   C     C_R   0.406116 0.792899 0.435905 -0.195153
C29   C     C_R   0.077409 0.405638 0.332629 -0.295485
C30   C     C_R   0.804583 0.614415 0.622890 0.025457
C31   C     C_R   0.910171 0.639570 0.650508 -0.258275
C32   C     C_R   0.988647 0.602294 0.600879 -0.177547
C33   C     C_R   0.961390 0.540488 0.521912 -0.023260
C34   C     C_R   0.497963 0.502751 0.326834 0.905146
C35   C     C_R   0.851686 0.517779 0.494280 0.150973
C36   C     C_R   0.039692 0.497352 0.470722 -0.014354
C37   C     C_R   0.003307 0.453602 0.383179 0.125805
C38   C     C_R   0.893374 0.450617 0.349305 -0.275282
C39   C     C_R   0.823786 0.461886 0.409715 0.269130
C40   C     C_R   0.153086 0.493162 0.503008 -0.021549
C41   C     C_R   0.187823 0.401061 0.369446 0.017480
C42   C     C_R   0.406722 0.478160 0.167035 -0.264517
C43   C     C_R   0.492415 0.513297 0.230518 -0.081617
C44   C     C_R   0.572625 0.560165 0.202407 -0.188459
C45   C     C_R   0.572372 0.566756 0.109838 0.031803
C46   C     C_R   0.489120 0.525348 0.045721 0.019831
H1    H     H_    0.343637 0.443632 0.189466 0.151050
H2    H     H_    0.758566 0.852826 0.447623 0.167851
H3    H     H_    0.433507 0.164265 0.496874 0.162886
H4    H     H_    0.313301 0.086223 0.418023 0.138920
H5    H     H_    0.179791 0.969818 0.373456 0.149892
H6    H     H_    0.615930 0.745129 0.405669 0.180920
H7    H     H_    0.246591 0.368003 0.330019 0.131277
H8    H     H_    0.867644 0.415029 0.282540 0.193724
H9    H     H_    0.050165 0.371661 0.265639 0.141650
H10   H     H_    0.636408 0.589040 0.253558 0.202441
H11   H     H_    0.188439 0.528283 0.567041 0.121027
H12   H     H_    0.743815 0.642894 0.661928 0.137074
H13   H     H_    0.069165 0.625136 0.624045 0.132318
H14   H     H_    0.931247 0.687922 0.710418 0.142891
H15   H     H_    0.647734 0.575694 0.806082 0.165236
H16   H     H_    0.348507 0.439937 0.750316 0.159849
H17   H     H_    0.257495 0.411914 0.870138 0.147088
H18   H     H_    0.254762 0.414309 0.032823 0.139631
H19   H     H_    0.769303 0.206638 0.547649 0.183249
N1    N     N_R   0.222190 0.444670 0.452360 -0.105607
N2    N     N_R   0.776970 0.554790 0.547140 -0.123392
O1    O     O_R   0.366740 0.627160 0.477250 -0.599645
O2    O     O_R   0.544830 0.662520 0.507680 -0.626954
O3    O     O_R   0.410940 0.482340 0.616930 -0.629652
O4    O     O_R   0.589030 0.517700 0.647360 -0.630029
O5    O     O_R   0.455170 0.337480 0.492320 -0.627314
O6    O     O_R   0.633260 0.372840 0.522750 -0.569080
O7    O     O_R   0.410970 0.482300 0.352640 -0.637482
O8    O     O_R   0.589060 0.517660 0.383070 -0.604854
Zn1   Zn    Zn3+2 0.381090 0.476390 0.479680 0.942772
Zn2   Zn    Zn3+2 0.618910 0.523610 0.520320 0.960014
C47   C     C_R   0.854387 0.010075 0.533558 0.099225
C48   C     C_R   0.893361 0.928499 0.595729 -0.161453
C49   C     C_R   0.005605 0.895821 0.622349 -0.132393
C50   C     C_R   0.079889 0.944917 0.588155 -0.128466
C51   C     C_R   0.042023 0.025946 0.526357 -0.151127
C52   C     C_R   0.929871 0.058373 0.498966 -0.135954
H20   H     H_    0.837077 0.891550 0.624889 0.130123
H21   H     H_    0.035167 0.833333 0.670464 0.124845
H22   H     H_    0.166772 0.919883 0.609180 0.135188
H23   H     H_    0.099621 0.064153 0.500120 0.136850
H24   H     H_    0.901965 0.121833 0.451569 0.169014
C53   C     C_R   0.212720 0.762913 0.360500 0.140738
C54   C     C_R   0.109669 0.771360 0.383165 -0.189128
C55   C     C_R   0.030340 0.712324 0.336042 -0.085395
C56   C     C_R   0.052986 0.645297 0.265454 -0.062694
C57   C     C_R   0.155319 0.635875 0.242774 -0.149251
C58   C     C_R   0.234866 0.694508 0.289847 -0.081167
H25   H     H_    0.090542 0.823876 0.436646 0.150074
H26   H     H_    0.951172 0.718848 0.353988 0.163731
H27   H     H_    0.991681 0.599787 0.228695 0.169856
H28   H     H_    0.172620 0.583787 0.188167 0.123200
H29   H     H_    0.312975 0.688233 0.269975 0.111817
Br1   Br    Br    0.748543 0.342882 0.387728 -0.552700
Br2   Br    Br    0.757593 0.684188 0.165721 -0.611359
C59   C     C_R   0.750566 0.646111 0.957962 0.175341
C60   C     C_R   0.857101 0.593216 0.981036 -0.111712
C61   C     C_R   0.943246 0.631520 0.953926 -0.129445
C62   C     C_R   0.923482 0.722427 0.903346 -0.112755
C63   C     C_R   0.817538 0.775116 0.879675 -0.151236
C64   C     C_R   0.731246 0.737402 0.907126 -0.134573
H30   H     H_    0.873260 0.522687 0.020189 0.129863
H31   H     H_    0.025299 0.590743 0.972124 0.126410
H32   H     H_    0.990218 0.751924 0.882306 0.122957
H33   H     H_    0.802345 0.845260 0.840172 0.132854
H34   H     H_    0.649523 0.778938 0.888730 0.135348

loop_
_geom_bond_atom_site_label_1
_geom_bond_atom_site_label_2
_ccdc_geom_bond_type
C16   C28   A    
C7    C13   A    
C21   C26   A    
C57   C58   A    
C9    H18   S    
C64   H34   S    
O2    Zn2   S    
C19   C20   A    
N2    Zn2   S    
O5    Zn1   S    
C17   H5    S    
C50   C51   A    
C54   C55   A    
C7    C8    A    
C45   C46   A    
C2    C46   A    
C37   C38   A    
O7    Zn1   S    
C5    C6    A    
C36   C37   A    
C19   C21   A    
C62   H32   S    
C48   H20   S    
C20   C25   A    
C51   H23   S    
C33   C36   A    
C18   C19   A    
C53   C58   A    
C55   H26   S    
C47   C52   A    
C13   H16   S    
C8    C9    A    
C4    C59   S    
C1    C28   S    
C60   H30   S    
C14   C27   A    
C50   H22   S    
C34   O8    A    
C3    Br2   S    
C15   C23   S    
C52   H24   S    
C16   C53   S    
C40   N1    A    
C21   C22   A    
C23   O6    A    
C61   C62   A    
C56   H27   S    
C63   H33   S    
C38   C39   A    
C24   H2    S    
C36   C40   A    
C24   C25   A    
C26   H3    S    
C55   C56   A    
C47   C48   A    
C16   C17   A    
C15   C26   A    
C29   H9    S    
C3    C45   A    
C1    O2    A    
C31   H14   S    
C35   C39   A    
C43   C44   A    
C49   H21   S    
C27   H19   S    
C44   H10   S    
C15   C27   A    
C31   C32   A    
C38   H8    S    
C35   N2    A    
N1    Zn1   S    
C17   C18   A    
C59   C64   A    
O8    Zn2   S    
C41   H7    S    
C41   N1    A    
C34   O7    A    
C12   O4    A    
O3    Zn1   S    
C22   C24   A    
C10   H15   S    
C42   C43   A    
C3    C4    A    
O4    Zn2   S    
C44   C45   A    
C18   H4    S    
C12   O3    A    
C40   H11   S    
C6    C46   A    
C29   C41   A    
C23   O5    A    
C34   C43   S    
C30   N2    A    
C49   C50   A    
C54   H25   S    
C11   C12   S    
C6    C7    A    
O1    Zn1   S    
C20   C28   A    
C62   C63   A    
C32   C33   A    
C14   C22   A    
C25   H6    S    
C5    C10   A    
C11   C13   A    
C39   Br1   S    
C30   C31   A    
C58   H29   S    
C2    C42   A    
C30   H12   S    
C56   C57   A    
C33   C35   A    
C42   H1    S    
C14   C47   S    
C59   C60   A    
C10   C11   A    
C1    O1    A    
C8    H17   S    
C48   C49   A    
C4    C5    A    
C51   C52   A    
C63   C64   A    
C29   C37   A    
C60   C61   A    
O6    Zn2   S    
C61   H31   S    
C32   H13   S    
C53   C54   A    
C2    C9    A    
C57   H28   S    
