data_mof_unit_1204.cif
_audit_creation_date              2012-12-11T14:33:09-0500
_audit_creation_method            fapswitch 2.2
_symmetry_space_group_name_H-M    P1
_symmetry_Int_Tables_number       1
_space_group_crystal_system       triclinic
_cell_length_a                    6.937985
_cell_length_b                    13.898705
_cell_length_c                    17.910982
_cell_angle_alpha                 112.690446
_cell_angle_beta                  95.63036
_cell_angle_gamma                 90.400172
_cell_volume                      1583.88290051

loop_
_atom_site_label
_atom_site_type_symbol
_atom_type_description
_atom_site_fract_x
_atom_site_fract_y
_atom_site_fract_z
_atom_type_partial_charge
O1    O     O_R   0.484560 0.544530 0.414330 -0.554095
O2    O     O_R   0.197040 0.638810 0.585080 -0.524568
O3    O     O_R   0.026800 0.455470 0.585670 -0.483499
C1    C     C_R   0.374664 0.678945 0.610780 0.754835
O4    O     O_R   0.155000 0.556150 0.414940 -0.550838
O5    O     O_R   0.984450 0.372220 0.414320 -0.519780
C2    C     C_R   0.317657 0.565000 0.386715 0.704577
O6    O     O_R   0.526900 0.627780 0.585680 -0.531755
O7    O     O_3   0.339170 0.439750 0.499990 -0.294071
V1    V     V_3+5 0.064350 0.511180 0.500000 1.623288
O8    O     O_R   0.654880 0.361190 0.414920 -0.510256
C3    C     C_R   0.816971 0.324663 0.386544 0.654313
O9    O     O_R   0.696930 0.443850 0.585060 -0.510907
C4    C     C_R   0.873347 0.433047 0.612240 0.803263
V2    V     V_3+5 0.564340 0.488820 0.500000 1.669669
O10   O     O_3   0.839390 0.560250 0.500010 -0.407069
C5    C     C_R   0.041408 0.864102 0.823820 -0.248783
C6    C     C_R   0.906761 0.397400 0.680206 -0.063461
C7    C     C_R   0.926050 0.828291 0.683607 -0.218609
C8    C     C_R   0.976340 0.793548 0.745354 0.516322
C9    C     C_R   0.051034 0.972013 0.840601 0.458886
C10   C     C_R   0.000764 0.010392 0.777437 -0.016042
C11   C     C_R   0.937926 0.934624 0.698423 -0.025081
C12   C     C_R   0.007010 0.119089 0.788194 0.080832
C13   C     C_R   0.948503 0.147807 0.720283 0.066343
C14   C     C_R   0.888972 0.067958 0.644099 -0.163170
C15   C     C_R   0.884501 0.964172 0.633668 -0.148149
C16   C     C_R   0.071020 0.200359 0.863541 -0.143870
C17   C     C_R   0.074772 0.304118 0.873150 -0.151644
C18   C     C_R   0.017199 0.332560 0.808281 0.107666
C19   C     C_R   0.952560 0.255639 0.730515 0.075959
C20   C     C_R   0.026996 0.438333 0.821029 -0.180376
C21   C     C_R   0.973612 0.470109 0.757706 -0.127019
C22   C     C_R   0.896922 0.290605 0.666482 -0.222094
C23   C     C_2   0.133559 0.036983 0.183574 -0.367833
C24   C     C_2   0.970952 0.075732 0.218474 0.568149
C25   C     C_2   0.812439 0.220887 0.319462 0.390478
C26   C     C_2   0.975007 0.180057 0.285087 0.366107
C27   C     C_R   0.412043 0.784862 0.678615 -0.080760
C28   C     C_R   0.538077 0.470290 0.827764 -0.339861
C29   C     C_R   0.536091 0.886039 0.819456 -0.178995
C30   C     C_R   0.484889 0.790569 0.755833 -0.102322
C31   C     C_R   0.399731 0.879403 0.665762 -0.241996
C32   C     C_R   0.456006 0.979303 0.730424 0.092428
C33   C     C_R   0.521604 0.979712 0.807815 0.103210
C34   C     C_R   0.451039 0.078418 0.721628 0.068128
C35   C     C_R   0.507843 0.175597 0.790296 0.111439
C36   C     C_R   0.567322 0.168723 0.865524 -0.147762
C37   C     C_R   0.574684 0.073376 0.873695 -0.164209
C38   C     C_R   0.391619 0.083024 0.646060 -0.192505
C39   C     C_R   0.383463 0.177058 0.636784 -0.095571
C40   C     C_R   0.434792 0.271886 0.702041 -0.152950
C41   C     C_R   0.501173 0.275025 0.780609 -0.084963
C42   C     C_R   0.417258 0.363860 0.688012 0.534756
C43   C     C_R   0.464721 0.460902 0.749772 0.438441
C44   C     C_R   0.555128 0.377635 0.843756 0.467039
H1    H     H_    0.505344 0.720968 0.767573 0.205255
C45   C     C_2   0.313879 0.602481 0.319577 -0.274920
C46   C     C_2   0.475861 0.610957 0.285720 -0.182243
C47   C     C_2   0.633953 0.655888 0.183711 0.326835
C48   C     C_2   0.471266 0.647969 0.218062 0.517345
O11   O     O_R   0.421600 0.630430 0.917010 -0.552578
O12   O     O_R   0.793840 0.702190 0.087630 -0.501660
O13   O     O_R   0.964010 0.886170 0.088190 -0.499242
C49   C     C_R   0.631043 0.693334 0.116141 0.750750
O14   O     O_R   0.751460 0.619510 0.917500 -0.549202
O15   O     O_R   0.921330 0.802900 0.916840 -0.559563
C50   C     C_R   0.574177 0.578404 0.893341 0.844375
O16   O     O_R   0.464290 0.713700 0.088350 -0.527051
O17   O     O_3   0.609200 0.818520 0.002630 -0.379585
V3    V     V_3+5 0.884140 0.747190 0.002530 1.610640
O18   O     O_R   0.251150 0.814630 0.917340 -0.548948
C51   C     C_R   0.074612 0.825277 0.890175 0.829973
O19   O     O_R   0.293530 0.897310 0.087470 -0.525083
C52   C     C_R   0.131341 0.933609 0.116102 0.828697
V4    V     V_3+5 0.384070 0.769710 0.002370 1.584163
O20   O     O_3   0.109180 0.698190 0.002460 -0.377158
H2    H     H_    0.836536 0.905856 0.573681 0.116205
H3    H     H_    0.078818 0.496921 0.880287 0.153010
F1    F     F_    0.149049 0.234888 0.310948 -0.679082
F2    F     F_    0.799176 0.018736 0.193206 -0.631680
F3    F     F_    0.638102 0.166871 0.292692 -0.626341
H4    H     H_    0.270733 0.082040 0.204826 0.224187
H5    H     H_    0.623871 0.073014 0.932952 0.165075
F4    F     F_    0.622015 0.391546 0.920907 -0.710438
F5    F     F_    0.435175 0.546640 0.732886 -0.687900
H6    H     H_    0.334116 0.174890 0.576817 0.180224
H7    H     H_    0.590094 0.886537 0.878388 0.151483
H8    H     H_    0.848946 0.237633 0.605220 0.108211
H9    H     H_    0.348469 0.872009 0.604984 0.097335
H10   H     H_    0.610489 0.235218 0.920284 0.231769
H11   H     H_    0.348811 0.014565 0.592097 0.123279
F6    F     F_    0.349840 0.359621 0.613209 -0.650640
F7    F     F_    0.297040 0.674531 0.191267 -0.659577
H12   H     H_    0.613993 0.590074 0.308021 0.167643
F8    F     F_    0.806993 0.629700 0.211639 -0.684180
H13   H     H_    0.175271 0.622791 0.297263 0.239388
H14   H     H_    0.987709 0.551945 0.769653 0.207211
H15   H     H_    0.126243 0.363156 0.932386 0.163352
H16   H     H_    0.875579 0.771196 0.623486 0.154039
F9    F     F_    0.957692 0.690198 0.728245 -0.716850
F10   F     F_    0.101549 0.035458 0.919370 -0.723728
H17   H     H_    0.843765 0.082761 0.590500 0.124944
H18   H     H_    0.124235 0.188269 0.917133 0.230992

loop_
_geom_bond_atom_site_label_1
_geom_bond_atom_site_label_2
_ccdc_geom_bond_type
C13   C19   A    
O14   C50   A    
O12   C49   A    
C29   C30   A    
C4    C6    S    
O2    C1    A    
C23   C24   D    
O18   V4    S    
C15   H2    S    
C32   C33   A    
C23   C52   S    
C14   C15   A    
C17   C18   A    
O19   V4    S    
C37   H5    S    
C16   C17   A    
O5    C3    A    
C18   C19   A    
V2    O10   S    
C5    C8    A    
O16   V4    S    
C21   H14   S    
O13   V3    S    
C3    C25   S    
C42   F6    S    
C34   C35   A    
O8    V2    S    
C35   C36   A    
C40   C42   A    
C28   C44   A    
C36   H10   S    
O17   V3    S    
O15   C51   A    
C11   C15   A    
O7    V1    S    
C2    C45   S    
C1    O6    A    
C35   C41   A    
O9    C4    A    
C5    C51   S    
O11   V4    S    
C45   H13   S    
C46   H12   S    
C30   H1    S    
C32   C34   A    
C27   C30   A    
C46   C48   S    
C31   H9    S    
O19   C52   A    
C17   H15   S    
C39   C40   A    
V4    O20   S    
C39   H6    S    
O4    C2    A    
C23   H4    S    
C48   F7    S    
C27   C31   A    
C8    F9    S    
C45   C46   D    
C5    C9    A    
C47   C48   D    
C7    C11   A    
C31   C32   A    
C25   C26   D    
C14   H17   S    
C16   H18   S    
O14   V3    S    
C1    C27   S    
C33   C37   A    
C24   F2    S    
C7    H16   S    
C28   C43   A    
C38   C39   A    
C19   C22   A    
C12   C13   A    
C6    C22   A    
O3    C4    A    
O1    V2    S    
C9    F10   S    
C47   F8    S    
C38   H11   S    
C36   C37   A    
O12   V3    S    
C47   C49   S    
O6    V2    S    
O9    V2    S    
O17   V4    S    
C10   C12   A    
C25   F3    S    
O2    V1    S    
V3    O20   S    
C40   C41   A    
C41   C44   A    
C29   H7    S    
C42   C43   A    
O1    C2    A    
C12   C16   A    
O18   C51   A    
O5    V1    S    
O8    C3    A    
C34   C38   A    
O11   C50   A    
C20   C21   A    
C7    C8    A    
C24   C26   S    
C13   C14   A    
C22   H8    S    
O4    V1    S    
O3    V1    S    
V1    O10   S    
C20   H3    S    
C18   C20   A    
C44   F4    S    
C26   F1    S    
C43   F5    S    
C49   O16   A    
O13   C52   A    
O15   V3    S    
O7    V2    S    
C6    C21   A    
C28   C50   S    
C29   C33   A    
C10   C11   A    
C9    C10   A    
