data_mof_unit_702.cif
_audit_creation_date              2012-10-26T19:45:13-0400
_audit_creation_method            fapswitch 2.2
_symmetry_space_group_name_H-M    P1
_symmetry_Int_Tables_number       1
_space_group_crystal_system       triclinic
_cell_length_a                    9.59275
_cell_length_b                    10.774417
_cell_length_c                    13.866681
_cell_angle_alpha                 91.869012
_cell_angle_beta                  83.746881
_cell_angle_gamma                 88.798793
_cell_volume                      1423.49017773

loop_
_atom_site_label
_atom_site_type_symbol
_atom_type_description
_atom_site_fract_x
_atom_site_fract_y
_atom_site_fract_z
_atom_type_partial_charge
C1    C     C_R   0.498952 0.737449 0.498579 0.533252
C2    C     C_R   0.940302 0.420292 0.438427 0.129744
C3    C     C_1   0.539221 0.500029 0.213307 -0.032926
C4    C     C_1   0.460621 0.500313 0.786676 -0.036230
C5    C     C_2   0.558194 0.500313 0.022123 -0.124691
C6    C     C_2   0.441386 0.500460 0.977858 -0.125552
C7    C     C_1   0.450322 0.500382 0.873851 -0.061779
C8    C     C_1   0.549339 0.500190 0.126131 -0.058717
C9    C     C_R   0.426691 0.936704 0.430022 -0.005403
C10   C     C_R   0.570220 0.063683 0.572151 -0.006637
C11   C     C_R   0.430955 0.066197 0.434044 -0.123316
C12   C     C_R   0.500903 0.262633 0.501892 0.534540
C13   C     C_R   0.568056 0.934054 0.567063 -0.123752
C14   C     C_3   0.109934 0.660211 0.642079 -0.251705
C15   C     C_3   0.072125 0.610074 0.743254 -0.446641
C16   C     C_3   0.888946 0.324474 0.368893 -0.253872
C17   C     C_3   0.921408 0.191934 0.397677 -0.452224
C18   C     C_3   0.352231 0.866434 0.353871 -0.254902
C19   C     C_3   0.301288 0.944302 0.273680 -0.461252
C20   C     C_3   0.636575 0.134376 0.652158 -0.257699
C21   C     C_3   0.689030 0.055546 0.731260 -0.460687
C22   C     C_R   0.502655 0.128553 0.502888 0.004371
C23   C     C_R   0.496669 0.871645 0.498033 0.003153
C24   C     C_R   0.476194 0.500256 0.683069 0.537649
C25   C     C_R   0.523779 0.499828 0.316925 0.536890
C26   C     C_R   0.911921 0.576622 0.561872 0.027957
C27   C     C_R   0.088223 0.424287 0.437469 0.029811
C28   C     C_R   0.059391 0.575659 0.564488 0.127362
Cu1   Cu    Cu3+1 0.359340 0.499980 0.500000 0.905823
Cu2   Cu    Cu3+1 0.640660 0.500020 0.500000 0.908466
H1    H     H_    0.844549 0.637879 0.610908 0.116869
H2    H     H_    0.222435 0.675754 0.632690 0.215033
H3    H     H_    0.060027 0.753909 0.639065 0.096914
H4    H     H_    0.875644 0.176882 0.473148 0.167982
H5    H     H_    0.875404 0.124587 0.348475 0.140096
H6    H     H_    0.036267 0.173166 0.391961 0.130077
H7    H     H_    0.776890 0.330981 0.362757 0.217067
H8    H     H_    0.941312 0.338701 0.294665 0.103415
H9    H     H_    0.217359 0.011475 0.304271 0.141901
H10   H     H_    0.389921 0.994185 0.235319 0.151439
H11   H     H_    0.256775 0.882193 0.219981 0.144048
H12   H     H_    0.155916 0.364628 0.387401 0.118067
H13   H     H_    0.425296 0.793329 0.317826 0.155253
H14   H     H_    0.259822 0.820085 0.390808 0.173562
H15   H     H_    0.602185 0.001239 0.767219 0.151207
H16   H     H_    0.776598 0.992279 0.700179 0.143512
H17   H     H_    0.728975 0.117453 0.787121 0.143751
H18   H     H_    0.726683 0.187108 0.619343 0.169348
H19   H     H_    0.557607 0.202513 0.688515 0.152271
H20   H     H_    0.338597 0.500581 0.019450 0.130453
H21   H     H_    0.660972 0.500180 0.980508 0.130403
H22   H     H_    0.379551 0.120684 0.383446 0.119924
H23   H     H_    0.619241 0.879551 0.617757 0.120212
H24   H     H_    0.115761 0.514308 0.747178 0.178440
H25   H     H_    0.116561 0.670488 0.798081 0.134846
H26   H     H_    0.956539 0.609018 0.761496 0.132898
N1    N     N_R   0.147930 0.499970 0.499980 -0.232074
N2    N     N_R   0.852070 0.500030 0.500020 -0.231902
O1    O     O_R   0.381260 0.680340 0.500000 -0.527616
O2    O     O_R   0.618740 0.319660 0.500000 -0.519574
O3    O     O_R   0.618830 0.680370 0.500010 -0.498166
O4    O     O_R   0.381170 0.319630 0.499990 -0.499074
O5    O     O_R   0.364420 0.499960 0.637840 -0.503622
O6    O     O_R   0.635580 0.500040 0.362160 -0.509133
O7    O     O_R   0.601990 0.499990 0.637850 -0.499202
O8    O     O_R   0.398010 0.500010 0.362150 -0.499661

loop_
_geom_bond_atom_site_label_1
_geom_bond_atom_site_label_2
_ccdc_geom_bond_type
C5    C8    S    
C16   H8    S    
Cu1   O5    S    
C6    C7    S    
C17   H6    S    
C18   H14   S    
Cu1   Cu2   S    
C2    C16   S    
C11   C22   A    
C26   C28   A    
C16   H7    S    
C2    C27   A    
C15   H26   S    
C14   H3    S    
C2    N2    A    
C26   H1    S    
C21   H16   S    
C20   H18   S    
C18   H13   S    
C10   C22   A    
Cu1   O4    S    
C9    C11   A    
C27   H12   S    
Cu2   O6    S    
C20   H19   S    
C19   H9    S    
C24   O7    A    
C4    C7    T    
Cu2   N2    S    
Cu2   O2    S    
Cu1   N1    S    
C10   C13   A    
C1    C23   S    
C24   O5    A    
C13   H23   S    
C6    H20   S    
C1    O1    A    
C27   N1    A    
C5    C6    D    
C4    C24   S    
C21   H17   S    
Cu2   O7    S    
C17   H4    S    
C1    O3    A    
Cu1   O8    S    
C12   O2    A    
C15   H24   S    
C12   C22   S    
C9    C18   S    
C3    C25   S    
C12   O4    A    
C20   C21   S    
C13   C23   A    
C3    C8    T    
C19   H10   S    
Cu2   O3    S    
C10   C20   S    
C18   C19   S    
Cu1   O1    S    
C14   C15   S    
C5    H21   S    
C11   H22   S    
C17   H5    S    
C14   C28   S    
C28   N1    A    
C26   N2    A    
C9    C23   A    
C25   O8    A    
C19   H11   S    
C14   H2    S    
C16   C17   S    
C21   H15   S    
C25   O6    A    
C15   H25   S    
