data_mof_unit_3684.cif
_audit_creation_date              2012-10-26T19:28:15-0400
_audit_creation_method            fapswitch 2.2
_symmetry_space_group_name_H-M    P1
_symmetry_Int_Tables_number       1
_space_group_crystal_system       triclinic
_cell_length_a                    14.702015
_cell_length_b                    14.565583
_cell_length_c                    14.352215
_cell_angle_alpha                 77.585764
_cell_angle_beta                  102.065611
_cell_angle_gamma                 114.312711
_cell_volume                      2710.17231502

loop_
_atom_site_label
_atom_site_type_symbol
_atom_type_description
_atom_site_fract_x
_atom_site_fract_y
_atom_site_fract_z
_atom_type_partial_charge
C1    C     C_R   0.880693 0.311679 0.518158 0.544521
C2    C     C_R   0.499859 0.114121 0.411334 -0.148391
C3    C     C_R   0.601842 0.912087 0.621362 -0.139647
C4    C     C_R   0.398157 0.087915 0.378643 -0.139647
C5    C     C_R   0.713227 0.662038 0.336559 -0.158773
C6    C     C_R   0.286773 0.337962 0.663441 -0.158773
C7    C     C_R   0.793786 0.631200 0.363450 0.037180
C8    C     C_R   0.206214 0.368800 0.636550 0.037181
C9    C     C_R   0.716049 0.514210 0.492892 0.038155
C10   C     C_R   0.283952 0.485790 0.507108 0.038155
C11   C     C_R   0.626903 0.534348 0.462920 -0.014747
C12   C     C_R   0.119307 0.688321 0.481843 0.544521
C13   C     C_R   0.373097 0.465653 0.537081 -0.014747
C14   C     C_R   0.630084 0.616728 0.388364 0.040642
C15   C     C_R   0.369916 0.383273 0.611637 0.040642
C16   C     C_R   0.999834 0.499948 0.668867 0.543464
C17   C     C_R   0.000166 0.500052 0.331133 0.543464
C18   C     C_R   0.537327 0.478647 0.507342 0.002874
C19   C     C_R   0.462673 0.521353 0.492659 0.002875
C20   C     C_R   0.480655 0.618371 0.434617 0.000929
C21   C     C_R   0.519346 0.381629 0.565384 0.000928
C22   C     C_R   0.554335 0.656545 0.371690 0.023067
C23   C     C_R   0.639715 0.077084 0.520727 0.025028
C24   C     C_R   0.445666 0.343456 0.628311 0.023067
C25   C     C_1   0.999586 0.499959 0.771147 -0.048081
C26   C     C_1   0.000414 0.500040 0.228853 -0.048081
C27   C     C_1   0.999639 0.499963 0.856564 -0.047970
C28   C     C_1   0.000361 0.500037 0.143436 -0.047970
C29   C     C_1   0.999877 0.499987 0.957272 -0.006888
C30   C     C_1   0.000123 0.500013 0.042728 -0.006888
C31   C     C_R   0.813821 0.202997 0.537814 0.006202
C32   C     C_R   0.186179 0.797004 0.462188 0.006201
C33   C     C_R   0.773452 0.032258 0.626464 -0.109367
C34   C     C_R   0.360285 0.922917 0.479274 0.025028
C35   C     C_R   0.226547 0.967746 0.373544 -0.109366
C36   C     C_R   0.845133 0.129865 0.602628 -0.008736
C37   C     C_R   0.154866 0.870139 0.397380 -0.008735
C38   C     C_R   0.712729 0.174716 0.496211 -0.153415
C39   C     C_R   0.287273 0.825283 0.503788 -0.153415
C40   C     C_3   0.439362 0.691669 0.453265 -0.406980
C41   C     C_3   0.560639 0.308331 0.546736 -0.406979
C42   C     C_3   0.048131 0.845534 0.348266 -0.385879
C43   C     C_3   0.951865 0.154474 0.651747 -0.385883
C44   C     C_3   0.557004 0.745026 0.292356 -0.403990
C45   C     C_R   0.671777 0.006667 0.588650 0.036049
C46   C     C_3   0.442996 0.254975 0.707645 -0.403990
C47   C     C_R   0.328222 0.993335 0.411355 0.036049
C48   C     C_R   0.535511 0.048621 0.482651 0.032804
C49   C     C_R   0.464489 0.951380 0.517350 0.032804
C50   C     C_R   0.500140 0.885880 0.588668 -0.148391
Cu1   Cu    Cu3+1 0.081740 0.475690 0.523180 0.913805
Cu2   Cu    Cu3+1 0.918260 0.524310 0.476820 0.913805
H1    H     H_    0.625661 0.858558 0.674926 0.108725
H2    H     H_    0.724275 0.463300 0.557661 0.132081
H3    H     H_    0.143207 0.334282 0.677079 0.118792
H4    H     H_    0.856792 0.665718 0.322921 0.118792
H5    H     H_    0.718494 0.722825 0.276893 0.094433
H6    H     H_    0.281506 0.277175 0.723108 0.094433
H7    H     H_    0.500199 0.768550 0.455149 0.152387
H8    H     H_    0.377807 0.697827 0.395718 0.125428
H9    H     H_    0.412882 0.669717 0.524743 0.130037
H10   H     H_    0.499802 0.231451 0.544853 0.152387
H11   H     H_    0.587118 0.330283 0.475258 0.130038
H12   H     H_    0.374337 0.141446 0.325081 0.108724
H13   H     H_    0.622194 0.302174 0.604284 0.125429
H14   H     H_    0.996464 0.824462 0.402591 0.155226
H15   H     H_    0.039244 0.911482 0.297450 0.109172
H16   H     H_    0.026235 0.782356 0.306054 0.134605
H17   H     H_    0.003535 0.175539 0.597428 0.155223
H18   H     H_    0.973759 0.217658 0.693950 0.134608
H19   H     H_    0.960749 0.088531 0.702572 0.109172
H20   H     H_    0.489319 0.763577 0.281953 0.135623
H21   H     H_    0.624479 0.814002 0.308879 0.130230
H22   H     H_    0.559146 0.725280 0.222527 0.125523
H23   H     H_    0.307406 0.767488 0.552743 0.119661
H24   H     H_    0.510682 0.236424 0.718049 0.135623
H25   H     H_    0.440854 0.274721 0.777474 0.125524
H26   H     H_    0.375522 0.185999 0.691122 0.130230
H27   H     H_    0.692598 0.232509 0.447251 0.119660
H28   H     H_    0.796395 0.976629 0.677751 0.104918
H29   H     H_    0.203602 0.023377 0.322260 0.104917
H30   H     H_    0.451704 0.813249 0.621683 0.103409
H31   H     H_    0.548295 0.186753 0.378320 0.103409
H32   H     H_    0.275725 0.536700 0.442340 0.132081
N1    N     N_R   0.795420 0.560790 0.441960 -0.227320
N2    N     N_R   0.204580 0.439210 0.558040 -0.227320
O1    O     O_R   0.977910 0.338120 0.530560 -0.496338
O2    O     O_R   0.022090 0.661880 0.469440 -0.496339
O3    O     O_R   0.839850 0.379180 0.491410 -0.503316
O4    O     O_R   0.160150 0.620820 0.508590 -0.503316
O5    O     O_R   0.069040 0.479460 0.643530 -0.485532
O6    O     O_R   0.930960 0.520540 0.356470 -0.485531
O7    O     O_R   0.930990 0.520530 0.604380 -0.479600
O8    O     O_R   0.069010 0.479470 0.395620 -0.479600

loop_
_geom_bond_atom_site_label_1
_geom_bond_atom_site_label_2
_ccdc_geom_bond_type
C1    O1    A    
C11   C18   A    
C40   H8    S    
C27   C29   S    
C18   C21   A    
C33   C45   A    
C6    H6    S    
C19   C20   A    
C35   C47   A    
C46   H24   S    
C35   H29   S    
C16   O7    A    
C23   C45   A    
C17   C26   S    
C7    H4    S    
C12   O4    A    
Cu2   N1    S    
C35   C37   A    
Cu1   O4    S    
C20   C40   S    
C11   C14   A    
C38   H27   S    
C1    C31   S    
C33   C36   A    
C8    H3    S    
C18   C19   A    
C32   C39   A    
C37   C42   S    
Cu1   O5    S    
C6    C15   A    
C22   C44   S    
C1    O3    A    
C39   H23   S    
C9    N1    A    
C43   H17   S    
C40   H7    S    
C12   C32   S    
C42   H16   S    
Cu2   O3    S    
C17   O6    A    
C41   H10   S    
Cu1   N2    S    
C3    C50   A    
C12   O2    A    
C34   C39   A    
Cu2   O2    S    
Cu1   O1    S    
C46   H26   S    
C13   C19   A    
C41   H13   S    
C2    C48   A    
C3    C45   A    
C40   H9    S    
Cu1   Cu2   S    
C2    C4    A    
C29   C30   T    
Cu2   O7    S    
C15   C24   A    
C32   C37   A    
C44   H22   S    
C9    C11   A    
C5    C14   A    
C21   C41   S    
C48   C49   A    
C9    H2    S    
C20   C22   A    
C43   H18   S    
C13   C15   A    
C42   H15   S    
Cu2   O6    S    
C41   H11   S    
C50   H30   S    
C5    C7    A    
C16   C25   S    
C10   N2    A    
C34   C49   A    
C43   H19   S    
C23   C48   A    
C10   C13   A    
C46   H25   S    
C6    C8    A    
C33   H28   S    
C17   O8    A    
C25   C27   T    
C23   C38   A    
C4    H12   S    
C26   C28   T    
C31   C38   A    
C5    H5    S    
C24   C46   S    
C14   C22   A    
C28   C30   S    
C2    H31   S    
C3    H1    S    
C7    N1    A    
C10   H32   S    
C44   H20   S    
C8    N2    A    
C44   H21   S    
Cu1   O8    S    
C16   O5    A    
C49   C50   A    
C21   C24   A    
C42   H14   S    
C31   C36   A    
C36   C43   S    
C34   C47   A    
C4    C47   A    
