data_mof_unit_4195.cif
_audit_creation_date              2012-12-10T18:53:54-0500
_audit_creation_method            fapswitch 2.2
_symmetry_space_group_name_H-M    P1
_symmetry_Int_Tables_number       1
_space_group_crystal_system       triclinic
_cell_length_a                    19.384076
_cell_length_b                    18.159953
_cell_length_c                    10.858297
_cell_angle_alpha                 90.02247
_cell_angle_beta                  90.115239
_cell_angle_gamma                 89.944022
_cell_volume                      3822.26172683

loop_
_atom_site_label
_atom_site_type_symbol
_atom_type_description
_atom_site_fract_x
_atom_site_fract_y
_atom_site_fract_z
_atom_type_partial_charge
C1    C     C_R   0.367563 0.500080 0.499688 0.816653
C2    C     C_R   0.632511 0.500009 0.500172 0.818217
C3    C     C_R   0.816611 0.564273 0.538418 0.449324
C4    C     C_R   0.183986 0.560694 0.442486 0.520009
C5    C     C_R   0.744207 0.564009 0.534760 -0.291422
C6    C     C_R   0.256378 0.560823 0.448574 -0.315937
C7    C     C_R   0.708163 0.500102 0.501096 -0.090651
C8    C     C_R   0.292056 0.500348 0.497696 -0.084008
C9    C     C_R   0.965267 0.504785 0.606938 -0.219445
C10   C     C_R   0.036944 0.504516 0.605015 -0.259667
C11   C     C_R   0.072167 0.500056 0.492867 0.002531
C12   C     C_R   0.928049 0.500676 0.496684 -0.004723
C13   C     C_R   0.035406 0.493808 0.381358 0.389651
C14   C     C_R   0.962798 0.496934 0.383182 0.322372
C15   C     C_R   0.457031 0.720960 0.422556 0.085600
C16   C     C_R   0.543029 0.720897 0.577358 0.083132
C17   C     C_R   0.456238 0.798268 0.421047 -0.284589
C18   C     C_R   0.543904 0.798204 0.578763 -0.285369
C19   C     C_R   0.500080 0.838397 0.499897 0.112790
C20   C     C_R   0.561547 0.961237 0.517817 -0.177427
C21   C     C_R   0.438598 0.961342 0.482002 -0.176855
C22   C     C_R   0.499917 0.499911 0.262508 0.808796
C23   C     C_R   0.500083 0.499929 0.737494 0.808471
C24   C     C_R   0.561532 0.038614 0.517841 -0.177874
C25   C     C_R   0.438588 0.038716 0.482003 -0.177878
C26   C     C_R   0.500053 0.078701 0.499928 0.118557
C27   C     C_R   0.500078 0.921251 0.499900 0.118863
C28   C     C_R   0.456361 0.201746 0.420846 -0.285682
C29   C     C_R   0.543687 0.201696 0.579081 -0.285757
C30   C     C_R   0.457190 0.279069 0.422302 0.082217
C31   C     C_R   0.542826 0.279020 0.577670 0.080600
C32   C     C_R   0.500034 0.161556 0.499950 0.112690
C33   C     C_R   0.499631 0.563614 0.062024 0.127118
C34   C     C_R   0.499824 0.563627 0.938085 0.127019
C35   C     C_R   0.499918 0.499006 0.130009 -0.105257
C36   C     C_R   0.500156 0.499029 0.870000 -0.105253
C37   C     C_R   0.500324 0.431829 0.064523 -0.220324
C38   C     C_R   0.500447 0.431841 0.935390 -0.220755
C39   C     C_3   0.499315 0.645482 0.929188 -0.465866
C40   C     C_3   0.499038 0.645467 0.071070 -0.466915
C41   C     C_R   0.744831 0.436596 0.467771 -0.213187
C42   C     C_R   0.255243 0.440443 0.545111 -0.192531
C43   C     C_R   0.816581 0.437358 0.466114 -0.192580
C44   C     C_R   0.183507 0.441485 0.545179 -0.289522
C45   C     C_R   0.852526 0.500957 0.500535 0.074026
C46   C     C_R   0.147762 0.501069 0.493635 0.088279
Cu1   Cu    Cu3+1 0.500000 0.573360 0.500000 0.934897
Cu2   Cu    Cu3+1 0.500000 0.426640 0.500000 0.931544
H1    H     H_    0.500549 0.379482 0.112293 0.165898
H2    H     H_    0.500755 0.379497 0.887545 0.165717
H3    H     H_    0.423254 0.690743 0.361326 0.111067
H4    H     H_    0.576797 0.690632 0.638593 0.111596
H5    H     H_    0.422204 0.826259 0.357235 0.128379
H6    H     H_    0.577981 0.826144 0.642517 0.129064
H7    H     H_    0.610169 0.932731 0.529756 0.127788
H8    H     H_    0.389984 0.932919 0.470067 0.128457
H9    H     H_    0.610139 0.067047 0.529807 0.127403
H10   H     H_    0.389972 0.067228 0.470053 0.127723
H11   H     H_    0.422451 0.173775 0.356852 0.127857
H12   H     H_    0.577608 0.173685 0.643057 0.127785
H13   H     H_    0.423579 0.309323 0.360793 0.118379
H14   H     H_    0.576432 0.309237 0.639182 0.117631
H15   H     H_    0.547750 0.667420 0.888715 0.191241
H16   H     H_    0.450305 0.666750 0.111564 0.191216
H17   H     H_    0.450774 0.666819 0.887753 0.205118
H18   H     H_    0.547283 0.667437 0.112562 0.205057
H19   H     H_    0.718068 0.386773 0.440875 0.162163
H20   H     H_    0.281929 0.393495 0.584225 0.161584
H21   H     H_    0.844276 0.388289 0.438142 0.155016
H22   H     H_    0.155643 0.395294 0.583871 0.152480
H23   H     H_    0.716208 0.613541 0.558753 0.154477
H24   H     H_    0.284789 0.607652 0.413852 0.149199
H25   H     H_    0.938647 0.508163 0.694419 0.154135
H26   H     H_    0.065150 0.508419 0.691017 0.166306
N1    N     N_R   0.500000 0.683620 0.500000 -0.169081
N2    N     N_R   0.500000 0.316380 0.500000 -0.171361
O1    O     O_R   0.400190 0.561980 0.499980 -0.585969
O2    O     O_R   0.599810 0.561980 0.500020 -0.588570
O3    O     O_R   0.400190 0.438070 0.500040 -0.589461
O4    O     O_R   0.599810 0.438070 0.499960 -0.589095
O5    O     O_R   0.500000 0.561960 0.319660 -0.585889
O6    O     O_R   0.500000 0.561960 0.680340 -0.585397
O7    O     O_R   0.500000 0.438060 0.319720 -0.592705
O8    O     O_R   0.500000 0.438060 0.680280 -0.593131
O9    O     O_3   0.853122 0.627833 0.566369 -0.618516
C47   C     C_3   0.836480 0.654349 0.685488 0.042137
H27   H     H_    0.885027 0.656679 0.739961 0.169109
H28   H     H_    0.800280 0.618590 0.738530 0.117144
C48   C     C_3   0.806917 0.732273 0.675339 -0.327191
H29   H     H_    0.845394 0.768716 0.630341 0.229741
H30   H     H_    0.759619 0.731591 0.617444 0.208766
C49   C     C_3   0.789007 0.763633 0.801698 -0.943519
H31   H     H_    0.749453 0.728877 0.847313 0.254630
H32   H     H_    0.767951 0.820157 0.790979 0.256474
H33   H     H_    0.835834 0.766270 0.860670 0.265562
O10   O     O_3   0.147609 0.621098 0.398354 -0.613128
C50   C     C_3   0.166410 0.638184 0.275524 0.094181
H34   H     H_    0.118708 0.637161 0.218611 0.179395
H35   H     H_    0.202708 0.598012 0.232183 0.127774
C51   C     C_3   0.196805 0.715858 0.270456 -0.367503
H36   H     H_    0.157770 0.756066 0.303686 0.231618
H37   H     H_    0.242648 0.719448 0.331652 0.212065
C52   C     C_3   0.218153 0.736351 0.139705 -0.932631
H38   H     H_    0.258564 0.697957 0.105893 0.254693
H39   H     H_    0.239346 0.793133 0.139008 0.257936
H40   H     H_    0.172908 0.734212 0.076856 0.259512
O11   O     O_3   0.070817 0.491678 0.270672 -0.631724
C53   C     C_3   0.065853 0.420954 0.216465 0.063423
H41   H     H_    0.068029 0.428485 0.115013 0.169763
H42   H     H_    0.016352 0.392033 0.236122 0.157863
C54   C     C_3   0.126718 0.372729 0.256546 -0.372828
H43   H     H_    0.175801 0.403334 0.243340 0.235652
H44   H     H_    0.121317 0.358985 0.355646 0.212912
C55   C     C_3   0.129440 0.301193 0.183003 -0.924699
H45   H     H_    0.081067 0.269393 0.195940 0.255138
H46   H     H_    0.173539 0.267217 0.215395 0.257580
H47   H     H_    0.136556 0.313084 0.083493 0.255587
O12   O     O_3   0.925679 0.493035 0.274502 -0.627505
C56   C     C_3   0.918283 0.564765 0.226284 0.091023
H48   H     H_    0.969511 0.587592 0.199911 0.164462
H49   H     H_    0.893399 0.602114 0.294665 0.162447
C57   C     C_3   0.872561 0.561140 0.111709 -0.328635
H50   H     H_    0.896642 0.524041 0.042545 0.217556
H51   H     H_    0.821397 0.538133 0.137131 0.229646
C58   C     C_3   0.862332 0.637092 0.054529 -0.960023
H52   H     H_    0.837874 0.675086 0.121748 0.267360
H53   H     H_    0.828121 0.632301 0.972872 0.254616
H54   H     H_    0.912622 0.660243 0.024724 0.256180

loop_
_geom_bond_atom_site_label_1
_geom_bond_atom_site_label_2
_ccdc_geom_bond_type
C15   N1    A    
C26   C32   S    
C23   O6    A    
C3    O9    S    
C16   N1    A    
C1    O1    A    
Cu2   N2    S    
C2    C7    S    
C13   O11   S    
C50   H34   S    
C41   H19   S    
C4    C46   A    
O9    C47   S    
C6    H24   S    
C22   C35   S    
C9    H25   S    
Cu2   O3    S    
C35   C37   A    
C8    C42   A    
C29   C32   A    
C47   H28   S    
C56   C57   S    
C1    C8    S    
C30   N2    A    
C53   H41   S    
C18   C19   A    
Cu1   O6    S    
O12   C56   S    
C51   H36   S    
C33   C35   A    
C4    O10   S    
C52   H39   S    
C20   C24   A    
C24   H9    S    
C14   O12   S    
C58   H54   S    
O11   C53   S    
C44   H22   S    
C10   H26   S    
C15   H3    S    
C48   H30   S    
C19   C27   S    
C9    C10   A    
C41   C43   A    
C7    C41   A    
C21   C27   A    
C43   H21   S    
C40   H18   S    
C13   C14   A    
C42   H20   S    
C39   H17   S    
C31   H14   S    
C54   C55   S    
C42   C44   A    
C20   H7    S    
C51   H37   S    
C50   H35   S    
C44   C46   A    
C55   H45   S    
C56   H49   S    
C33   C40   S    
C23   O8    A    
C34   C39   S    
C22   O5    A    
C28   C32   A    
C4    C6    A    
C39   C40   S    
C5    C7    A    
C47   H27   S    
C6    C8    A    
C25   C26   A    
C3    C45   A    
C51   C52   S    
Cu2   O8    S    
C37   C38   A    
C2    O2    A    
C37   H1    S    
Cu1   Cu2   S    
C29   H12   S    
O10   C50   S    
C49   H32   S    
C33   C34   A    
C54   H44   S    
C48   C49   S    
C43   C45   A    
C16   C18   A    
C12   C14   A    
C58   H52   S    
C1    O3    A    
C25   H10   S    
C49   H33   S    
C57   H51   S    
C17   H5    S    
C50   C51   S    
C28   H11   S    
C15   C17   A    
C21   C25   A    
C54   H43   S    
C16   H4    S    
C24   C26   A    
C12   C45   S    
C3    C5    A    
C47   C48   S    
C21   H8    S    
C55   H46   S    
C56   H48   S    
C53   C54   S    
C38   H2    S    
C20   C27   A    
C39   H15   S    
C40   H16   S    
Cu2   O7    S    
C22   O7    A    
Cu2   O4    S    
C57   C58   S    
C36   C38   A    
C48   H29   S    
Cu1   N1    S    
C5    H23   S    
C11   C13   A    
C31   N2    A    
C28   C30   A    
C49   H31   S    
C17   C19   A    
C53   H42   S    
C52   H40   S    
C34   C36   A    
Cu1   O5    S    
C9    C12   A    
C55   H47   S    
C2    O4    A    
C10   C11   A    
C18   H6    S    
C29   C31   A    
C23   C36   S    
C30   H13   S    
C52   H38   S    
C58   H53   S    
Cu1   O1    S    
C11   C46   S    
Cu1   O2    S    
C57   H50   S    
