data_mof_unit_4248.cif
_audit_creation_date              2012-12-10T17:01:34-0500
_audit_creation_method            fapswitch 2.2
_symmetry_space_group_name_H-M    P1
_symmetry_Int_Tables_number       1
_space_group_crystal_system       triclinic
_cell_length_a                    12.852309
_cell_length_b                    10.723646
_cell_length_c                    10.092321
_cell_angle_alpha                 88.77065
_cell_angle_beta                  98.226248
_cell_angle_gamma                 91.684859
_cell_volume                      1375.84392545

loop_
_atom_site_label
_atom_site_type_symbol
_atom_type_description
_atom_site_fract_x
_atom_site_fract_y
_atom_site_fract_z
_atom_type_partial_charge
C1    C     C_R   0.493064 0.263050 0.500188 0.976280
C2    C     C_2   0.468035 0.132878 0.500396 -0.261348
C3    C     C_2   0.533375 0.592721 0.928648 -0.084952
C4    C     C_R   0.297841 0.493992 0.472572 0.957474
C5    C     C_2   0.556387 0.576322 0.077877 0.447891
C6    C     C_R   0.500953 0.737125 0.498289 0.925374
C7    C     C_R   0.701628 0.500753 0.527895 0.925367
C8    C     C_R   0.814080 0.501376 0.548419 -0.028595
C9    C     C_R   0.184180 0.483374 0.456456 -0.167677
C10   C     C_R   0.015947 0.395678 0.361884 -0.237574
C11   C     C_R   0.123453 0.405358 0.361564 0.365406
C12   C     C_R   0.030366 0.525113 0.560623 0.137606
C13   C     C_R   0.136450 0.544788 0.552051 -0.197551
C14   C     C_2   0.400191 0.458162 0.087287 0.551586
C15   C     C_2   0.038229 0.642339 0.781695 0.472802
C16   C     C_R   0.969983 0.452946 0.460248 0.083174
C17   C     C_R   0.863022 0.439921 0.456651 -0.134665
C18   C     C_R   0.872125 0.566288 0.654072 -0.208284
C19   C     C_R   0.981279 0.577487 0.663190 -0.030533
C20   C     C_2   0.450143 0.934755 0.399362 0.216820
C21   C     C_2   0.514410 0.868950 0.492191 0.116581
C22   C     C_2   0.464171 0.067796 0.389504 -0.118713
H1    H     H_    0.816853 0.384539 0.379387 0.180714
H2    H     H_    0.376872 0.361552 0.101615 0.118207
H3    H     H_    0.998587 0.712762 0.830162 0.100165
H4    H     H_    0.082161 0.149922 0.288332 0.341066
H5    H     H_    0.228910 0.011011 0.310536 0.371008
H6    H     H_    0.701089 0.773812 0.705297 0.366660
H7    H     H_    0.452656 0.088462 0.593741 0.182708
H8    H     H_    0.553308 0.680936 0.882837 0.213675
H9    H     H_    0.498158 0.414333 0.896953 0.154408
H10   H     H_    0.832272 0.608913 0.728525 0.168518
H11   H     H_    0.967547 0.340701 0.286448 0.201647
H12   H     H_    0.183639 0.607933 0.619574 0.222675
H13   H     H_    0.471132 0.110814 0.292583 0.213265
H14   H     H_    0.791496 0.775133 0.076791 0.403064
N1    N     N_2   0.501130 0.501330 0.852280 -0.201920
N2    N     N_2   0.501160 0.501360 0.147950 -0.256662
O1    O     O_R   0.499980 0.319060 0.613040 -0.613593
O2    O     O_2   0.755775 0.552870 0.189456 -0.318305
O3    O     O_3   0.720784 0.746398 0.034487 -0.563019
O4    O     O_2   0.338219 0.529488 0.024149 -0.455987
O5    O     O_2   0.126458 0.613053 0.831701 -0.474083
O6    O     O_2   0.177744 0.392344 0.118919 -0.184453
O7    O     O_2   0.280960 0.267653 0.295300 -0.365104
O8    O     O_3   0.092491 0.190397 0.201853 -0.484631
O9    O     O_2   0.378723 0.806417 0.177766 -0.186080
O10   O     O_2   0.281877 0.775254 0.368546 -0.339279
O11   O     O_3   0.258827 0.982404 0.231698 -0.439375
O12   O     O_R   0.500020 0.319100 0.386900 -0.631037
O13   O     O_2   0.683241 0.028777 0.507069 -0.245748
O14   O     O_2   0.610700 0.982387 0.714835 -0.292500
O15   O     O_3   0.718894 0.813210 0.621457 -0.527214
O16   O     O_R   0.346340 0.499960 0.594380 -0.609631
O17   O     O_R   0.346380 0.500000 0.368250 -0.548588
O18   O     O_R   0.499980 0.680900 0.613100 -0.628949
O19   O     O_R   0.500020 0.680940 0.386960 -0.539753
O20   O     O_R   0.653620 0.500000 0.631750 -0.628663
O21   O     O_R   0.653660 0.500040 0.405620 -0.561026
O22   O     O_2   0.662128 0.726505 0.268351 -0.229681
S1    S     S_3+6 0.675653 0.650787 0.149127 0.069422
S2    S     S_3+6 0.173604 0.313900 0.242958 0.047000
S3    S     S_3+6 0.340748 0.869272 0.292919 0.078630
S4    S     S_3+6 0.633225 0.928886 0.585724 0.054955
Zn1   Zn    Zn3+2 0.499980 0.499970 0.650990 1.020441
Zn2   Zn    Zn3+2 0.500020 0.500030 0.349010 1.110582

loop_
_geom_bond_atom_site_label_1
_geom_bond_atom_site_label_2
_ccdc_geom_bond_type
C2    C22   D    
C3    H8    S    
H6    O15   S    
O11   S3    S    
C14   N2    S    
O12   Zn2   S    
C1    O12   A    
O1    Zn1   S    
O20   Zn1   S    
C8    C17   A    
O3    S1    S    
O19   Zn2   S    
C14   O4    D    
C11   S2    S    
O6    S2    D    
C3    C5    S    
C20   S3    S    
C15   O5    D    
C13   H12   S    
C4    O17   A    
O16   Zn1   S    
C10   C16   A    
C5    N2    D    
C20   C21   D    
C15   C19   S    
C22   H13   S    
C9    C11   A    
C6    O19   A    
H14   O3    S    
C17   H1    S    
O8    S2    S    
C2    H7    S    
C6    O18   A    
C12   C19   A    
C7    O21   A    
C20   C22   S    
C1    C2    S    
C10   H11   S    
C6    C21   S    
O2    S1    D    
O21   Zn2   S    
O9    S3    D    
O15   S4    S    
C15   H3    S    
C18   H10   S    
C10   C11   A    
C1    O1    A    
C5    S1    S    
O18   Zn1   S    
C12   C16   A    
O7    S2    D    
C7    C8    S    
O17   Zn2   S    
C12   C13   A    
C3    N1    D    
C18   C19   A    
O14   S4    D    
C14   H2    S    
N2    Zn2   S    
C16   C17   A    
O10   S3    D    
C9    C13   A    
C7    O20   A    
C4    O16   A    
C4    C9    S    
H4    O8    S    
C8    C18   A    
O13   S4    D    
H5    O11   S    
H9    N1    S    
O22   S1    D    
C21   S4    S    
N1    Zn1   S    
