data_mof_unit_1174.cif
_audit_creation_date              2012-12-10T16:57:02-0500
_audit_creation_method            fapswitch 2.2
_symmetry_space_group_name_H-M    P1
_symmetry_Int_Tables_number       1
_space_group_crystal_system       triclinic
_cell_length_a                    7.790239
_cell_length_b                    8.571781
_cell_length_c                    16.530758
_cell_angle_alpha                 92.137601
_cell_angle_beta                  80.304916
_cell_angle_gamma                 93.603503
_cell_volume                      1085.54436952

loop_
_atom_site_label
_atom_site_type_symbol
_atom_type_description
_atom_site_fract_x
_atom_site_fract_y
_atom_site_fract_z
_atom_type_partial_charge
C1    C     C_R   0.546035 0.794696 0.497817 0.929480
C2    C     C_R   0.453702 0.691644 0.244229 -0.024029
C3    C     C_R   0.600317 0.531324 0.865323 0.569986
C4    C     C_R   0.489658 0.754277 0.166109 0.549570
C5    C     C_R   0.475069 0.632612 0.904896 -0.181467
C6    C     C_R   0.619639 0.693007 0.106565 -0.165251
C7    C     C_R   0.340027 0.673629 0.865422 0.665644
C8    C     C_R   0.724209 0.578434 0.127033 0.673475
C9    C     C_R   0.336998 0.623777 0.784876 -0.310564
C10   C     C_R   0.689455 0.515924 0.204789 -0.312096
C11   C     C_2   0.473345 0.682965 0.990271 -0.029374
C12   C     C_R   0.454006 0.205281 0.501837 0.942726
C13   C     C_2   0.620891 0.719191 0.019881 0.015222
C14   C     C_2   0.570377 0.958062 0.496336 -0.346341
C15   C     C_2   0.429737 0.041840 0.502629 -0.356805
C16   C     C_R   0.477179 0.503714 0.654929 0.928992
C17   C     C_R   0.525010 0.508888 0.345747 0.936889
C18   C     C_R   0.468279 0.531554 0.743046 -0.203632
C19   C     C_R   0.550499 0.567436 0.262685 -0.197539
C20   C     C_R   0.598162 0.481391 0.784214 -0.000287
F1    F     F_    0.213855 0.765550 0.904164 -0.607972
F2    F     F_    0.851188 0.518789 0.069914 -0.579492
F3    F     F_    0.393502 0.870555 0.147198 -0.631488
F4    F     F_    0.721078 0.476297 0.905814 -0.613551
F5    F     F_    0.040748 0.354166 0.427682 -0.560029
F6    F     F_    0.959217 0.645691 0.572406 -0.570779
H1    H     H_    0.768941 0.424967 0.219369 0.217405
H2    H     H_    0.203812 0.746959 0.282576 0.241337
H3    H     H_    0.235501 0.662785 0.754250 0.219075
H4    H     H_    0.745415 0.728670 0.978810 0.236176
H5    H     H_    0.348985 0.670424 0.031395 0.224980
H6    H     H_    0.703279 0.008883 0.490322 0.209209
H7    H     H_    0.296851 0.990998 0.508539 0.208342
H8    H     H_    0.717098 0.277175 0.778147 0.233395
H9    H     H_    0.849955 0.433725 0.744728 0.246427
H10   H     H_    0.355644 0.875329 0.313468 0.219402
N1    N     N_2   0.953500 0.457650 0.478520 0.258723
N2    N     N_2   0.046500 0.542350 0.521480 0.254957
N3    N     N_3   0.726468 0.378696 0.744143 -0.389836
N4    N     N_3   0.321849 0.756542 0.305038 -0.388612
O1    O     O_R   0.388470 0.738640 0.505270 -0.608835
O2    O     O_R   0.611530 0.261360 0.494730 -0.607012
O3    O     O_R   0.679650 0.711510 0.491500 -0.584713
O4    O     O_R   0.320350 0.288490 0.508500 -0.581437
O5    O     O_R   0.337210 0.515200 0.623500 -0.623671
O6    O     O_R   0.662790 0.484800 0.376500 -0.618145
O7    O     O_R   0.628380 0.488060 0.609730 -0.561852
O8    O     O_R   0.371620 0.511940 0.390270 -0.555225
Zn1   Zn    Zn3+2 0.305580 0.518120 0.509190 1.112467
Zn2   Zn    Zn3+2 0.694420 0.481880 0.490810 1.116155

loop_
_geom_bond_atom_site_label_1
_geom_bond_atom_site_label_2
_ccdc_geom_bond_type
C16   O5    A    
O4    Zn1   S    
C2    C4    A    
C17   O8    A    
O3    Zn2   S    
N1    N2    D    
O5    Zn1   S    
C13   H4    S    
H9    N3    S    
C12   C15   S    
C9    H3    S    
C10   C19   A    
C7    C9    A    
C20   N3    S    
C11   H5    S    
C3    C20   A    
C12   O4    A    
N2    Zn1   S    
C6    C13   S    
N1    Zn2   S    
C11   C13   D    
C3    F4    S    
O2    Zn2   S    
C6    C8    A    
C10   H1    S    
C16   O7    A    
O1    Zn1   S    
O8    Zn1   S    
C17   C19   S    
C15   H7    S    
C5    C11   S    
O7    Zn2   S    
C18   C20   A    
C4    C6    A    
H2    N4    S    
H8    N3    S    
C2    N4    S    
C9    C18   A    
H10   N4    S    
C17   O6    A    
C16   C18   S    
C1    O1    A    
C5    C7    A    
C4    F3    S    
O6    Zn2   S    
C14   C15   D    
F6    N2    S    
C12   O2    A    
C1    C14   S    
F5    N1    S    
C2    C19   A    
C7    F1    S    
C8    F2    S    
C1    O3    A    
C8    C10   A    
C14   H6    S    
C3    C5    A    
