data_mof_unit_4547.cif
_audit_creation_date              2012-12-10T17:12:02-0500
_audit_creation_method            fapswitch 2.2
_symmetry_space_group_name_H-M    P1
_symmetry_Int_Tables_number       1
_space_group_crystal_system       triclinic
_cell_length_a                    11.8772
_cell_length_b                    12.961792
_cell_length_c                    15.67033
_cell_angle_alpha                 95.760438
_cell_angle_beta                  72.997444
_cell_angle_gamma                 101.970036
_cell_volume                      2254.80192677

loop_
_atom_site_label
_atom_site_type_symbol
_atom_type_description
_atom_site_fract_x
_atom_site_fract_y
_atom_site_fract_z
_atom_type_partial_charge
C1    C     C_R   0.527415 0.701066 0.494327 0.820730
C2    C     C_R   0.474443 0.298174 0.501852 0.804073
C3    C     C_R   0.360597 0.496627 0.090161 -0.041695
C4    C     C_R   0.638582 0.460594 0.908853 -0.099716
C5    C     C_R   0.271951 0.459002 0.044912 -0.062481
C6    C     C_R   0.727444 0.493208 0.955163 -0.010727
C7    C     C_R   0.454712 0.181320 0.502962 -0.121906
C8    C     C_R   0.553272 0.816739 0.483806 -0.133644
C9    C     C_R   0.643835 0.993706 0.525416 0.008115
C10   C     C_R   0.371257 0.004830 0.453785 0.007649
C11   C     C_R   0.653814 0.886866 0.502283 0.161054
C12   C     C_R   0.357052 0.110102 0.480511 0.172325
C13   C     C_R   0.468897 0.858322 0.459335 -0.285616
C14   C     C_R   0.544734 0.140364 0.521154 -0.299717
C15   C     C_R   0.464446 0.965581 0.471688 0.053436
C16   C     C_R   0.550502 0.033375 0.507622 0.039965
C17   C     C_R   0.926821 0.568163 0.603170 -0.341820
C18   C     C_R   0.057082 0.396632 0.418350 -0.401023
C19   C     C_R   0.814971 0.569053 0.590654 0.200449
C20   C     C_R   0.175423 0.409330 0.422773 0.162396
C21   C     C_R   0.866433 0.465534 0.455154 0.264607
C22   C     C_R   0.136747 0.542597 0.538629 0.288578
C23   C     C_R   0.425016 0.488927 0.668706 0.808361
C24   C     C_R   0.574611 0.512080 0.331775 0.809396
C25   C     C_R   0.976842 0.457862 0.472382 0.019637
C26   C     C_R   0.012710 0.519969 0.540424 0.016091
C27   C     C_R   0.377034 0.466706 0.766144 -0.121357
C28   C     C_R   0.621126 0.527454 0.233898 -0.117174
C29   C     C_R   0.225763 0.392510 0.900961 0.097586
C30   C     C_R   0.774378 0.585266 0.094478 0.190111
C31   C     C_R   0.256701 0.416766 0.809038 0.106567
C32   C     C_R   0.733731 0.590318 0.190660 0.119961
C33   C     C_R   0.460950 0.485432 0.815344 -0.269273
C34   C     C_R   0.541565 0.486872 0.183436 -0.176900
C35   C     C_R   0.429918 0.462931 0.905577 0.038417
C36   C     C_R   0.571181 0.503626 0.092526 0.055600
C37   C     C_R   0.307626 0.436634 0.951468 0.033137
C38   C     C_R   0.693321 0.528395 0.046261 0.054361
C39   C     C_R   0.517978 0.472575 0.952278 -0.036920
C40   C     C_R   0.482466 0.489156 0.046197 0.048120
Cu1   Cu    Cu3+1 0.386820 0.492450 0.493500 0.976054
Cu2   Cu    Cu3+1 0.613180 0.507550 0.506500 0.971024
H1    H     H_    0.948355 0.609127 0.661841 0.151292
H2    H     H_    0.028962 0.338314 0.370465 0.175460
H3    H     H_    0.453807 0.443205 0.215508 0.162075
H4    H     H_    0.551788 0.522410 0.783833 0.176780
H5    H     H_    0.612014 0.194207 0.545365 0.163342
H6    H     H_    0.404687 0.804663 0.432081 0.153757
N1    N     N_R   0.216750 0.481110 0.483710 -0.197870
N2    N     N_R   0.783250 0.518890 0.516290 -0.201088
O1    O     O_R   0.419950 0.645670 0.495380 -0.588935
O2    O     O_R   0.580050 0.354330 0.504620 -0.575238
O3    O     O_R   0.611110 0.658410 0.506370 -0.547804
O4    O     O_R   0.388890 0.341590 0.493630 -0.544689
O5    O     O_R   0.350820 0.490050 0.621260 -0.582812
O6    O     O_R   0.649180 0.509950 0.378740 -0.612815
O7    O     O_R   0.541970 0.502800 0.632250 -0.546409
O8    O     O_R   0.458030 0.497200 0.367750 -0.538209
C41   C     C_2   0.144868 0.463178 0.091271 0.294928
H7    H     H_    0.094355 0.502387 0.061303 0.090092
O9    O     O_2   0.094624 0.418833 0.161151 -0.600024
C42   C     C_2   0.848467 0.468430 0.915004 0.382615
H8    H     H_    0.903169 0.498584 0.850881 0.099546
O10   O     O_2   0.887003 0.412448 0.953550 -0.597795
C43   C     C_2   0.252968 0.355828 0.346949 0.365618
H9    H     H_    0.237930 0.352869 0.281551 0.059073
O11   O     O_2   0.326874 0.308310 0.355238 -0.537224
C44   C     C_2   0.739946 0.630495 0.661122 0.392203
H10   H     H_    0.744679 0.631018 0.729353 0.051657
O12   O     O_2   0.680267 0.687499 0.644733 -0.539756
C45   C     C_3   0.803057 0.669259 0.244914 -0.445624
C46   C     C_3   0.788766 0.782079 0.236711 -0.791153
H11   H     H_    0.697091 0.793282 0.275270 0.259081
H12   H     H_    0.855040 0.838155 0.263795 0.246458
H13   H     H_    0.803764 0.801464 0.166713 0.267842
H14   H     H_    0.772707 0.656775 0.316954 0.218545
H15   H     H_    0.898704 0.661822 0.225637 0.192213
C47   C     C_3   0.160385 0.391722 0.760075 -0.396549
C48   C     C_3   0.168564 0.290528 0.701931 -0.766645
H16   H     H_    0.104725 0.281205 0.660994 0.251621
H17   H     H_    0.260428 0.292884 0.657318 0.249302
H18   H     H_    0.145471 0.220779 0.743540 0.238920
H19   H     H_    0.069352 0.384947 0.806974 0.218851
H20   H     H_    0.163743 0.457951 0.720074 0.225480
C49   C     C_3   0.119317 0.304710 0.940084 -0.364083
C50   C     C_3   0.158698 0.216457 0.975725 -0.788273
H21   H     H_    0.230201 0.185472 0.922713 0.248012
H22   H     H_    0.192327 0.244855 0.034522 0.272189
H23   H     H_    0.081160 0.150860 0.996752 0.246032
H24   H     H_    0.048362 0.335220 0.992945 0.251028
H25   H     H_    0.074009 0.265177 0.890142 0.227287
C51   C     C_3   0.895677 0.649639 0.043986 -0.415668
C52   C     C_3   0.882694 0.727462 0.981480 -0.836716
H26   H     H_    0.859880 0.686208 0.921623 0.237796
H27   H     H_    0.812075 0.773418 0.016415 0.265192
H28   H     H_    0.968945 0.783315 0.958184 0.246285
H29   H     H_    0.945182 0.696922 0.088558 0.217369
H30   H     H_    0.958025 0.597832 0.006245 0.210957
C53   C     C_2   0.327831 0.559630 0.176047 0.337980
H31   H     H_    0.242793 0.537167 0.225623 0.105812
O13   O     O_2   0.394770 0.640317 0.190670 -0.526438
C54   C     C_2   0.664947 0.397253 0.822528 0.337325
H32   H     H_    0.595359 0.335312 0.807937 0.106904
O14   O     O_2   0.761570 0.414992 0.766164 -0.583789
C55   C     C_3   0.233113 0.137280 0.493594 -0.337691
C56   C     C_3   0.135464 0.069857 0.564106 -0.895754
H33   H     H_    0.114914 0.986827 0.539756 0.255147
H34   H     H_    0.163636 0.071391 0.625901 0.261076
H35   H     H_    0.051266 0.101643 0.580874 0.267385
H36   H     H_    0.226254 0.218620 0.517274 0.238427
H37   H     H_    0.209055 0.126670 0.429614 0.261586
C57   C     C_3   0.774773 0.853265 0.488324 -0.313549
C58   C     C_3   0.881823 0.928551 0.431251 -0.882054
H38   H     H_    0.855392 0.964898 0.380597 0.251311
H39   H     H_    0.920014 0.991985 0.473366 0.270784
H40   H     H_    0.954667 0.884756 0.396227 0.256896
H41   H     H_    0.790489 0.846395 0.553675 0.267174
H42   H     H_    0.777974 0.776593 0.451071 0.216539
C59   C     C_2   0.729481 0.062188 0.569671 0.353715
H43   H     H_    0.772263 0.140977 0.547403 0.061652
O15   O     O_2   0.753516 0.030152 0.631687 -0.526299
C60   C     C_2   0.287709 0.936087 0.407789 0.364287
H44   H     H_    0.241691 0.858612 0.431714 0.038746
O16   O     O_2   0.270244 0.965949 0.342117 -0.522239
C61   C     C_3   0.178913 0.656284 0.569937 -0.342138
C62   C     C_3   0.201298 0.670322 0.661859 -0.789064
H45   H     H_    0.289491 0.653771 0.659379 0.278252
H46   H     H_    0.202282 0.754006 0.685929 0.226561
H47   H     H_    0.128545 0.620859 0.710870 0.217704
H48   H     H_    0.250556 0.699055 0.517800 0.204858
H49   H     H_    0.111829 0.705871 0.573097 0.154480
C63   C     C_3   0.859459 0.434890 0.359998 -0.342864
C64   C     C_3   0.788670 0.323926 0.348480 -0.711171
H50   H     H_    0.830803 0.288154 0.282411 0.237009
H51   H     H_    0.695806 0.326428 0.349478 0.264194
H52   H     H_    0.787847 0.271850 0.400900 0.224826
H53   H     H_    0.837006 0.496922 0.329207 0.203051
H54   H     H_    0.950386 0.438552 0.313866 0.208019

loop_
_geom_bond_atom_site_label_1
_geom_bond_atom_site_label_2
_ccdc_geom_bond_type
C30   C32   A    
C55   H36   S    
C52   H26   S    
C5    C37   A    
C1    C8    S    
Cu1   Cu2   S    
C2    C7    S    
C49   H25   S    
C51   H30   S    
C49   C50   S    
C27   C33   A    
C8    C13   A    
C17   C26   A    
C35   C37   A    
C9    C16   A    
Cu1   O8    S    
C10   C15   A    
C8    C11   A    
Cu2   O3    S    
C12   C55   S    
C50   H22   S    
C56   H33   S    
C63   H54   S    
C15   C16   A    
C30   C38   A    
C18   C20   A    
C1    O3    A    
C21   N2    A    
C42   O10   D    
Cu2   O6    S    
C47   H19   S    
C7    C14   A    
Cu1   O5    S    
C63   C64   S    
C43   O11   D    
C4    C54   S    
C64   H52   S    
C6    C38   A    
C23   C27   S    
C29   C49   S    
C58   H40   S    
C61   C62   S    
C55   H37   S    
C28   C34   A    
C41   H7    S    
C52   H27   S    
C33   H4    S    
C18   C25   A    
C46   H13   S    
C61   H48   S    
Cu2   O7    S    
Cu1   N1    S    
C57   C58   S    
C51   H29   S    
C32   C45   S    
C10   C12   A    
C59   O15   D    
C7    C12   A    
C41   O9    D    
C5    C41   S    
C27   C31   A    
C20   C43   S    
C28   C32   A    
C46   H12   S    
C2    O4    A    
C39   C40   A    
C48   H17   S    
C47   C48   S    
C44   H10   S    
C22   C61   S    
C62   H47   S    
C10   C60   S    
C63   H53   S    
C47   H20   S    
C35   C39   A    
C17   H1    S    
C21   C63   S    
C42   H8    S    
C18   H2    S    
C13   H6    S    
C20   N1    A    
C1    O1    A    
C61   H49   S    
C53   H31   S    
C4    C39   A    
C36   C40   A    
C49   H24   S    
C19   C44   S    
C34   H3    S    
C54   O14   D    
C9    C11   A    
C2    O2    A    
Cu2   N2    S    
C22   N1    A    
C30   C51   S    
C53   O13   D    
C3    C40   A    
C52   H28   S    
C13   C15   A    
C64   H50   S    
C9    C59   S    
C14   C16   A    
C4    C6    A    
C60   O16   D    
C45   H14   S    
C45   H15   S    
C31   C47   S    
C58   H38   S    
C23   O7    A    
C21   C25   A    
C62   H46   S    
C11   C57   S    
C50   H21   S    
C24   C28   S    
C46   H11   S    
C3    C5    A    
C50   H23   S    
C48   H18   S    
C59   H43   S    
C23   O5    A    
C14   H5    S    
C24   O6    A    
C55   C56   S    
C6    C42   S    
C36   C38   A    
C25   C26   A    
C45   C46   S    
C29   C31   A    
C57   H42   S    
C19   N2    A    
C57   H41   S    
C56   H34   S    
C62   H45   S    
C51   C52   S    
C33   C35   A    
C34   C36   A    
C54   H32   S    
Cu1   O4    S    
C48   H16   S    
C17   C19   A    
C3    C53   S    
C24   O8    A    
C43   H9    S    
C22   C26   A    
C29   C37   A    
C64   H51   S    
C44   O12   D    
C60   H44   S    
Cu1   O1    S    
Cu2   O2    S    
C58   H39   S    
C56   H35   S    
