data_mof_unit_4003.cif
_audit_creation_date              2012-12-11T14:32:58-0500
_audit_creation_method            fapswitch 2.2
_symmetry_space_group_name_H-M    P1
_symmetry_Int_Tables_number       1
_space_group_crystal_system       triclinic
_cell_length_a                    6.943017
_cell_length_b                    13.74096
_cell_length_c                    18.005992
_cell_angle_alpha                 112.480624
_cell_angle_beta                  95.529242
_cell_angle_gamma                 90.25699
_cell_volume                      1578.31675651

loop_
_atom_site_label
_atom_site_type_symbol
_atom_type_description
_atom_site_fract_x
_atom_site_fract_y
_atom_site_fract_z
_atom_type_partial_charge
O1    O     O_R   0.484560 0.544530 0.414330 -0.505183
O2    O     O_R   0.197040 0.638810 0.585080 -0.540369
O3    O     O_R   0.026800 0.455470 0.585670 -0.542910
C1    C     C_R   0.373971 0.678920 0.610399 0.680181
O4    O     O_R   0.155000 0.556150 0.414940 -0.547996
O5    O     O_R   0.984450 0.372220 0.414320 -0.537704
C2    C     C_R   0.318145 0.563310 0.385687 0.775308
O6    O     O_R   0.526900 0.627780 0.585680 -0.540555
O7    O     O_3   0.339170 0.439750 0.499990 -0.378806
V1    V     V_3+5 0.064350 0.511180 0.500000 1.377616
O8    O     O_R   0.654880 0.361190 0.414920 -0.540433
C3    C     C_R   0.816965 0.324305 0.386626 0.765757
O9    O     O_R   0.696930 0.443850 0.585060 -0.543194
C4    C     C_R   0.873254 0.433432 0.612218 0.687241
V2    V     V_3+5 0.564340 0.488820 0.500000 1.393401
O10   O     O_3   0.839390 0.560250 0.500010 -0.365279
C5    C     C_R   0.041342 0.861117 0.822984 -0.051232
C6    C     C_R   0.906508 0.397295 0.679472 -0.050411
C7    C     C_R   0.921509 0.821071 0.683457 -0.127945
C8    C     C_R   0.973634 0.788003 0.746277 -0.145323
C9    C     C_R   0.052192 0.969022 0.836974 -0.211951
C10   C     C_R   0.997483 0.005215 0.773841 0.096803
C11   C     C_R   0.933255 0.928250 0.696311 0.121185
C12   C     C_R   0.002531 0.114407 0.784767 0.067090
C13   C     C_R   0.945325 0.144003 0.717693 0.066908
C14   C     C_R   0.885435 0.063446 0.641978 -0.179645
C15   C     C_R   0.879411 0.958195 0.631832 -0.219638
C16   C     C_R   0.062441 0.194963 0.860481 -0.179730
C17   C     C_R   0.068532 0.300210 0.870619 -0.219721
C18   C     C_R   0.014700 0.330152 0.806137 0.121325
C19   C     C_R   0.950385 0.253193 0.728617 0.096741
C20   C     C_R   0.026541 0.437325 0.818979 -0.127976
C21   C     C_R   0.974369 0.470396 0.756164 -0.145160
C22   C     C_R   0.895626 0.289390 0.665487 -0.212045
H1    H     H_    0.830613 0.899316 0.572572 0.117706
H2    H     H_    0.847392 0.236369 0.604671 0.092277
H3    H     H_    0.988955 0.553371 0.767362 0.091622
H4    H     H_    0.117374 0.359085 0.929875 0.117246
H5    H     H_    0.869724 0.762534 0.624548 0.138511
H6    H     H_    0.959143 0.705022 0.735070 0.091325
H7    H     H_    0.100365 0.022046 0.897796 0.092195
H8    H     H_    0.840652 0.078912 0.588809 0.122979
H9    H     H_    0.107226 0.179499 0.913651 0.122532
H10   H     H_    0.078438 0.495855 0.877875 0.138969
H11   H     H_    0.113945 0.224345 0.308531 0.153289
H12   H     H_    0.834096 0.034775 0.193303 0.155091
C23   C     C_2   0.135720 0.037763 0.183914 -0.356250
C24   C     C_2   0.972581 0.078104 0.216760 -0.129371
H13   H     H_    0.674414 0.177393 0.294508 0.125937
C25   C     C_2   0.812583 0.220903 0.318359 -0.366150
C26   C     C_2   0.975532 0.180904 0.285176 -0.133622
H14   H     H_    0.273917 0.081236 0.207824 0.123776
C27   C     C_R   0.409172 0.785096 0.677232 -0.056256
C28   C     C_R   0.539291 0.473120 0.825488 -0.057193
C29   C     C_R   0.530407 0.886850 0.816836 -0.125694
C30   C     C_R   0.478374 0.790284 0.754127 -0.141920
C31   C     C_R   0.397626 0.880084 0.663557 -0.210629
C32   C     C_R   0.452039 0.980751 0.727199 0.097574
C33   C     C_R   0.517187 0.981416 0.804457 0.118837
C34   C     C_R   0.445775 0.080422 0.717518 0.066200
C35   C     C_R   0.502371 0.177819 0.785261 0.066519
C36   C     C_R   0.562925 0.172187 0.860349 -0.179824
C37   C     C_R   0.570395 0.076270 0.869428 -0.217792
C38   C     C_R   0.385167 0.086055 0.642437 -0.179597
C39   C     C_R   0.377726 0.181965 0.633350 -0.217597
C40   C     C_R   0.431025 0.276813 0.698307 0.118829
C41   C     C_R   0.496170 0.277485 0.775569 0.097720
C42   C     C_R   0.417922 0.371365 0.685902 -0.126003
C43   C     C_R   0.470091 0.467924 0.748590 -0.141844
C44   C     C_R   0.550679 0.378150 0.839195 -0.210793
H15   H     H_    0.619825 0.076359 0.928436 0.117455
H16   H     H_    0.599615 0.385659 0.899837 0.091569
H17   H     H_    0.454522 0.539201 0.736940 0.091270
H18   H     H_    0.328272 0.181874 0.574344 0.117871
H19   H     H_    0.583018 0.887573 0.875639 0.142867
H20   H     H_    0.494049 0.718998 0.765758 0.091534
H21   H     H_    0.348679 0.872584 0.602920 0.091445
H22   H     H_    0.607083 0.241112 0.913720 0.122108
H23   H     H_    0.340943 0.017136 0.589074 0.122730
H24   H     H_    0.365322 0.370640 0.627096 0.142121
H25   H     H_    0.339551 0.669857 0.197269 0.138862
C45   C     C_2   0.319920 0.599384 0.317456 -0.385531
C46   C     C_2   0.482405 0.601397 0.280673 0.326029
H26   H     H_    0.776287 0.629594 0.199102 0.133109
C47   C     C_2   0.636800 0.653184 0.180838 -0.347972
C48   C     C_2   0.477409 0.644748 0.216201 -0.202787
H27   H     H_    0.185499 0.626715 0.297624 0.087280
O11   O     O_R   0.421600 0.630430 0.917010 -0.539384
O12   O     O_R   0.793840 0.702190 0.087630 -0.545188
O13   O     O_R   0.964010 0.886170 0.088190 -0.536223
C49   C     C_R   0.631372 0.693146 0.115557 0.761451
O14   O     O_R   0.751460 0.619510 0.917500 -0.539474
O15   O     O_R   0.921330 0.802900 0.916840 -0.541968
C50   C     C_R   0.574542 0.579316 0.892286 0.684658
O16   O     O_R   0.464290 0.713700 0.088350 -0.535914
O17   O     O_3   0.609200 0.818520 0.002630 -0.374787
V3    V     V_3+5 0.884140 0.747190 0.002530 1.369219
O18   O     O_R   0.251150 0.814630 0.917340 -0.542145
C51   C     C_R   0.074755 0.824976 0.890230 0.691365
O19   O     O_R   0.293530 0.897310 0.087470 -0.542932
C52   C     C_R   0.131511 0.934046 0.115951 0.763031
V4    V     V_3+5 0.384070 0.769710 0.002370 1.371059
O20   O     O_3   0.109180 0.698190 0.002460 -0.374478
N1    N     N_2   0.659406 0.562461 0.303492 -0.468913
H28   H     H_    0.778841 0.613308 0.316678 0.241720
C53   C     C_3   0.693901 0.454879 0.252543 -0.497754
H29   H     H_    0.832031 0.430953 0.275672 0.182610
H30   H     H_    0.704769 0.447424 0.189466 0.171818
H31   H     H_    0.574720 0.401011 0.253117 0.187325

loop_
_geom_bond_atom_site_label_1
_geom_bond_atom_site_label_2
_ccdc_geom_bond_type
C42   H24   S    
C40   C42   A    
C29   C30   A    
C13   C19   A    
C30   H20   S    
O17   V4    S    
C1    C27   S    
C4    C6    S    
O2    C1    A    
C7    C8    A    
C1    O6    A    
N1    C53   S    
C47   C49   S    
C47   C48   D    
C14   C15   A    
C17   C18   A    
C23   C52   S    
C16   C17   A    
C29   C33   A    
O5    C3    A    
C18   C19   A    
C8    H6    S    
C53   H29   S    
H11   C26   S    
C32   C34   A    
V2    O10   S    
O18   C51   A    
C5    C8    A    
O8    V2    S    
C24   C26   S    
C42   C43   A    
C17   H4    S    
C43   H17   S    
O1    V2    S    
C11   C15   A    
O12   C49   A    
O7    V1    S    
O15   C51   A    
O13   V3    S    
H25   C48   S    
O16   V4    S    
C29   H19   S    
C40   C41   A    
O9    C4    A    
V4    O20   S    
O19   V4    S    
N1    H28   S    
O14   V3    S    
H12   C24   S    
O11   C50   A    
C46   N1    S    
C31   H21   S    
H26   C47   S    
O4    C2    A    
C27   C31   A    
C15   H1    S    
C32   C33   A    
O18   V4    S    
C21   H3    S    
C39   H18   S    
O12   V3    S    
C34   C35   A    
C7    C11   A    
O13   C52   A    
C36   C37   A    
C5    C51   S    
C35   C41   A    
C3    C25   S    
C23   C24   D    
C28   C44   A    
O17   V3    S    
C46   C48   S    
O14   C50   A    
C25   C26   D    
C20   H10   S    
C19   C22   A    
C12   C13   A    
C6    C22   A    
V3    O20   S    
O3    C4    A    
C7    H5    S    
C9    H7    S    
C37   H15   S    
C45   C46   D    
O6    V2    S    
O9    V2    S    
C38   H23   S    
C10   C12   A    
O2    V1    S    
O15   V3    S    
C14   H8    S    
C27   C30   A    
O1    C2    A    
C36   H22   S    
C12   C16   A    
O5    V1    S    
O11   V4    S    
O8    C3    A    
C23   H14   S    
C16   H9    S    
C33   C37   A    
C34   C38   A    
C41   C44   A    
C20   C21   A    
C13   C14   A    
O4    V1    S    
O3    V1    S    
V1    O10   S    
C38   C39   A    
C18   C20   A    
C31   C32   A    
C28   C43   A    
C53   H30   S    
O19   C52   A    
C22   H2    S    
C39   C40   A    
O7    V2    S    
C35   C36   A    
C6    C21   A    
C5    C9    A    
C28   C50   S    
C49   O16   A    
C2    C45   S    
H13   C25   S    
C10   C11   A    
C44   H16   S    
C9    C10   A    
C45   H27   S    
C53   H31   S    
